#	Name: ASD01870305
#	Creating user name:	WinNT
#	Creation time:	15. 06. 2019 19:39

#	Modifying user name:	WinNT
#	Modification time:	15. 06. 2019 19:39

#	Program:	/corina/corina34_cracker 3.40 0067  02.08.2006

@<TRIPOS>MOLECULE
ASD01870305
  52   54    0    0    0
SMALL
NO_CHARGES


@<TRIPOS>ATOM
   1 C1            -0.0179     1.4712     0.0101 C.ar    
   2 C2             0.0021    -0.0041     0.0020 C.2     
   3 N3             0.0001    -0.6716    -1.1688 N.am    
   4 C4             0.0199    -2.1365    -1.1769 C.3     
   5 C5             0.0131    -2.6387    -2.6221 C.3     
   6 N6             0.0330    -4.1075    -2.6302 N.3     
   7 C7             0.0270    -4.6265    -4.0044 C.3     
   8 O8             0.0204    -0.6176     1.0516 O.2     
   9 C9             0.6563    -6.0226    -4.0246 C.3     
  10 N10           -0.9442    -6.7775    -5.6931 N.am    
  11 C11            0.5071    -6.6150    -5.4350 C.3     
  12 C12           -1.4206    -5.3872    -5.8903 C.3     
  13 C13           -1.4151    -4.7032    -4.5139 C.3     
  14 C14           -0.3202    -4.7261    -6.7519 C.3     
  15 C15            0.9563    -5.5390    -6.4504 C.3     
  16 C16           -1.6603    -7.9184    -5.7378 C.2     
  17 O17           -1.1126    -8.9872    -5.5523 O.2     
  18 O18           -2.9824    -7.8740    -5.9879 O.3     
  19 C19           -3.6900    -9.1415    -6.0211 C.3     
  20 C20           -5.1703    -8.8916    -6.3168 C.3     
  21 C21            1.1816     2.1911     0.0025 C.ar    
  22 C22            1.1537     3.5730     0.0098 C.ar    
  23 C23           -0.0555     4.2441     0.0244 C.ar    
  24 C24           -1.2461     3.5403     0.0325 C.ar    
  25 C25           -1.2366     2.1582     0.0196 C.ar    
  26 F26            2.3639     1.5374    -0.0113 F       
  27 F27           -2.4007     1.4726     0.0271 F       
  28 H28           -0.0145    -0.1822    -2.0061 H       
  29 H29            0.9196    -2.4904    -0.6735 H       
  30 H30           -0.8601    -2.5146    -0.6566 H       
  31 H31           -0.8866    -2.2847    -3.1255 H       
  32 H32            0.8931    -2.2605    -3.1423 H       
  33 H33            0.8242    -4.4612    -2.1135 H       
  34 H34            0.6029    -3.9599    -4.6464 H       
  35 H35            1.7134    -5.9503    -3.7689 H       
  36 H36            0.1475    -6.6628    -3.3040 H       
  37 H37            1.0528    -7.5519    -5.5461 H       
  38 H38           -2.3978    -5.3509    -6.3719 H       
  39 H39           -2.0187    -5.2831    -3.8157 H       
  40 H40           -1.8243    -3.6970    -4.6046 H       
  41 H41           -0.5734    -4.7955    -7.8098 H       
  42 H42           -0.1845    -3.6845    -6.4607 H       
  43 H43            1.7200    -4.8975    -6.0107 H       
  44 H44            1.3311    -6.0084    -7.3599 H       
  45 H45           -3.2656    -9.7742    -6.8006 H       
  46 H46           -3.5911    -9.6382    -5.0560 H       
  47 H47           -5.2692    -8.3949    -7.2820 H       
  48 H48           -5.7014    -9.8431    -6.3417 H       
  49 H49           -5.5947    -8.2589    -5.5373 H       
  50 H50            2.0788     4.1303     0.0043 H       
  51 H51           -0.0702     5.3239     0.0300 H       
  52 H52           -2.1860     4.0722     0.0446 H       
@<TRIPOS>BOND
   1    1    2 1
   2    1   21 ar
   3    1   25 ar
   4    2    3 am
   5    2    8 2
   6    3    4 1
   7    3   28 1
   8    4    5 1
   9    4   29 1
  10    4   30 1
  11    5    6 1
  12    5   31 1
  13    5   32 1
  14    6    7 1
  15    6   33 1
  16    7    9 1
  17    7   13 1
  18    7   34 1
  19    9   11 1
  20    9   35 1
  21    9   36 1
  22   10   11 1
  23   10   12 1
  24   10   16 am
  25   11   15 1
  26   11   37 1
  27   12   14 1
  28   12   13 1
  29   12   38 1
  30   13   39 1
  31   13   40 1
  32   14   15 1
  33   14   41 1
  34   14   42 1
  35   15   43 1
  36   15   44 1
  37   16   17 2
  38   16   18 1
  39   18   19 1
  40   19   20 1
  41   19   45 1
  42   19   46 1
  43   20   47 1
  44   20   48 1
  45   20   49 1
  46   21   22 ar
  47   21   26 1
  48   22   23 ar
  49   22   50 1
  50   23   24 ar
  51   23   51 1
  52   24   25 ar
  53   24   52 1
  54   25   27 1

#	End of record

