#	Name: ASD04550008
#	Creating user name:	WinNT
#	Creation time:	15. 06. 2019 20:49

#	Modifying user name:	WinNT
#	Modification time:	15. 06. 2019 20:49

#	Program:	/corina/corina34_cracker 3.40 0067  02.08.2006

@<TRIPOS>MOLECULE
ASD04550008
  28   29    0    0    0
SMALL
NO_CHARGES


@<TRIPOS>ATOM
   1 C1            -0.0169     1.3915     0.0097 C.ar    
   2 C2             0.0021    -0.0041     0.0020 C.ar    
   3 C3             1.2235    -0.6793    -0.0133 C.ar    
   4 C4             2.4034     0.0357    -0.0207 C.ar    
   5 C5             2.3776     1.4190    -0.0130 C.ar    
   6 C6             1.1702     2.0944     0.0021 C.ar    
   7 C7            -1.2661    -0.7638     0.0105 C.2     
   8 C8             3.6704     2.1934    -0.0212 C.3     
   9 C9             3.7253     3.0809    -1.2663 C.3     
  10 C10           -1.3683    -2.1078     0.0043 C.2     
  11 C11           -2.6617    -2.5878     0.0146 C.2     
  12 C12           -3.6134    -1.6500     0.0291 C.2     
  13 S13           -2.8751    -0.0539     0.0379 S.3     
  14 C14            3.7480     3.0544     1.2132 C.2     
  15 O15            2.8461     3.0405     2.0171 O.2     
  16 O16            4.8191     3.8366     1.4196 O.3     
  17 H17           -0.9587     1.9199     0.0170 H       
  18 H18            1.2449    -1.7590    -0.0189 H       
  19 H19            3.3492    -0.4856    -0.0322 H       
  20 H20            1.1570     3.1743     0.0084 H       
  21 H21            4.5101     1.4986    -0.0330 H       
  22 H22            4.6604     3.6411    -1.2722 H       
  23 H23            3.6692     2.4582    -2.1591 H       
  24 H24            2.8856     3.7758    -1.2545 H       
  25 H25           -0.5058    -2.7576    -0.0080 H       
  26 H26           -2.8883    -3.6437     0.0108 H       
  27 H27           -4.6759    -1.8431     0.0382 H       
  28 H28            4.8237     4.3709     2.2256 H       
@<TRIPOS>BOND
   1    1    2 ar
   2    1    6 ar
   3    1   17 1
   4    2    3 ar
   5    2    7 1
   6    3    4 ar
   7    3   18 1
   8    4    5 ar
   9    4   19 1
  10    5    6 ar
  11    5    8 1
  12    6   20 1
  13    7   10 2
  14    7   13 1
  15    8    9 1
  16    8   14 1
  17    8   21 1
  18    9   22 1
  19    9   23 1
  20    9   24 1
  21   10   11 1
  22   10   25 1
  23   11   12 2
  24   11   26 1
  25   12   13 1
  26   12   27 1
  27   14   15 2
  28   14   16 1
  29   16   28 1

#	End of record

