#	Name: ASD01120342
#	Creating user name:	WinNT
#	Creation time:	15. 06. 2019 18:59

#	Modifying user name:	WinNT
#	Modification time:	15. 06. 2019 18:59

#	Program:	/corina/corina34_cracker 3.40 0067  02.08.2006

@<TRIPOS>MOLECULE
ASD01120342
  44   46    0    0    0
SMALL
NO_CHARGES


@<TRIPOS>ATOM
   1 C1            -0.0001     1.3203     1.7757 C.3     
   2 C2             0.0171    -0.1813     1.4828 C.3     
   3 O3            -1.3462    -0.6682     1.3706 O.3     
   4 C4            -1.5079    -1.9818     1.1122 C.2     
   5 O5            -0.5356    -2.7002     0.9841 O.2     
   6 C6            -2.8588    -2.5446     0.9854 C.2     
   7 N7            -4.0375    -1.8341     1.1093 N.pl3   
   8 C8            -5.0947    -2.6939     0.9277 C.ar    
   9 C9            -4.5583    -3.9742     0.6841 C.ar    
  10 C10           -3.1487    -3.8462     0.7216 C.2     
  11 C11           -5.4186    -5.0557     0.4617 C.ar    
  12 C12           -6.7892    -4.8527     0.4839 C.ar    
  13 C13           -7.3080    -3.5754     0.7271 C.ar    
  14 C14           -6.4766    -2.5162     0.9448 C.ar    
  15 N15           -7.0443    -1.1733     1.2006 N.pl3   
  16 O16           -8.2520    -1.0156     1.2165 O.2     
  17 O17           -6.3039    -0.2260     1.3953 O.2     
  18 C18           -7.7098    -5.9926     0.2488 C.ar    
  19 C19           -7.1975    -7.2656     0.0059 C.ar    
  20 C20           -8.0554    -8.3253    -0.2132 C.ar    
  21 C21           -9.4228    -8.1281    -0.1921 C.ar    
  22 C22           -9.9424    -6.8621     0.0498 C.ar    
  23 C23           -9.0877    -5.7941     0.2759 C.ar    
  24 N24          -11.3279    -6.6664     0.0704 N.am    
  25 C25          -12.1365    -7.6245     0.5650 C.2     
  26 O26          -11.6723    -8.6892     0.9140 O.2     
  27 C27          -13.6176    -7.3727     0.6845 C.3     
  28 H28            1.0233     1.6858     1.8599 H       
  29 H29           -0.5070     1.8429     0.9645 H       
  30 H30           -0.5289     1.5019     2.7113 H       
  31 H31            0.5459    -0.3629     0.5471 H       
  32 H32            0.5240    -0.7039     2.2940 H       
  33 H33           -4.1074    -0.8845     1.2943 H       
  34 H34           -2.4326    -4.6410     0.5733 H       
  35 H35           -5.0173    -6.0406     0.2739 H       
  36 H36           -8.3777    -3.4271     0.7425 H       
  37 H37           -6.1292    -7.4235    -0.0113 H       
  38 H38           -7.6563    -9.3109    -0.4019 H       
  39 H39          -10.0896    -8.9601    -0.3644 H       
  40 H40           -9.4895    -4.8094     0.4641 H       
  41 H41          -11.7063    -5.8412    -0.2713 H       
  42 H42          -14.1143    -7.6836    -0.2346 H       
  43 H43          -14.0164    -7.9426     1.5237 H       
  44 H44          -13.7932    -6.3099     0.8509 H       
@<TRIPOS>BOND
   1    1    2 1
   2    1   28 1
   3    1   29 1
   4    1   30 1
   5    2    3 1
   6    2   31 1
   7    2   32 1
   8    3    4 1
   9    4    5 2
  10    4    6 1
  11    6    7 1
  12    6   10 2
  13    7    8 1
  14    7   33 1
  15    8    9 ar
  16    8   14 ar
  17    9   10 1
  18    9   11 ar
  19   10   34 1
  20   11   12 ar
  21   11   35 1
  22   12   13 ar
  23   12   18 1
  24   13   14 ar
  25   13   36 1
  26   14   15 1
  27   15   16 2
  28   15   17 2
  29   18   19 ar
  30   18   23 ar
  31   19   20 ar
  32   19   37 1
  33   20   21 ar
  34   20   38 1
  35   21   22 ar
  36   21   39 1
  37   22   23 ar
  38   22   24 1
  39   23   40 1
  40   24   25 am
  41   24   41 1
  42   25   26 2
  43   25   27 1
  44   27   42 1
  45   27   43 1
  46   27   44 1

#	End of record

