#	Name: ASD03092273
#	Creating user name:	WinNT
#	Creation time:	15. 06. 2019 20:32

#	Modifying user name:	WinNT
#	Modification time:	15. 06. 2019 20:32

#	Program:	/corina/corina34_cracker 3.40 0067  02.08.2006

@<TRIPOS>MOLECULE
ASD03092273
  36   38    0    0    0
SMALL
NO_CHARGES


@<TRIPOS>ATOM
   1 F1             0.0021    -0.0041     0.0020 F       
   2 C2            -0.0169     1.3948     0.0097 C.3     
   3 F3             1.2956     1.8790    -0.0002 F       
   4 F4            -0.6935     1.8582    -1.1237 F       
   5 C5            -0.7223     1.8808     1.2496 C.2     
   6 C6            -0.9215     3.1696     1.5676 C.2     
   7 C7            -1.6406     3.1897     2.8437 C.ar    
   8 C8            -2.1216     4.2063     3.6704 C.ar    
   9 C9            -2.7697     3.8877     4.8307 C.ar    
  10 C10           -3.2888     4.9858     5.7228 C.3     
  11 N11           -4.6605     5.3229     5.3345 N.am    
  12 C12           -5.3316     6.2851     5.9981 C.2     
  13 O13           -4.7986     6.8731     6.9187 O.2     
  14 C14           -6.7163     6.6254     5.6061 C.ar    
  15 C15           -7.4199     7.6270     6.2850 C.ar    
  16 C16           -8.7123     7.9107     5.8825 C.ar    
  17 C17           -9.2670     7.1947     4.8218 C.ar    
  18 N18           -8.5703     6.2497     4.1998 N.ar    
  19 C19           -7.3382     5.9553     4.5491 C.ar    
  20 C20          -10.6045     7.4815     4.3980 C.1     
  21 N21          -11.6655     7.7090     4.0618 N.1     
  22 C22           -2.9539     2.5609     5.1937 C.ar    
  23 C23           -2.4872     1.5417     4.3925 C.ar    
  24 C24           -1.8244     1.8429     3.2075 C.ar    
  25 N25           -1.2596     1.0735     2.2150 N.pl3   
  26 H26           -1.2432     0.1038     2.2030 H       
  27 H27           -0.6104     4.0288     0.9920 H       
  28 H28           -1.9819     5.2411     3.3943 H       
  29 H29           -3.2771     4.6481     6.7591 H       
  30 H30           -2.6553     5.8669     5.6206 H       
  31 H31           -5.0859     4.8536     4.5998 H       
  32 H32           -6.9647     8.1650     7.1035 H       
  33 H33           -9.2851     8.6769     6.3836 H       
  34 H34           -6.8019     5.1838     4.0166 H       
  35 H35           -3.4680     2.3249     6.1138 H       
  36 H36           -2.6352     0.5123     4.6839 H       
@<TRIPOS>BOND
   1    1    2 1
   2    2    3 1
   3    2    4 1
   4    2    5 1
   5    5   25 1
   6    5    6 2
   7    6    7 1
   8    6   27 1
   9    7   24 ar
  10    7    8 ar
  11    8    9 ar
  12    8   28 1
  13    9   10 1
  14    9   22 ar
  15   10   11 1
  16   10   29 1
  17   10   30 1
  18   11   12 am
  19   11   31 1
  20   12   13 2
  21   12   14 1
  22   14   19 ar
  23   14   15 ar
  24   15   16 ar
  25   15   32 1
  26   16   17 ar
  27   16   33 1
  28   17   18 ar
  29   17   20 1
  30   18   19 ar
  31   19   34 1
  32   20   21 3
  33   22   23 ar
  34   22   35 1
  35   23   24 ar
  36   23   36 1
  37   24   25 1
  38   25   26 1

#	End of record

