#	Name: ASD01911095
#	Creating user name:	WinNT
#	Creation time:	15. 06. 2019 19:57

#	Modifying user name:	WinNT
#	Modification time:	15. 06. 2019 19:57

#	Program:	/corina/corina34_cracker 3.40 0067  02.08.2006

@<TRIPOS>MOLECULE
ASD01911095
  45   48    0    0    0
SMALL
NO_CHARGES


@<TRIPOS>ATOM
   1 O1            -0.5242     1.5818     0.4644 O.3     
   2 C2            -0.4270     0.2447     0.2595 C.2     
   3 N3            -1.4040    -0.6663     0.4474 N.2     
   4 C4            -0.8738    -1.8221     0.1296 C.2     
   5 O5             0.3896    -1.5859    -0.2366 O.3     
   6 N6             0.6270    -0.3987    -0.1615 N.2     
   7 C7            -1.5591    -3.1637     0.1700 C.3     
   8 C8            -1.5580    -3.7802    -1.2308 C.3     
   9 C9            -2.2826    -5.1278    -1.1974 C.3     
  10 C10           -1.5424    -6.0777    -0.2505 C.3     
  11 N11           -1.4116    -5.4302     1.0619 N.am    
  12 C12           -0.8107    -4.0913     1.1323 C.3     
  13 C13           -1.8349    -6.0526     2.1799 C.2     
  14 O14           -1.6528    -5.5399     3.2670 O.2     
  15 C15           -2.5201    -7.3578     2.0843 C.ar    
  16 C16           -1.9961    -8.3666     1.2730 C.ar    
  17 C17           -2.6395    -9.5826     1.1874 C.ar    
  18 C18           -3.8049    -9.8051     1.9049 C.ar    
  19 C19           -4.3298    -8.8069     2.7114 C.ar    
  20 C20           -3.6911    -7.5893     2.8092 C.ar    
  21 F21           -4.4316   -10.9988     1.8174 F       
  22 C22            0.6048     2.3291     0.3465 C.ar    
  23 C23            1.8335     1.7087     0.1774 C.ar    
  24 C24            2.9815     2.4721     0.0577 C.ar    
  25 C25            2.9026     3.8537     0.1073 C.ar    
  26 C26            1.6778     4.4725     0.2759 C.ar    
  27 C27            0.5289     3.7141     0.3896 C.ar    
  28 F28            4.1793     1.8694    -0.1071 F       
  29 H29           -2.5866    -3.0372     0.5110 H       
  30 H30           -2.0686    -3.1104    -1.9227 H       
  31 H31           -0.5301    -3.9287    -1.5614 H       
  32 H32           -3.3033    -4.9834    -0.8432 H       
  33 H33           -2.3019    -5.5554    -2.1998 H       
  34 H34           -2.1078    -7.0037    -0.1464 H       
  35 H35           -0.5522    -6.2948    -0.6512 H       
  36 H36            0.2392    -4.1464     0.8445 H       
  37 H37           -0.8933    -3.7068     2.1489 H       
  38 H38           -1.0886    -8.1941     0.7135 H       
  39 H39           -2.2353   -10.3633     0.5601 H       
  40 H40           -5.2380    -8.9853     3.2679 H       
  41 H41           -4.1005    -6.8126     3.4380 H       
  42 H42            1.8945     0.6311     0.1395 H       
  43 H43            3.7992     4.4488     0.0145 H       
  44 H44            1.6188     5.5501     0.3146 H       
  45 H45           -0.4273     4.1988     0.5209 H       
@<TRIPOS>BOND
   1    1    2 1
   2    1   22 1
   3    2    3 1
   4    2    6 2
   5    3    4 2
   6    4    5 1
   7    4    7 1
   8    5    6 1
   9    7    8 1
  10    7   12 1
  11    7   29 1
  12    8    9 1
  13    8   30 1
  14    8   31 1
  15    9   10 1
  16    9   32 1
  17    9   33 1
  18   10   11 1
  19   10   34 1
  20   10   35 1
  21   11   12 1
  22   11   13 am
  23   12   36 1
  24   12   37 1
  25   13   14 2
  26   13   15 1
  27   15   16 ar
  28   15   20 ar
  29   16   17 ar
  30   16   38 1
  31   17   18 ar
  32   17   39 1
  33   18   19 ar
  34   18   21 1
  35   19   20 ar
  36   19   40 1
  37   20   41 1
  38   22   23 ar
  39   22   27 ar
  40   23   24 ar
  41   23   42 1
  42   24   25 ar
  43   24   28 1
  44   25   26 ar
  45   25   43 1
  46   26   27 ar
  47   26   44 1
  48   27   45 1

#	End of record

