#	Name: ASD07930609
#	Creating user name:	WinNT
#	Creation time:	15. 06. 2019 21:12

#	Modifying user name:	WinNT
#	Modification time:	15. 06. 2019 21:12

#	Program:	/corina/corina34_cracker 3.40 0067  02.08.2006

@<TRIPOS>MOLECULE
ASD07930609
  39   40    0    0    0
SMALL
NO_CHARGES


@<TRIPOS>ATOM
   1 C1             0.0880     1.4147     0.5622 C.3     
   2 N2             0.6213    -0.1443    -1.9269 N.2     
   3 N3            -0.9458    -1.6365    -1.0443 N.pl3   
   4 C4            -0.8423    -2.8068    -0.1663 C.3     
   5 C5            -0.9762    -2.3565     1.2950 C.3     
   6 S6             0.2974    -1.0979     1.6238 S.o2    
   7 N7             0.0995    -0.0355     0.3554 N.am    
   8 C8            -0.0543    -0.5924    -0.9062 C.2     
   9 C9             0.5160    -3.4805    -0.3710 C.3     
  10 C10           -1.9433    -3.7817    -0.4954 C.ar    
  11 C11           -2.4460    -3.8481    -1.7817 C.ar    
  12 C12           -3.4618    -4.7487    -2.0838 C.ar    
  13 C13           -3.9678    -5.5781    -1.0933 C.ar    
  14 C14           -3.4621    -5.5081     0.1909 C.ar    
  15 C15           -2.4474    -4.6150     0.4894 C.ar    
  16 O16           -0.0298    -0.3393     2.7799 O.2     
  17 O17            1.5990    -1.6372     1.4387 O.2     
  18 F18           -1.9548    -4.5492     1.7456 F       
  19 N19           -3.9738    -4.8181    -3.3866 N.am    
  20 C20           -5.2227    -5.2795    -3.5961 C.2     
  21 O21           -5.9385    -5.5419    -2.6527 O.2     
  22 C22           -5.7297    -5.4693    -5.0025 C.3     
  23 F23           -1.9514    -3.0388    -2.7438 F       
  24 H24            1.1034     1.8019     0.4776 H       
  25 H25           -0.5439     1.8842    -0.1918 H       
  26 H26           -0.3042     1.6372     1.5546 H       
  27 H27            1.2441     0.5903    -1.8116 H       
  28 H28           -1.6373    -1.5983    -1.7235 H       
  29 H29           -1.9656    -1.9296     1.4587 H       
  30 H30           -0.8293    -3.2097     1.9573 H       
  31 H31            1.3103    -2.7481    -0.2267 H       
  32 H32            0.6326    -4.2896     0.3501 H       
  33 H33            0.5729    -3.8838    -1.3820 H       
  34 H34           -4.7568    -6.2780    -1.3257 H       
  35 H35           -3.8562    -6.1538     0.9616 H       
  36 H36           -3.4293    -4.5342    -4.1374 H       
  37 H37           -5.4962    -6.4791    -5.3398 H       
  38 H38           -6.8093    -5.3200    -5.0227 H       
  39 H39           -5.2505    -4.7459    -5.6622 H       
@<TRIPOS>BOND
   1    1    7 1
   2    1   24 1
   3    1   25 1
   4    1   26 1
   5    2    8 2
   6    2   27 1
   7    3    4 1
   8    3    8 1
   9    3   28 1
  10    4    5 1
  11    4    9 1
  12    4   10 1
  13    5    6 1
  14    5   29 1
  15    5   30 1
  16    6    7 am
  17    6   16 2
  18    6   17 2
  19    7    8 1
  20    9   31 1
  21    9   32 1
  22    9   33 1
  23   10   11 ar
  24   10   15 ar
  25   11   12 ar
  26   11   23 1
  27   12   13 ar
  28   12   19 1
  29   13   14 ar
  30   13   34 1
  31   14   15 ar
  32   14   35 1
  33   15   18 1
  34   19   20 am
  35   19   36 1
  36   20   21 2
  37   20   22 1
  38   22   37 1
  39   22   38 1
  40   22   39 1

#	End of record

