#	Name: ASD01810835
#	Creating user name:	WinNT
#	Creation time:	15. 06. 2019 19:25

#	Modifying user name:	WinNT
#	Modification time:	15. 06. 2019 19:25

#	Program:	/corina/corina34_cracker 3.40 0067  02.08.2006

@<TRIPOS>MOLECULE
ASD01810835
  59   64    0    0    0
SMALL
NO_CHARGES


@<TRIPOS>ATOM
   1 C1            -0.0178     1.4608     0.0101 C.3     
   2 C2            -1.0644    -4.2858    -1.9275 C.ar    
   3 C3            -1.1161    -2.9333    -1.9768 C.ar    
   4 C4            -0.5355    -2.1451    -0.9709 C.ar    
   5 C5             0.1185    -2.7475     0.1193 C.ar    
   6 C6             0.1784    -4.2050     0.1782 C.ar    
   7 C7             0.8125    -4.8707     1.2321 C.ar    
   8 C8             0.8454    -6.2347     1.2472 C.ar    
   9 C9             0.2553    -6.9729     0.2263 C.ar    
  10 C10           -0.3705    -6.3547    -0.8149 C.ar    
  11 C11           -0.4242    -4.9532    -0.8623 C.ar    
  12 C12           -1.7072    -5.0918    -3.0268 C.3     
  13 C13           -4.1787    -4.6610    -2.9063 C.ar    
  14 C14           -3.1015    -5.4851    -2.6118 C.ar    
  15 C15           -3.3197    -6.6701    -1.9347 C.ar    
  16 N16           -4.5344    -7.0256    -1.5672 N.ar    
  17 C17           -5.4430    -5.0585    -2.5082 C.ar    
  18 C18           -5.5905    -6.2664    -1.8294 C.ar    
  19 C19           -0.5859    -0.6781    -1.0136 C.2     
  20 N20            0.0021    -0.0041     0.0020 N.am    
  21 C21            0.6101    -0.6745     1.0123 C.2     
  22 N22            0.6668    -1.9731     1.0706 N.2     
  23 O23           -1.1354    -0.0906    -1.9279 O.2     
  24 C24            1.4176     1.9904    -0.0008 C.3     
  25 C25            1.3968     3.5202     0.0076 C.3     
  26 C26            0.6807     4.0136     1.2664 C.3     
  27 C27           -0.7547     3.4840     1.2773 C.3     
  28 C28           -0.7339     1.9542     1.2689 C.3     
  29 O29            2.0865     1.5295    -1.1765 O.3     
  30 C30           -6.9390    -6.7069    -1.3963 C.2     
  31 C31           -8.1586    -6.0635    -1.6863 C.2     
  32 N32           -9.1214    -6.7514    -1.1328 N.2     
  33 N33           -8.5605    -7.8516    -0.4733 N.pl3   
  34 C34           -7.2254    -7.8131    -0.6491 C.2     
  35 H35           -0.5450     1.8219    -0.8730 H       
  36 H36           -1.6133    -2.4520    -2.8059 H       
  37 H37            1.2743    -4.3079     2.0299 H       
  38 H38            1.3357    -6.7475     2.0615 H       
  39 H39            0.2940    -8.0517     0.2591 H       
  40 H40           -0.8241    -6.9414    -1.6001 H       
  41 H41           -1.7541    -4.4931    -3.9364 H       
  42 H42           -1.1167    -5.9890    -3.2123 H       
  43 H43           -4.0329    -3.7281    -3.4306 H       
  44 H44           -2.4836    -7.3136    -1.7040 H       
  45 H45           -6.3034    -4.4413    -2.7207 H       
  46 H46            1.0691    -0.1035     1.8058 H       
  47 H47            1.9448     1.6293     0.8823 H       
  48 H48            2.4194     3.8975    -0.0001 H       
  49 H49            0.8697     3.8813    -0.8754 H       
  50 H50            1.2079     3.6525     2.1495 H       
  51 H51            0.6659     5.1035     1.2724 H       
  52 H52           -1.2649     3.8356     2.1741 H       
  53 H53           -1.2819     3.8451     0.3942 H       
  54 H54           -1.7565     1.5769     1.2766 H       
  55 H55           -0.2067     1.5931     2.1519 H       
  56 H56            3.0034     1.8277    -1.2498 H       
  57 H57           -8.2767    -5.1590    -2.2647 H       
  58 H58           -9.0494    -8.5277     0.0215 H       
  59 H59           -6.5104    -8.5244    -0.2628 H       
@<TRIPOS>BOND
   1    1   20 1
   2    1   24 1
   3    1   28 1
   4    1   35 1
   5    2    3 ar
   6    2   11 ar
   7    2   12 1
   8    3    4 ar
   9    3   36 1
  10    4    5 ar
  11    4   19 1
  12    5    6 ar
  13    5   22 1
  14    6    7 ar
  15    6   11 ar
  16    7    8 ar
  17    7   37 1
  18    8    9 ar
  19    8   38 1
  20    9   10 ar
  21    9   39 1
  22   10   11 ar
  23   10   40 1
  24   12   14 1
  25   12   41 1
  26   12   42 1
  27   13   14 ar
  28   13   17 ar
  29   13   43 1
  30   14   15 ar
  31   15   16 ar
  32   15   44 1
  33   16   18 ar
  34   17   18 ar
  35   17   45 1
  36   18   30 1
  37   19   20 am
  38   19   23 2
  39   20   21 1
  40   21   22 2
  41   21   46 1
  42   24   25 1
  43   24   29 1
  44   24   47 1
  45   25   26 1
  46   25   48 1
  47   25   49 1
  48   26   27 1
  49   26   50 1
  50   26   51 1
  51   27   28 1
  52   27   52 1
  53   27   53 1
  54   28   54 1
  55   28   55 1
  56   29   56 1
  57   30   31 1
  58   30   34 2
  59   31   32 2
  60   31   57 1
  61   32   33 1
  62   33   34 1
  63   33   58 1
  64   34   59 1

#	End of record

