#	Name: ASD01200223
#	Creating user name:	WinNT
#	Creation time:	15. 06. 2019 19:08

#	Modifying user name:	WinNT
#	Modification time:	15. 06. 2019 19:08

#	Program:	/corina/corina34_cracker 3.40 0067  02.08.2006

@<TRIPOS>MOLECULE
ASD01200223
  48   49    0    0    0
SMALL
NO_CHARGES


@<TRIPOS>ATOM
   1 C1            -0.4882     1.0725     0.0097 C.ar    
   2 C2            -0.2885    -0.2953    -0.0039 C.ar    
   3 C3             0.9959    -0.8062    -0.0120 C.ar    
   4 C4             2.0807     0.0507    -0.0069 C.ar    
   5 C5             1.8809     1.4185     0.0057 C.ar    
   6 C6             0.5965     1.9294     0.0153 C.ar    
   7 C7             1.2137    -2.2973    -0.0258 C.3     
   8 C8             1.9976    -2.6866    -1.2807 C.3     
   9 C9             1.9926    -2.7026     1.1989 C.2     
  10 N10            2.2060    -4.0074     1.4606 N.am    
  11 O11            2.4273    -1.8550     1.9488 O.2     
  12 C12            1.1476    -2.4040    -2.5211 C.3     
  13 C13            2.8170    -4.3741     2.6046 C.2     
  14 N14            3.0304    -5.6789     2.8663 N.am    
  15 O15            3.1756    -3.5282     3.4002 O.2     
  16 C16            1.9719    -2.6613    -3.7948 C.3     
  17 C17            1.2432    -3.7759    -4.5736 C.3     
  18 C18           -0.2213    -3.6915    -4.0766 C.3     
  19 C19           -0.0532    -3.3712    -2.5705 C.3     
  20 C20            3.6946    -6.0775     4.1097 C.3     
  21 C21            0.2693     4.1353    -1.7217 C.3     
  22 S22            0.3419     3.6728     0.0309 S.o2    
  23 O23           -0.9303     3.8357     0.6427 O.2     
  24 O24            1.5177     4.1933     0.6356 O.2     
  25 H25           -1.4918     1.4717     0.0115 H       
  26 H26           -1.1360    -0.9648    -0.0078 H       
  27 H27            3.0842    -0.3484    -0.0126 H       
  28 H28            2.7284     2.0880     0.0100 H       
  29 H29            0.2493    -2.8053    -0.0276 H       
  30 H30            2.9173    -2.1037    -1.3300 H       
  31 H31            2.2418    -3.7482    -1.2418 H       
  32 H32            1.9199    -4.6825     0.8256 H       
  33 H33            0.7965    -1.3722    -2.5057 H       
  34 H34            2.7443    -6.3540     2.2313 H       
  35 H35            2.0201    -1.7546    -4.3978 H       
  36 H36            2.9774    -2.9875    -3.5292 H       
  37 H37            1.2936    -3.5874    -5.6460 H       
  38 H38            1.6712    -4.7497    -4.3360 H       
  39 H39           -0.7561    -2.8891    -4.5848 H       
  40 H40           -0.7315    -4.6449    -4.2141 H       
  41 H41            0.1655    -4.2797    -2.0094 H       
  42 H42           -0.9490    -2.8875    -2.1810 H       
  43 H43            4.6900    -5.6350     4.1480 H       
  44 H44            3.1097    -5.7303     4.9615 H       
  45 H45            3.7782    -7.1637     4.1449 H       
  46 H46           -0.5545     3.6081    -2.2028 H       
  47 H47            0.1120     5.2105    -1.8075 H       
  48 H48            1.2067     3.8653    -2.2078 H       
@<TRIPOS>BOND
   1    1    2 ar
   2    1    6 ar
   3    1   25 1
   4    2    3 ar
   5    2   26 1
   6    3    4 ar
   7    3    7 1
   8    4    5 ar
   9    4   27 1
  10    5    6 ar
  11    5   28 1
  12    6   22 1
  13    7    8 1
  14    7    9 1
  15    7   29 1
  16    8   12 1
  17    8   30 1
  18    8   31 1
  19    9   10 am
  20    9   11 2
  21   10   13 am
  22   10   32 1
  23   12   16 1
  24   12   19 1
  25   12   33 1
  26   13   14 am
  27   13   15 2
  28   14   20 1
  29   14   34 1
  30   16   17 1
  31   16   35 1
  32   16   36 1
  33   17   18 1
  34   17   37 1
  35   17   38 1
  36   18   19 1
  37   18   39 1
  38   18   40 1
  39   19   41 1
  40   19   42 1
  41   20   43 1
  42   20   44 1
  43   20   45 1
  44   21   22 1
  45   21   46 1
  46   21   47 1
  47   21   48 1
  48   22   23 2
  49   22   24 2

#	End of record

