#	Name: ASD05842011
#	Creating user name:	WinNT
#	Creation time:	15. 06. 2019 21:03

#	Modifying user name:	WinNT
#	Modification time:	15. 06. 2019 21:03

#	Program:	/corina/corina34_cracker 3.40 0067  02.08.2006

@<TRIPOS>MOLECULE
ASD05842011
  47   49    0    0    0
SMALL
NO_CHARGES


@<TRIPOS>ATOM
   1 C1            -0.0167     1.3784     0.0096 C.ar    
   2 C2             0.0021    -0.0041     0.0020 C.ar    
   3 C3            -1.1841    -0.7122     0.0095 C.ar    
   4 C4            -2.3948    -0.0349     0.0247 C.ar    
   5 C5            -2.4109     1.3523     0.0323 C.ar    
   6 C6            -1.2219     2.0557     0.0305 C.ar    
   7 C7             1.2788     2.1484     0.0014 C.3     
   8 N8             1.6865     2.4060    -1.3862 N.3     
   9 C9             2.9485     3.1564    -1.4334 C.3     
  10 C10            3.3397     3.4050    -2.8915 C.3     
  11 C11            4.6343     4.1749    -2.9399 C.ar    
  12 C12            5.8397     3.4989    -2.9735 C.ar    
  13 C13            7.0272     4.2051    -3.0179 C.ar    
  14 C14            7.0094     5.5872    -3.0291 C.ar    
  15 C15            5.8040     6.2632    -2.9965 C.ar    
  16 C16            4.6164     5.5570    -2.9565 C.ar    
  17 O17           -3.5630    -0.7292     0.0317 O.3     
  18 C18           -4.7711     0.0339     0.0474 C.3     
  19 C19           -5.9545    -0.8991     0.0531 C.ar    
  20 C20           -6.4861    -1.3339     1.2528 C.ar    
  21 C21           -7.5716    -2.1898     1.2581 C.ar    
  22 C22           -8.1258    -2.6105     0.0637 C.ar    
  23 C23           -7.5948    -2.1751    -1.1360 C.ar    
  24 C24           -6.5120    -1.3158    -1.1412 C.ar    
  25 H25            0.9448    -0.5308    -0.0102 H       
  26 H26           -1.1689    -1.7920     0.0032 H       
  27 H27           -3.3521     1.8818     0.0442 H       
  28 H28           -1.2339     3.1356     0.0364 H       
  29 H29            1.1414     3.0963     0.5217 H       
  30 H30            2.0507     1.5662     0.5048 H       
  31 H31            1.7579     1.5452    -1.9078 H       
  32 H32            2.8226     4.1113    -0.9231 H       
  33 H33            3.7319     2.5812    -0.9400 H       
  34 H34            3.4655     2.4501    -3.4018 H       
  35 H35            2.5563     3.9802    -3.3849 H       
  36 H36            5.8536     2.4190    -2.9647 H       
  37 H37            7.9689     3.6769    -3.0434 H       
  38 H38            7.9372     6.1390    -3.0631 H       
  39 H39            5.7902     7.3431    -3.0049 H       
  40 H40            3.6747     6.0852    -2.9310 H       
  41 H41           -4.7955     0.6572     0.9412 H       
  42 H42           -4.8122     0.6674    -0.8387 H       
  43 H43           -6.0531    -1.0052     2.1860 H       
  44 H44           -7.9865    -2.5300     2.1954 H       
  45 H45           -8.9735    -3.2798     0.0678 H       
  46 H46           -8.0276    -2.5041    -2.0692 H       
  47 H47           -6.0972    -0.9755    -2.0785 H       
@<TRIPOS>BOND
   1    1    2 ar
   2    1    7 1
   3    1    6 ar
   4    2    3 ar
   5    2   25 1
   6    3    4 ar
   7    3   26 1
   8    4    5 ar
   9    4   17 1
  10    5    6 ar
  11    5   27 1
  12    6   28 1
  13    7    8 1
  14    7   29 1
  15    7   30 1
  16    8    9 1
  17    8   31 1
  18    9   10 1
  19    9   32 1
  20    9   33 1
  21   10   11 1
  22   10   34 1
  23   10   35 1
  24   11   12 ar
  25   11   16 ar
  26   12   13 ar
  27   12   36 1
  28   13   14 ar
  29   13   37 1
  30   14   15 ar
  31   14   38 1
  32   15   16 ar
  33   15   39 1
  34   16   40 1
  35   17   18 1
  36   18   19 1
  37   18   41 1
  38   18   42 1
  39   19   20 ar
  40   19   24 ar
  41   20   21 ar
  42   20   43 1
  43   21   22 ar
  44   21   44 1
  45   22   23 ar
  46   22   45 1
  47   23   24 ar
  48   23   46 1
  49   24   47 1

#	End of record

