#	Name: ASD03330550
#	Creating user name:	WinNT
#	Creation time:	15. 06. 2019 20:37

#	Modifying user name:	WinNT
#	Modification time:	15. 06. 2019 20:37

#	Program:	/corina/corina34_cracker 3.40 0067  02.08.2006

@<TRIPOS>MOLECULE
ASD03330550
  64   66    0    0    0
SMALL
NO_CHARGES


@<TRIPOS>ATOM
   1 C1            -0.3230     1.1659     0.8511 C.2     
   2 N2            -0.3525    -0.1673     1.0845 N.pl3   
   3 C3             0.9824     1.5531     0.8958 C.2     
   4 N4             1.7296     0.4541     1.1372 N.2     
   5 C5             0.9360    -0.5853     1.2463 C.2     
   6 C6             1.3667    -1.9776     1.5024 C.ar    
   7 C7             1.4885     2.9250     0.7130 C.2     
   8 O8             0.7118     3.8363     0.4994 O.2     
   9 C9             3.3151     4.5337     0.6008 C.3     
  10 N10            2.8120     3.1699     0.7825 N.am    
  11 C11            3.4897     4.8182    -0.8923 C.3     
  12 C12            2.1220     4.8023    -1.5779 C.3     
  13 C13            4.1370     6.1921    -1.0775 C.3     
  14 C14            4.3847     3.7447    -1.5148 C.3     
  15 C15            4.6435     4.6762     1.2980 C.2     
  16 N16            5.1794     5.8988     1.4838 N.am    
  17 O17            5.2304     3.6906     1.6919 O.2     
  18 C18            6.5034     6.0328     2.0964 C.3     
  19 C19           -1.5626    -0.9906     1.1602 C.3     
  20 C20           -2.4702    -0.6613    -0.0290 C.3     
  21 C21           -3.3821     0.5085     0.3273 C.3     
  22 N22           -2.7036     1.4504     1.2202 N.3     
  23 C23           -1.5201     2.0386     0.5759 C.3     
  24 C24           -3.6263     2.4962     1.6815 C.3     
  25 C25            2.6185    -2.4132     1.0702 C.ar    
  26 C26            3.0150    -3.7178     1.3134 C.ar    
  27 C27            2.1672    -4.5878     1.9851 C.ar    
  28 C28            0.9252    -4.1569     2.4139 C.ar    
  29 C29            0.5234    -2.8573     2.1825 C.ar    
  30 O30            4.2345    -4.1465     0.8937 O.3     
  31 C31            4.5783    -5.5040     1.1783 C.3     
  32 F32            3.6505    -6.3571     0.5711 F       
  33 F33            5.8571    -5.7755     0.6802 F       
  34 F34            4.5637    -5.7085     2.5622 F       
  35 H35            2.6042     5.2428     1.0251 H       
  36 H36            3.4314     2.4431     0.9529 H       
  37 H37            1.4844     5.5671    -1.1344 H       
  38 H38            2.2464     5.0049    -2.6416 H       
  39 H39            1.6608     3.8235    -1.4460 H       
  40 H40            5.0961     6.2145    -0.5601 H       
  41 H41            4.2928     6.3802    -2.1398 H       
  42 H42            3.4833     6.9604    -0.6645 H       
  43 H43            3.9235     2.7659    -1.3829 H       
  44 H44            4.5091     3.9474    -2.5785 H       
  45 H45            5.3591     3.7560    -1.0264 H       
  46 H46            4.6885     6.6899     1.2119 H       
  47 H47            6.4871     5.5979     3.0957 H       
  48 H48            7.2408     5.5122     1.4855 H       
  49 H49            6.7674     7.0882     2.1638 H       
  50 H50           -1.2884    -2.0451     1.1280 H       
  51 H51           -2.0898    -0.7787     2.0904 H       
  52 H52           -1.8573    -0.3941    -0.8898 H       
  53 H53           -3.0775    -1.5328    -0.2738 H       
  54 H54           -3.6723     1.0273    -0.5863 H       
  55 H55           -4.2761     0.1279     0.8212 H       
  56 H56           -1.3440     3.0361     0.9786 H       
  57 H57           -1.6848     2.1027    -0.4997 H       
  58 H58           -4.4547     2.0376     2.2215 H       
  59 H59           -3.0968     3.1820     2.3428 H       
  60 H60           -4.0122     3.0451     0.8224 H       
  61 H61            3.2769    -1.7356     0.5471 H       
  62 H62            2.4785    -5.6047     2.1732 H       
  63 H63            0.2695    -4.8384     2.9354 H       
  64 H64           -0.4473    -2.5240     2.5186 H       
@<TRIPOS>BOND
   1    1    2 1
   2    1    3 2
   3    1   23 1
   4    2   19 1
   5    2    5 1
   6    3    4 1
   7    3    7 1
   8    4    5 2
   9    5    6 1
  10    6   25 ar
  11    6   29 ar
  12    7    8 2
  13    7   10 am
  14    9   10 1
  15    9   11 1
  16    9   15 1
  17    9   35 1
  18   10   36 1
  19   11   12 1
  20   11   13 1
  21   11   14 1
  22   12   37 1
  23   12   38 1
  24   12   39 1
  25   13   40 1
  26   13   41 1
  27   13   42 1
  28   14   43 1
  29   14   44 1
  30   14   45 1
  31   15   16 am
  32   15   17 2
  33   16   18 1
  34   16   46 1
  35   18   47 1
  36   18   48 1
  37   18   49 1
  38   19   20 1
  39   19   50 1
  40   19   51 1
  41   20   21 1
  42   20   52 1
  43   20   53 1
  44   21   22 1
  45   21   54 1
  46   21   55 1
  47   22   23 1
  48   22   24 1
  49   23   56 1
  50   23   57 1
  51   24   58 1
  52   24   59 1
  53   24   60 1
  54   25   26 ar
  55   25   61 1
  56   26   27 ar
  57   26   30 1
  58   27   28 ar
  59   27   62 1
  60   28   29 ar
  61   28   63 1
  62   29   64 1
  63   30   31 1
  64   31   32 1
  65   31   33 1
  66   31   34 1

#	End of record

