#	Name: ASD03910020
#	Creating user name:	WinNT
#	Creation time:	15. 06. 2019 20:47

#	Modifying user name:	WinNT
#	Modification time:	15. 06. 2019 20:47

#	Program:	/corina/corina34_cracker 3.40 0067  02.08.2006

@<TRIPOS>MOLECULE
ASD03910020
  53   55    0    0    0
SMALL
NO_CHARGES


@<TRIPOS>ATOM
   1 C1             0.0743     0.0521    -0.8926 C.ar    
   2 C2             1.0447     0.5797    -0.0608 C.ar    
   3 C3             0.7504     1.6587     0.7526 C.ar    
   4 C4            -0.5147     2.2125     0.7367 C.ar    
   5 C5            -1.4915     1.6850    -0.0976 C.ar    
   6 C6            -1.1910     0.6053    -0.9177 C.ar    
   7 N7            -2.7742     2.2438    -0.1161 N.am    
   8 C8            -2.9318     3.5743     0.0303 C.2     
   9 C9            -4.3019     4.1891    -0.0959 C.3     
  10 O10           -1.9710     4.2767     0.2636 O.2     
  11 C11           -4.2047     5.6790     0.1090 C.ar    
  12 C12           -3.9845     6.5114    -0.9728 C.ar    
  13 C13           -3.8950     7.8775    -0.7877 C.ar    
  14 C14           -4.0262     8.4139     0.4849 C.ar    
  15 C15           -4.2471     7.5765     1.5687 C.ar    
  16 C16           -4.3414     6.2116     1.3776 C.ar    
  17 O17           -3.9381     9.7574     0.6697 O.3     
  18 C18           -4.1910    10.2490     1.9874 C.3     
  19 C19           -3.1613     9.7208     2.9527 C.2     
  20 C20           -4.1980    11.7900     1.9961 C.3     
  21 O21           -5.4904    12.2087     2.4660 O.3     
  22 C22           -6.4193    11.1518     2.1427 C.3     
  23 C23           -5.6163     9.8574     2.4476 C.3     
  24 C24            0.3993    -1.1237    -1.7773 C.3     
  25 C25            1.8111     2.2305     1.6576 C.3     
  26 O26           -3.4729     9.4753     4.0940 O.2     
  27 O27           -1.8979     9.5231     2.5446 O.3     
  28 C28           -3.1089    12.3099     2.9365 C.3     
  29 H29            2.0346     0.1480    -0.0460 H       
  30 H30           -0.7441     3.0547     1.3726 H       
  31 H31           -1.9484     0.1930    -1.5679 H       
  32 H32           -3.5500     1.6736    -0.2342 H       
  33 H33           -4.7021     3.9842    -1.0888 H       
  34 H34           -4.9630     3.7612     0.6577 H       
  35 H35           -3.8821     6.0933    -1.9633 H       
  36 H36           -3.7226     8.5273    -1.6330 H       
  37 H37           -4.3496     7.9917     2.5605 H       
  38 H38           -4.5134     5.5593     2.2209 H       
  39 H39           -4.0304    12.1671     0.9872 H       
  40 H40           -7.3045    11.2117     2.7759 H       
  41 H41           -6.6961    11.1930     1.0892 H       
  42 H42           -5.9967     9.0176     1.8662 H       
  43 H43           -5.6342     9.6305     3.5136 H       
  44 H44            0.1866    -2.0499    -1.2434 H       
  45 H45           -0.2084    -1.0775    -2.6810 H       
  46 H46            1.4549    -1.0943    -2.0475 H       
  47 H47            2.3579     3.0110     1.1286 H       
  48 H48            1.3415     2.6538     2.5455 H       
  49 H49            2.5011     1.4401     1.9533 H       
  50 H50           -1.2731     9.1830     3.1996 H       
  51 H51           -2.1437    11.9033     2.6347 H       
  52 H52           -3.0759    13.3984     2.8876 H       
  53 H53           -3.3312    11.9987     3.9572 H       
@<TRIPOS>BOND
   1    1    2 ar
   2    1   24 1
   3    1    6 ar
   4    2    3 ar
   5    2   29 1
   6    3    4 ar
   7    3   25 1
   8    4    5 ar
   9    4   30 1
  10    5    6 ar
  11    5    7 1
  12    6   31 1
  13    7    8 am
  14    7   32 1
  15    8    9 1
  16    8   10 2
  17    9   11 1
  18    9   33 1
  19    9   34 1
  20   11   12 ar
  21   11   16 ar
  22   12   13 ar
  23   12   35 1
  24   13   14 ar
  25   13   36 1
  26   14   15 ar
  27   14   17 1
  28   15   16 ar
  29   15   37 1
  30   16   38 1
  31   17   18 1
  32   18   19 1
  33   18   20 1
  34   18   23 1
  35   19   26 2
  36   19   27 1
  37   20   21 1
  38   20   28 1
  39   20   39 1
  40   21   22 1
  41   22   23 1
  42   22   40 1
  43   22   41 1
  44   23   42 1
  45   23   43 1
  46   24   44 1
  47   24   45 1
  48   24   46 1
  49   25   47 1
  50   25   48 1
  51   25   49 1
  52   27   50 1
  53   28   51 1
  54   28   52 1
  55   28   53 1

#	End of record

