#	Name: ASD08070677
#	Creating user name:	WinNT
#	Creation time:	15. 06. 2019 21:15

#	Modifying user name:	WinNT
#	Modification time:	15. 06. 2019 21:15

#	Program:	/corina/corina34_cracker 3.40 0067  02.08.2006

@<TRIPOS>MOLECULE
ASD08070677
  49   49    0    0    0
SMALL
NO_CHARGES


@<TRIPOS>ATOM
   1 C1            -0.0178     1.4583     0.0101 C.2     
   2 C2             0.0021    -0.0041     0.0020 C.2     
   3 C3             1.1801    -0.6630    -0.0128 C.2     
   4 O4             1.0280     2.0812     0.0034 O.2     
   5 N5            -1.1940     2.1163     0.0192 N.am    
   6 C6            -1.2139     3.5811     0.0273 C.3     
   7 C7            -1.1019     4.1006    -1.4075 C.3     
   8 C8             0.2628     3.7175    -1.9835 C.3     
   9 C9             0.3747     4.2369    -3.4183 C.3     
  10 C10           -2.5251     4.0700     0.6458 C.3     
  11 C11           -2.5800     3.6563     2.1178 C.3     
  12 C12           -3.8913     4.1452     2.7363 C.3     
  13 C13            1.2000    -2.1328    -0.0209 C.ar    
  14 C14            2.4206    -2.8183    -0.0362 C.ar    
  15 C15            2.4329    -4.1988    -0.0438 C.ar    
  16 C16            1.2315    -4.9074    -0.0361 C.ar    
  17 C17            0.0207    -4.2285    -0.0214 C.ar    
  18 C18           -0.0008    -2.8509    -0.0075 C.ar    
  19 O19            1.2464    -6.2655    -0.0436 O.3     
  20 C20           -0.0197    -6.9282    -0.0351 C.3     
  21 O21            3.6167    -4.8680    -0.0591 O.3     
  22 C22            4.8080    -4.0788    -0.0667 C.3     
  23 H23           -0.9258    -0.5567     0.0079 H       
  24 H24            2.1079    -0.1103    -0.0187 H       
  25 H25           -2.0274     1.6199     0.0205 H       
  26 H26           -0.3743     3.9526     0.6148 H       
  27 H27           -1.8904     3.6586    -2.0165 H       
  28 H28           -1.2058     5.1856    -1.4102 H       
  29 H29            1.0513     4.1595    -1.3745 H       
  30 H30            0.3667     2.6324    -1.9808 H       
  31 H31            1.3470     3.9640    -3.8287 H       
  32 H32           -0.4138     3.7949    -4.0273 H       
  33 H33            0.2709     5.3220    -3.4210 H       
  34 H34           -2.5792     5.1561     0.5713 H       
  35 H35           -3.3659     3.6268     0.1122 H       
  36 H36           -2.5259     2.5702     2.1923 H       
  37 H37           -1.7392     4.0995     2.6514 H       
  38 H38           -3.9304     3.8505     3.7850 H       
  39 H39           -3.9454     5.2313     2.6618 H       
  40 H40           -4.7321     3.7020     2.2027 H       
  41 H41            3.3502    -2.2686    -0.0424 H       
  42 H42           -0.9069    -4.7817    -0.0159 H       
  43 H43           -0.9442    -2.3254     0.0093 H       
  44 H44           -0.5713    -6.6462     0.8617 H       
  45 H45           -0.5883    -6.6366    -0.9182 H       
  46 H46            0.1350    -8.0071    -0.0425 H       
  47 H47            5.6783    -4.7348    -0.0788 H       
  48 H48            4.8183    -3.4450    -0.9534 H       
  49 H49            4.8360    -3.4546     0.8265 H       
@<TRIPOS>BOND
   1    1    2 1
   2    1    4 2
   3    1    5 am
   4    2    3 2
   5    2   23 1
   6    3   13 1
   7    3   24 1
   8    5    6 1
   9    5   25 1
  10    6    7 1
  11    6   10 1
  12    6   26 1
  13    7    8 1
  14    7   27 1
  15    7   28 1
  16    8    9 1
  17    8   29 1
  18    8   30 1
  19    9   31 1
  20    9   32 1
  21    9   33 1
  22   10   11 1
  23   10   34 1
  24   10   35 1
  25   11   12 1
  26   11   36 1
  27   11   37 1
  28   12   38 1
  29   12   39 1
  30   12   40 1
  31   13   14 ar
  32   13   18 ar
  33   14   15 ar
  34   14   41 1
  35   15   16 ar
  36   15   21 1
  37   16   17 ar
  38   16   19 1
  39   17   18 ar
  40   17   42 1
  41   18   43 1
  42   19   20 1
  43   20   44 1
  44   20   45 1
  45   20   46 1
  46   21   22 1
  47   22   47 1
  48   22   48 1
  49   22   49 1

#	End of record

