#	Name: ASD01916254
#	Creating user name:	WinNT
#	Creation time:	15. 06. 2019 20:07

#	Modifying user name:	WinNT
#	Modification time:	15. 06. 2019 20:07

#	Program:	/corina/corina34_cracker 3.40 0067  02.08.2006

@<TRIPOS>MOLECULE
ASD01916254
  31   33    0    0    0
SMALL
NO_CHARGES


@<TRIPOS>ATOM
   1 C1             0.0802     1.3886     0.3898 C.2     
   2 N2             0.0888     0.0509     0.5147 N.am    
   3 C3             1.1927    -0.6689     0.1232 C.2     
   4 C4             2.3436     0.0519    -0.4267 C.2     
   5 C5             2.2709     1.3934    -0.5257 C.2     
   6 N6             1.1350     2.0517    -0.1141 N.am    
   7 N7             0.9525    -1.9434     0.3464 N.2     
   8 C8            -0.2731    -2.0776     0.8710 C.2     
   9 C9            -0.8295    -0.8557     0.9855 C.2     
  10 O10           -0.9048     2.0121     0.7353 O.2     
  11 C11            3.4330     2.1724    -1.0857 C.3     
  12 C12            1.0760     3.4474    -0.2241 C.ar    
  13 C13            0.5835     4.0332    -1.3826 C.ar    
  14 C14            0.5262     5.4090    -1.4891 C.ar    
  15 C15            0.9596     6.2041    -0.4414 C.ar    
  16 C16            1.4512     5.6218     0.7148 C.ar    
  17 C17            1.5048     4.2464     0.8275 C.ar    
  18 F18            0.9032     7.5498    -0.5477 F       
  19 C19           -0.9218    -3.3790     1.2667 C.3     
  20 Cl20          -0.5287    -3.7476     2.9873 Cl      
  21 H21            3.2286    -0.4792    -0.7446 H       
  22 H22           -1.8117    -0.6314     1.3745 H       
  23 H23            4.2353     1.4852    -1.3545 H       
  24 H24            3.1107     2.7190    -1.9720 H       
  25 H25            3.7936     2.8764    -0.3358 H       
  26 H26            0.2457     3.4135    -2.2001 H       
  27 H27            0.1435     5.8650    -2.3902 H       
  28 H28            1.7888     6.2436     1.5308 H       
  29 H29            1.8837     3.7926     1.7313 H       
  30 H30           -2.0024    -3.2964     1.1506 H       
  31 H31           -0.5480    -4.1800     0.6290 H       
@<TRIPOS>BOND
   1    1    2 am
   2    1    6 am
   3    1   10 2
   4    2    3 1
   5    2    9 1
   6    3    4 1
   7    3    7 2
   8    4    5 2
   9    4   21 1
  10    5    6 1
  11    5   11 1
  12    6   12 1
  13    7    8 1
  14    8    9 2
  15    8   19 1
  16    9   22 1
  17   11   23 1
  18   11   24 1
  19   11   25 1
  20   12   13 ar
  21   12   17 ar
  22   13   14 ar
  23   13   26 1
  24   14   15 ar
  25   14   27 1
  26   15   16 ar
  27   15   18 1
  28   16   17 ar
  29   16   28 1
  30   17   29 1
  31   19   20 1
  32   19   30 1
  33   19   31 1

#	End of record

