#	Name: ASD03910088
#	Creating user name:	WinNT
#	Creation time:	15. 06. 2019 20:47

#	Modifying user name:	WinNT
#	Modification time:	15. 06. 2019 20:47

#	Program:	/corina/corina34_cracker 3.40 0067  02.08.2006

@<TRIPOS>MOLECULE
ASD03910088
  48   48    0    0    0
SMALL
NO_CHARGES


@<TRIPOS>ATOM
   1 C1            -0.1711     1.9435     0.2217 C.3     
   2 C2            -0.2768     0.4325     0.4380 C.3     
   3 C3             0.2919    -0.2981    -0.7800 C.3     
   4 C4             1.7603     0.0888    -0.9672 C.3     
   5 C5             1.8660     1.5998    -1.1835 C.3     
   6 C6             1.2973     2.3304     0.0345 C.3     
   7 S7            -1.5917     3.6692    -0.8420 S.o2    
   8 O8            -2.4337     3.7828    -1.9810 O.2     
   9 O9            -2.0692     3.7807     0.4917 O.2     
  10 O10           -0.9126     2.3109    -0.9433 O.3     
  11 O11           -0.5090     4.7271    -1.0007 O.3     
  12 S12           -0.1566    -1.0738     2.3987 S.o2    
  13 O13            0.5850    -1.1704     3.6070 O.2     
  14 O14           -1.5621    -0.8675     2.3638 O.2     
  15 O15            0.4648     0.0651     1.6030 O.3     
  16 O16            0.1084    -2.3591     1.6278 O.3     
  17 S17           -0.0949    -2.4978    -1.8475 S.o2    
  18 O18           -0.3579    -3.8333    -1.4394 O.2     
  19 O19           -1.0140    -1.7205    -2.6028 O.2     
  20 O20            0.1932    -1.7093    -0.5780 O.3     
  21 O21            1.1954    -2.5410    -2.6536 O.3     
  22 S22            3.9214    -0.7442    -0.0933 S.o2    
  23 O23            4.4355    -1.2532     1.1298 O.2     
  24 O24            3.8551    -1.5113    -1.2876 O.2     
  25 O25            2.5019    -0.2786     0.1978 O.3     
  26 O26            4.7430     0.4939    -0.4227 O.3     
  27 S27            3.6629     2.0908    -2.8139 S.o2    
  28 O28            5.0741     2.2574    -2.8062 O.2     
  29 O29            3.0076     1.0449    -3.5181 O.2     
  30 O30            3.2375     1.9611    -1.3583 O.3     
  31 O31            3.0790     3.3944    -3.3394 O.3     
  32 S32            2.4717     4.4137     0.6738 S.o2    
  33 O33            2.3345     5.8115     0.4584 O.2     
  34 O34            2.4063     3.8155     1.9611 O.2     
  35 O35            1.3961     3.7416    -0.1675 O.3     
  36 O36            3.8178     4.0180     0.0839 O.3     
  37 H37           -0.5762     2.4640     1.0894 H       
  38 H38           -1.3229     0.1569     0.5713 H       
  39 H39           -0.2737    -0.0178    -1.6686 H       
  40 H40            2.1655    -0.4317    -1.8349 H       
  41 H41            1.3004     1.8800    -2.0721 H       
  42 H42            1.8630     2.0501     0.9231 H       
  43 H43           -0.8366     5.6356    -0.9516 H       
  44 H44           -0.2484    -3.1521     2.0508 H       
  45 H45            1.1218    -3.0235    -3.4884 H       
  46 H46            5.6701     0.3082    -0.6255 H       
  47 H47            3.2917     3.5756    -4.2652 H       
  48 H48            4.5771     4.3953     0.5488 H       
@<TRIPOS>BOND
   1    1    2 1
   2    1    6 1
   3    1   10 1
   4    1   37 1
   5    2    3 1
   6    2   15 1
   7    2   38 1
   8    3    4 1
   9    3   20 1
  10    3   39 1
  11    4    5 1
  12    4   25 1
  13    4   40 1
  14    5    6 1
  15    5   30 1
  16    5   41 1
  17    6   35 1
  18    6   42 1
  19    7    8 2
  20    7    9 2
  21    7   10 1
  22    7   11 1
  23   11   43 1
  24   12   13 2
  25   12   14 2
  26   12   15 1
  27   12   16 1
  28   16   44 1
  29   17   18 2
  30   17   19 2
  31   17   20 1
  32   17   21 1
  33   21   45 1
  34   22   23 2
  35   22   24 2
  36   22   25 1
  37   22   26 1
  38   26   46 1
  39   27   28 2
  40   27   29 2
  41   27   30 1
  42   27   31 1
  43   31   47 1
  44   32   33 2
  45   32   34 2
  46   32   35 1
  47   32   36 1
  48   36   48 1

#	End of record

