#	Name: ASD01900572
#	Creating user name:	WinNT
#	Creation time:	15. 06. 2019 19:52

#	Modifying user name:	WinNT
#	Modification time:	15. 06. 2019 19:52

#	Program:	/corina/corina34_cracker 3.40 0067  02.08.2006

@<TRIPOS>MOLECULE
ASD01900572
  42   45    0    0    0
SMALL
NO_CHARGES


@<TRIPOS>ATOM
   1 C1             0.9848     3.1567     0.7507 C.ar    
   2 C2             2.0480     3.6069     1.5299 C.ar    
   3 C3             3.2479     2.9135     1.4980 C.ar    
   4 C4             3.3432     1.7935     0.6877 C.ar    
   5 C5             2.2440     1.4015    -0.0623 C.ar    
   6 N6             1.1164     2.0787    -0.0129 N.ar    
   7 C7            -0.3055     3.8835     0.7788 C.2     
   8 O8            -0.4332     4.8681     1.4798 O.2     
   9 N9            -1.3380     3.4529     0.0271 N.am    
  10 C10           -2.5853     4.0796     0.1267 C.ar    
  11 C11           -2.6588     5.4507     0.3376 C.ar    
  12 C12           -3.8900     6.0688     0.4359 C.ar    
  13 C13           -5.0546     5.3188     0.3238 C.ar    
  14 C14           -4.9804     3.9489     0.1136 C.ar    
  15 C15           -3.7496     3.3318     0.0091 C.ar    
  16 O16           -9.4938     8.9493     0.5438 O.3     
  17 C17           -8.4820     8.4498    -0.3379 C.3     
  18 C18           -8.2950     6.9541    -0.0609 C.3     
  19 N19           -8.0943     6.8177     1.4002 N.am    
  20 C20           -8.9849     7.4472     2.3797 C.3     
  21 C21           -9.1728     8.9078     1.9345 C.3     
  22 C22           -6.9750     6.1156     1.5750 C.2     
  23 N23           -6.3057     5.9465     0.4236 N.am    
  24 C24           -6.9850     6.4559    -0.6267 C.2     
  25 S25           -6.4531     5.5036     3.0863 S.2     
  26 O26           -6.6202     6.5036    -1.7821 O.2     
  27 Cl27          -3.9827     7.7821     0.7000 Cl      
  28 Cl28           2.3571    -0.0008    -1.0794 Cl      
  29 H29            1.9391     4.4843     2.1502 H       
  30 H30            4.0897     3.2391     2.0912 H       
  31 H31            4.2642     1.2315     0.6402 H       
  32 H32           -1.2166     2.7086    -0.5829 H       
  33 H33           -1.7535     6.0331     0.4250 H       
  34 H34           -5.8855     3.3662     0.0268 H       
  35 H35           -3.6923     2.2666    -0.1596 H       
  36 H36           -8.7921     8.5957    -1.3726 H       
  37 H37           -7.5450     8.9766    -0.1572 H       
  38 H38           -9.1484     6.3718    -0.4085 H       
  39 H39           -9.9469     6.9347     2.3922 H       
  40 H40           -8.5315     7.4149     3.3704 H       
  41 H41           -8.2509     9.4621     2.1106 H       
  42 H42           -9.9823     9.3603     2.5072 H       
@<TRIPOS>BOND
   1    1    2 ar
   2    1    6 ar
   3    1    7 1
   4    2    3 ar
   5    2   29 1
   6    3    4 ar
   7    3   30 1
   8    4    5 ar
   9    4   31 1
  10    5    6 ar
  11    5   28 1
  12    7    8 2
  13    7    9 am
  14    9   10 1
  15    9   32 1
  16   10   11 ar
  17   10   15 ar
  18   11   12 ar
  19   11   33 1
  20   12   13 ar
  21   12   27 1
  22   13   14 ar
  23   13   23 1
  24   14   15 ar
  25   14   34 1
  26   15   35 1
  27   16   17 1
  28   16   21 1
  29   17   18 1
  30   17   36 1
  31   17   37 1
  32   18   19 1
  33   18   24 1
  34   18   38 1
  35   19   20 1
  36   19   22 am
  37   20   21 1
  38   20   39 1
  39   20   40 1
  40   21   41 1
  41   21   42 1
  42   22   23 am
  43   22   25 2
  44   23   24 am
  45   24   26 2

#	End of record

