#	Name: ASD03330802
#	Creating user name:	WinNT
#	Creation time:	15. 06. 2019 20:38

#	Modifying user name:	WinNT
#	Modification time:	15. 06. 2019 20:38

#	Program:	/corina/corina34_cracker 3.40 0067  02.08.2006

@<TRIPOS>MOLECULE
ASD03330802
  57   60    0    0    0
SMALL
NO_CHARGES


@<TRIPOS>ATOM
   1 C1            -0.0160     1.3550     0.0390 C.2     
   2 N2             0.0041    -0.0047     0.0499 N.pl3   
   3 C3             1.2778     1.7739    -0.0299 C.2     
   4 N4             2.0648     0.6764    -0.0775 N.2     
   5 C5             1.3084    -0.3957    -0.0359 C.2     
   6 C6             1.7895    -1.7933    -0.0759 C.ar    
   7 C7             1.7375     3.1737    -0.0499 C.2     
   8 O8             0.9281     4.0803    -0.0026 O.2     
   9 C9             3.5119     4.8412    -0.1406 C.3     
  10 N10            3.0549     3.4495    -0.1207 N.am    
  11 C11            4.8779     4.9197    -0.8252 C.3     
  12 C12            3.6281     5.3520     1.2725 C.2     
  13 O13            3.3560     4.6251     2.2044 O.2     
  14 C14           -1.1734    -0.8712     0.1510 C.3     
  15 C15           -2.2417    -0.3837    -0.8327 C.3     
  16 C16           -3.1085     0.6805    -0.1672 C.3     
  17 N17           -2.3248     1.4886     0.7691 N.3     
  18 C18           -1.2510     2.2171     0.0773 C.3     
  19 C19            1.3011    -2.7285     0.8377 C.ar    
  20 C20            1.7537    -4.0321     0.7961 C.ar    
  21 C21           -3.1882     2.4107     1.5190 C.3     
  22 N22            4.0345     6.6166     1.5006 N.am    
  23 C23            2.6930    -4.4136    -0.1524 C.ar    
  24 C24            4.7376     4.5254    -2.2729 C.2     
  25 C25            2.7305    -2.1838    -1.0321 C.ar    
  26 C26            3.1810    -3.4901    -1.0612 C.ar    
  27 N27            4.2081     3.3796    -2.6517 N.2     
  28 F28            3.1328    -5.6905    -0.1885 F       
  29 F29            3.2033    -1.2848    -1.9229 F       
  30 F30            1.2819    -4.9382     1.6802 F       
  31 C31            4.1475     7.1132     2.8742 C.3     
  32 C32            4.1407     3.1535    -3.9202 C.2     
  33 S33            4.7916     4.4739    -4.7897 S.3     
  34 C34            5.1349     5.3115    -3.2780 C.2     
  35 H35            2.7947     5.4513    -0.6896 H       
  36 H36            3.7004     2.7264    -0.1584 H       
  37 H37            5.2583     5.9392    -0.7615 H       
  38 H38            5.5723     4.2412    -0.3295 H       
  39 H39           -0.8938    -1.8960    -0.0932 H       
  40 H40           -1.5682    -0.8323     1.1663 H       
  41 H41           -1.7578     0.0410    -1.7122 H       
  42 H42           -2.8671    -1.2239    -1.1344 H       
  43 H43           -3.5296     1.3300    -0.9346 H       
  44 H44           -3.9204     0.1938     0.3731 H       
  45 H45           -1.0339     3.1413     0.6128 H       
  46 H46           -1.5651     2.4494    -0.9403 H       
  47 H47            0.5706    -2.4329     1.5762 H       
  48 H48           -3.9262     1.8400     2.0827 H       
  49 H49           -2.5807     2.9987     2.2070 H       
  50 H50           -3.6982     3.0775     0.8238 H       
  51 H51            4.2522     7.1980     0.7553 H       
  52 H52            3.9083    -3.7932    -1.7998 H       
  53 H53            4.4876     8.1487     2.8594 H       
  54 H54            3.1743     7.0573     3.3620 H       
  55 H55            4.8647     6.5030     3.4233 H       
  56 H56            3.7322     2.2595    -4.3679 H       
  57 H57            5.5903     6.2859    -3.1808 H       
@<TRIPOS>BOND
   1    1    2 1
   2    1    3 2
   3    1   18 1
   4    2   14 1
   5    2    5 1
   6    3    4 1
   7    3    7 1
   8    4    5 2
   9    5    6 1
  10    6   25 ar
  11    6   19 ar
  12    7    8 2
  13    7   10 am
  14    9   10 1
  15    9   11 1
  16    9   12 1
  17    9   35 1
  18   10   36 1
  19   11   24 1
  20   11   37 1
  21   11   38 1
  22   12   13 2
  23   12   22 am
  24   14   15 1
  25   14   39 1
  26   14   40 1
  27   15   16 1
  28   15   41 1
  29   15   42 1
  30   16   17 1
  31   16   43 1
  32   16   44 1
  33   17   18 1
  34   17   21 1
  35   18   45 1
  36   18   46 1
  37   19   20 ar
  38   19   47 1
  39   20   30 1
  40   20   23 ar
  41   21   48 1
  42   21   49 1
  43   21   50 1
  44   22   31 1
  45   22   51 1
  46   23   28 1
  47   23   26 ar
  48   24   27 1
  49   24   34 2
  50   25   26 ar
  51   25   29 1
  52   26   52 1
  53   27   32 2
  54   31   53 1
  55   31   54 1
  56   31   55 1
  57   32   33 1
  58   32   56 1
  59   33   34 1
  60   34   57 1

#	End of record

