#	Name: ASD05430412
#	Creating user name:	WinNT
#	Creation time:	15. 06. 2019 21:00

#	Modifying user name:	WinNT
#	Modification time:	15. 06. 2019 21:00

#	Program:	/corina/corina34_cracker 3.40 0067  02.08.2006

@<TRIPOS>MOLECULE
ASD05430412
  58   62    0    0    0
SMALL
NO_CHARGES


@<TRIPOS>ATOM
   1 C1            -0.1261     1.0938    -0.5107 C.ar    
   2 C2            -0.0155    -0.0172     0.3262 C.ar    
   3 C3            -1.1103    -0.4453     1.0675 C.ar    
   4 C4            -2.3100     0.2248     0.9800 C.ar    
   5 C5            -2.4289     1.3409     0.1427 C.ar    
   6 C6            -1.3242     1.7751    -0.5995 C.ar    
   7 C7            -4.8659     1.3645    -0.0482 C.2     
   8 C8            -3.7079     2.0574     0.0475 C.2     
   9 C9            -6.0852     2.0715     0.0142 C.2     
  10 O10            0.9472     1.5091    -1.2345 O.3     
  11 C11            0.7625     2.6533    -2.0704 C.3     
  12 C12            1.8553    -1.0502     1.5731 C.2     
  13 N13            1.2015    -0.7026     0.4190 N.pl3   
  14 C14            2.9801    -1.6929     1.2056 C.2     
  15 N15            3.0173    -1.7394    -0.1345 N.2     
  16 C16            1.9578    -1.1498    -0.6174 C.2     
  17 C17            4.0180    -2.2612     2.1387 C.3     
  18 N18           -7.2672     1.3762     0.0513 N.pl3   
  19 C19           -4.8022    -0.1207    -0.2220 C.3     
  20 C20           -6.1724    -0.7373    -0.4618 C.3     
  21 C21           -7.2403    -0.0483     0.3909 C.3     
  22 C22           -8.5293     2.0586    -0.2394 C.3     
  23 C23           -8.5199     3.4193     0.4686 C.3     
  24 C24           -7.2017     4.0998     0.2016 C.2     
  25 N25           -6.0915     3.3989     0.0264 N.2     
  26 O26           -7.1568     5.3133     0.1456 O.2     
  27 C27           -8.6642     2.2624    -1.7265 C.ar    
  28 C28           -9.8904     2.0848    -2.3396 C.ar    
  29 C29          -10.0154     2.2718    -3.7031 C.ar    
  30 C30           -8.9118     2.6372    -4.4552 C.ar    
  31 C31           -7.6841     2.8148    -3.8401 C.ar    
  32 C32           -7.5627     2.6324    -2.4756 C.ar    
  33 F33           -9.0327     2.8199    -5.7884 F       
  34 H34           -1.0200    -1.3059     1.7137 H       
  35 H35           -3.1593    -0.1106     1.5567 H       
  36 H36           -1.4110     2.6356    -1.2464 H       
  37 H37           -3.7237     3.1372     0.0540 H       
  38 H38           -0.0209     2.4477    -2.7999 H       
  39 H39            0.4738     3.5077    -1.4582 H       
  40 H40            1.6937     2.8772    -2.5908 H       
  41 H41            1.5325    -0.8441     2.5829 H       
  42 H42            1.7218    -1.0363    -1.6652 H       
  43 H43            3.7628    -3.2928     2.3810 H       
  44 H44            4.9950    -2.2323     1.6562 H       
  45 H45            4.0470    -1.6696     3.0536 H       
  46 H46           -4.1589    -0.3492    -1.0718 H       
  47 H47           -4.3686    -0.5626     0.6751 H       
  48 H48           -6.4333    -0.6314    -1.5148 H       
  49 H49           -6.1378    -1.7966    -0.2073 H       
  50 H50           -6.9990    -0.1701     1.4468 H       
  51 H51           -8.2146    -0.4910     0.1837 H       
  52 H52           -9.3626     1.4600     0.1284 H       
  53 H53           -9.3331     4.0357     0.0855 H       
  54 H54           -8.6445     3.2733     1.5416 H       
  55 H55          -10.7510     1.7994    -1.7528 H       
  56 H56          -10.9734     2.1326    -4.1819 H       
  57 H57           -6.8226     3.0998    -4.4258 H       
  58 H58           -6.6053     2.7708    -1.9955 H       
@<TRIPOS>BOND
   1    1    2 ar
   2    1   10 1
   3    1    6 ar
   4    2    3 ar
   5    2   13 1
   6    3    4 ar
   7    3   34 1
   8    4    5 ar
   9    4   35 1
  10    5    6 ar
  11    5    8 1
  12    6   36 1
  13    7    8 2
  14    7   19 1
  15    7    9 1
  16    8   37 1
  17    9   18 1
  18    9   25 2
  19   10   11 1
  20   11   38 1
  21   11   39 1
  22   11   40 1
  23   12   13 1
  24   12   14 2
  25   12   41 1
  26   13   16 1
  27   14   15 1
  28   14   17 1
  29   15   16 2
  30   16   42 1
  31   17   43 1
  32   17   44 1
  33   17   45 1
  34   18   22 1
  35   18   21 1
  36   19   20 1
  37   19   46 1
  38   19   47 1
  39   20   21 1
  40   20   48 1
  41   20   49 1
  42   21   50 1
  43   21   51 1
  44   22   23 1
  45   22   27 1
  46   22   52 1
  47   23   24 1
  48   23   53 1
  49   23   54 1
  50   24   25 1
  51   24   26 2
  52   27   28 ar
  53   27   32 ar
  54   28   29 ar
  55   28   55 1
  56   29   30 ar
  57   29   56 1
  58   30   31 ar
  59   30   33 1
  60   31   32 ar
  61   31   57 1
  62   32   58 1

#	End of record

