#	Name: ASD04591026
#	Creating user name:	WinNT
#	Creation time:	15. 06. 2019 20:51

#	Modifying user name:	WinNT
#	Modification time:	15. 06. 2019 20:51

#	Program:	/corina/corina34_cracker 3.40 0067  02.08.2006

@<TRIPOS>MOLECULE
ASD04591026
  54   59    0    0    0
SMALL
NO_CHARGES


@<TRIPOS>ATOM
   1 N1            -0.0171     1.3233    -0.0119 N.ar    
   2 C2             0.0017    -0.0035    -0.0051 C.ar    
   3 N3             1.1299    -0.6948    -0.0122 N.ar    
   4 C4             2.3049    -0.0727    -0.0266 C.ar    
   5 C5             2.3189     1.3367    -0.0341 C.ar    
   6 C6             1.1072     2.0203    -0.0262 C.ar    
   7 N7             3.6048    -0.5198    -0.0371 N.pl3   
   8 C8             4.4837     0.5511    -0.0513 C.ar    
   9 C9             3.7312     1.7394    -0.0501 C.ar    
  10 C10            5.8691     0.6447    -0.0658 C.ar    
  11 N11            6.4613     1.8215    -0.0781 N.ar    
  12 C12            5.7839     2.9561    -0.0774 C.ar    
  13 C13            4.4052     2.9599    -0.0630 C.ar    
  14 C14            3.9868    -1.8680    -0.0331 C.ar    
  15 N15           -1.2019    -0.6888     0.0103 N.pl3   
  16 C16           -2.4018     0.0119     0.1313 C.ar    
  17 N17           -2.3783     1.3195     0.3319 N.ar    
  18 C18           -3.4884     2.0228     0.4522 C.ar    
  19 C19           -4.7290     1.4085     0.3717 C.ar    
  20 C20           -4.7935     0.0319     0.1610 C.ar    
  21 C21           -3.6093    -0.6710     0.0340 C.ar    
  22 N22           -5.9022     2.1613     0.5008 N.3     
  23 C23           -5.5952     3.5823     0.7161 C.3     
  24 C24           -6.8998     4.3805     0.7725 C.3     
  25 N25           -7.7448     3.8574     1.8551 N.3     
  26 C26           -8.0518     2.4364     1.6398 C.3     
  27 C27           -6.7472     1.6382     1.5834 C.3     
  28 C28            3.6772    -2.6815    -1.1149 C.ar    
  29 C29            4.0551    -4.0099    -1.1092 C.ar    
  30 C30            4.7419    -4.5307    -0.0254 C.ar    
  31 C31            5.0517    -3.7211     1.0544 C.ar    
  32 C32            4.6806    -2.3908     1.0501 C.ar    
  33 F33            5.1099    -5.8307    -0.0214 F       
  34 H34            1.0848     3.1000    -0.0319 H       
  35 H35            6.4664    -0.2551    -0.0666 H       
  36 H36            6.3183     3.8945    -0.0874 H       
  37 H37            3.8576     3.8908    -0.0625 H       
  38 H38           -1.2103    -1.6560    -0.0630 H       
  39 H39           -3.4300     3.0887     0.6157 H       
  40 H40           -5.7458    -0.4730     0.0940 H       
  41 H41           -3.6221    -1.7384    -0.1303 H       
  42 H42           -5.0563     3.6995     1.6563 H       
  43 H43           -4.9793     3.9496    -0.1048 H       
  44 H44           -6.6759     5.4305     0.9610 H       
  45 H45           -7.4257     4.2854    -0.1776 H       
  46 H46           -7.3105     4.0013     2.7544 H       
  47 H47           -8.6677     2.0691     2.4606 H       
  48 H48           -8.5908     2.3192     0.6996 H       
  49 H49           -6.9711     0.5883     1.3949 H       
  50 H50           -6.2213     1.7333     2.5334 H       
  51 H51            3.1410    -2.2758    -1.9600 H       
  52 H52            3.8145    -4.6430    -1.9505 H       
  53 H53            5.5874    -4.1292     1.8987 H       
  54 H54            4.9226    -1.7595     1.8924 H       
@<TRIPOS>BOND
   1    1    2 ar
   2    1    6 ar
   3    2    3 ar
   4    2   15 1
   5    3    4 ar
   6    4    5 ar
   7    4    7 1
   8    5    6 ar
   9    5    9 1
  10    6   34 1
  11    7    8 1
  12    7   14 1
  13    8    9 ar
  14    8   10 ar
  15    9   13 ar
  16   10   11 ar
  17   10   35 1
  18   11   12 ar
  19   12   13 ar
  20   12   36 1
  21   13   37 1
  22   14   28 ar
  23   14   32 ar
  24   15   16 1
  25   15   38 1
  26   16   17 ar
  27   16   21 ar
  28   17   18 ar
  29   18   19 ar
  30   18   39 1
  31   19   20 ar
  32   19   22 1
  33   20   21 ar
  34   20   40 1
  35   21   41 1
  36   22   23 1
  37   22   27 1
  38   23   24 1
  39   23   42 1
  40   23   43 1
  41   24   25 1
  42   24   44 1
  43   24   45 1
  44   25   26 1
  45   25   46 1
  46   26   27 1
  47   26   47 1
  48   26   48 1
  49   27   49 1
  50   27   50 1
  51   28   29 ar
  52   28   51 1
  53   29   30 ar
  54   29   52 1
  55   30   31 ar
  56   30   33 1
  57   31   32 ar
  58   31   53 1
  59   32   54 1

#	End of record

