#	Name: ASD01230736
#	Creating user name:	WinNT
#	Creation time:	15. 06. 2019 19:15

#	Modifying user name:	WinNT
#	Modification time:	15. 06. 2019 19:15

#	Program:	/corina/corina34_cracker 3.40 0067  02.08.2006

@<TRIPOS>MOLECULE
ASD01230736
  47   49    0    0    0
SMALL
NO_CHARGES


@<TRIPOS>ATOM
   1 C1            -0.0187     1.5269     0.0104 C.3     
   2 C2             0.0021    -0.0041     0.0020 C.3     
   3 C3            -1.4090    -0.5744    -0.0210 C.3     
   4 C4            -2.4278     0.3518     0.6286 C.3     
   5 N5            -1.8047     1.1961     1.6505 N.pl3   
   6 C6            -0.7253     1.9576     1.2844 C.2     
   7 C7            -2.3028     1.1928     3.0237 C.3     
   8 C8            -2.5699     2.6304     3.4725 C.3     
   9 S9            -1.0683     3.6191     3.2460 S.o2    
  10 N10           -0.3266     2.9907     1.9165 N.am    
  11 C11            1.3909     2.0597    -0.0002 C.ar    
  12 C12            1.8148     2.8698    -1.0378 C.ar    
  13 O13           -1.4015     4.9462     2.8626 O.2     
  14 O14           -0.1502     3.3757     4.3030 O.2     
  15 C15            2.2560     1.7424     1.0301 C.ar    
  16 C16            3.5495     2.2297     1.0239 C.ar    
  17 C17            3.9801     3.0377    -0.0169 C.ar    
  18 C18            3.1078     3.3601    -1.0493 C.ar    
  19 O19            5.2518     3.5183    -0.0246 O.3     
  20 C20            6.0911     3.1507     1.0720 C.3     
  21 C21            7.4733     3.7809     0.8901 C.3     
  22 F22            3.5238     4.1473    -2.0654 F       
  23 C23            8.3718     3.3873     2.0642 C.3     
  24 C24            9.7541     4.0175     1.8823 C.3     
  25 H25           -0.5615     1.8958    -0.8598 H       
  26 H26            0.5412    -0.3491    -0.8803 H       
  27 H27            0.5163    -0.3592     0.8951 H       
  28 H28           -1.7015    -0.7481    -1.0566 H       
  29 H29           -1.4122    -1.5274     0.5080 H       
  30 H30           -2.8715     0.9875    -0.1375 H       
  31 H31           -3.2116    -0.2482     1.0909 H       
  32 H32           -3.2281     0.6188     3.0732 H       
  33 H33           -1.5588     0.7399     3.6790 H       
  34 H34           -3.3776     3.0537     2.8754 H       
  35 H35           -2.8538     2.6361     4.5249 H       
  36 H36            1.1358     3.1193    -1.8398 H       
  37 H37            1.9207     1.1132     1.8413 H       
  38 H38            4.2242     1.9813     1.8298 H       
  39 H39            5.6492     3.5064     2.0028 H       
  40 H40            6.1883     2.0656     1.1073 H       
  41 H41            7.9151     3.4253    -0.0407 H       
  42 H42            7.3761     4.8660     0.8548 H       
  43 H43            7.9300     3.7430     2.9950 H       
  44 H44            8.4690     2.3022     2.0995 H       
  45 H45           10.1959     3.6619     0.9515 H       
  46 H46            9.6569     5.1026     1.8470 H       
  47 H47           10.3942     3.7371     2.7188 H       
@<TRIPOS>BOND
   1    1    2 1
   2    1   11 1
   3    1    6 1
   4    1   25 1
   5    2    3 1
   6    2   26 1
   7    2   27 1
   8    3    4 1
   9    3   28 1
  10    3   29 1
  11    4    5 1
  12    4   30 1
  13    4   31 1
  14    5    6 1
  15    5    7 1
  16    6   10 2
  17    7    8 1
  18    7   32 1
  19    7   33 1
  20    8    9 1
  21    8   34 1
  22    8   35 1
  23    9   10 am
  24    9   13 2
  25    9   14 2
  26   11   12 ar
  27   11   15 ar
  28   12   18 ar
  29   12   36 1
  30   15   16 ar
  31   15   37 1
  32   16   17 ar
  33   16   38 1
  34   17   18 ar
  35   17   19 1
  36   18   22 1
  37   19   20 1
  38   20   21 1
  39   20   39 1
  40   20   40 1
  41   21   23 1
  42   21   41 1
  43   21   42 1
  44   23   24 1
  45   23   43 1
  46   23   44 1
  47   24   45 1
  48   24   46 1
  49   24   47 1

#	End of record

