#	Name: ASD01811443
#	Creating user name:	WinNT
#	Creation time:	15. 06. 2019 19:26

#	Modifying user name:	WinNT
#	Modification time:	15. 06. 2019 19:26

#	Program:	/corina/corina34_cracker 3.40 0067  02.08.2006

@<TRIPOS>MOLECULE
ASD01811443
  58   60    0    0    0
SMALL
NO_CHARGES


@<TRIPOS>ATOM
   1 N1             0.2752     4.0715     1.0008 N.am    
   2 C2             0.5234     5.3277     1.4213 C.2     
   3 O3             1.6520     5.7764     1.3633 O.2     
   4 N4            -0.4794     6.0865     1.9060 N.am    
   5 C5            -0.2097     7.4520     2.3630 C.3     
   6 C6            -1.5084     8.0890     2.8614 C.3     
   7 C7            -1.2062     9.4671     3.4533 C.3     
   8 C8            -2.4843     8.2387     1.6926 C.3     
   9 N9             2.4622     1.6015    -0.3617 N.pl3   
  10 N10            1.2035     2.0495     0.0578 N.2     
  11 C11            1.3186     3.2819     0.4964 C.2     
  12 C12            2.6547     3.6754     0.3768 C.2     
  13 C13            3.3560     2.6158    -0.1603 C.2     
  14 C14            2.7679     0.2788    -0.9123 C.3     
  15 C15            4.7966     2.5834    -0.4596 C.2     
  16 O16            5.3921     1.5229    -0.4686 O.2     
  17 N17            5.4560     3.7287    -0.7239 N.am    
  18 C18            6.9176     3.7337    -0.8731 C.3     
  19 C19            7.5067     4.7811     0.0769 C.3     
  20 C20            6.8432     6.1346    -0.1877 C.3     
  21 C21            5.3404     6.0293     0.0814 C.3     
  22 C22            4.7262     4.9950    -0.8742 C.3     
  23 C23            7.4445     7.1749     0.7219 C.ar    
  24 C24            8.0787     8.2791     0.1807 C.ar    
  25 C25            8.6313     9.2352     1.0074 C.ar    
  26 C26            8.5489     9.0869     2.3934 C.ar    
  27 C27            7.9070     7.9703     2.9328 C.ar    
  28 C28            7.3547     7.0243     2.0943 C.ar    
  29 C29            9.1207    10.0752     3.2577 C.1     
  30 N30            9.5742    10.8592     3.9434 N.1     
  31 H31           -0.6244     3.7121     1.0508 H       
  32 H32           -1.3798     5.7286     1.9523 H       
  33 H33            0.5173     7.4265     3.1748 H       
  34 H34            0.1894     8.0397     1.5363 H       
  35 H35           -1.9538     7.4543     3.6275 H       
  36 H36           -0.7609    10.1019     2.6872 H       
  37 H37           -2.1315     9.9209     3.8083 H       
  38 H38           -0.5110     9.3604     4.2860 H       
  39 H39           -3.4096     8.6925     2.0476 H       
  40 H40           -2.0389     8.8735     0.9265 H       
  41 H41           -2.6996     7.2569     1.2709 H       
  42 H42            3.0639     4.6356     0.6544 H       
  43 H43            2.7485     0.3252    -2.0012 H       
  44 H44            3.7578    -0.0334    -0.5796 H       
  45 H45            2.0248    -0.4395    -0.5660 H       
  46 H46            7.3138     2.7496    -0.6230 H       
  47 H47            7.1791     3.9847    -1.9011 H       
  48 H48            7.3224     4.4812     1.1085 H       
  49 H49            8.5804     4.8630    -0.0924 H       
  50 H50            7.0069     6.4223    -1.2263 H       
  51 H51            5.1765     5.7176     1.1129 H       
  52 H52            4.8721     6.9995    -0.0848 H       
  53 H53            4.8126     5.3468    -1.9023 H       
  54 H54            3.6760     4.8434    -0.6248 H       
  55 H55            8.1417     8.3926    -0.8915 H       
  56 H56            9.1267    10.0962     0.5837 H       
  57 H57            7.8398     7.8495     4.0039 H       
  58 H58            6.8543     6.1623     2.5101 H       
@<TRIPOS>BOND
   1    1    2 am
   2    1   11 1
   3    1   31 1
   4    2    3 2
   5    2    4 am
   6    4    5 1
   7    4   32 1
   8    5    6 1
   9    5   33 1
  10    5   34 1
  11    6    7 1
  12    6    8 1
  13    6   35 1
  14    7   36 1
  15    7   37 1
  16    7   38 1
  17    8   39 1
  18    8   40 1
  19    8   41 1
  20    9   10 1
  21    9   13 1
  22    9   14 1
  23   10   11 2
  24   11   12 1
  25   12   13 2
  26   12   42 1
  27   13   15 1
  28   14   43 1
  29   14   44 1
  30   14   45 1
  31   15   16 2
  32   15   17 am
  33   17   18 1
  34   17   22 1
  35   18   19 1
  36   18   46 1
  37   18   47 1
  38   19   20 1
  39   19   48 1
  40   19   49 1
  41   20   21 1
  42   20   23 1
  43   20   50 1
  44   21   22 1
  45   21   51 1
  46   21   52 1
  47   22   53 1
  48   22   54 1
  49   23   24 ar
  50   23   28 ar
  51   24   25 ar
  52   24   55 1
  53   25   26 ar
  54   25   56 1
  55   26   27 ar
  56   26   29 1
  57   27   28 ar
  58   27   57 1
  59   28   58 1
  60   29   30 3

#	End of record

