#	Name: ASD07930621
#	Creating user name:	WinNT
#	Creation time:	15. 06. 2019 21:12

#	Modifying user name:	WinNT
#	Modification time:	15. 06. 2019 21:12

#	Program:	/corina/corina34_cracker 3.40 0067  02.08.2006

@<TRIPOS>MOLECULE
ASD07930621
  49   51    0    0    0
SMALL
NO_CHARGES


@<TRIPOS>ATOM
   1 C1            -0.0342     1.4581     0.0423 C.3     
   2 N2             0.7954    -0.4135    -2.1303 N.2     
   3 N3            -0.8903    -1.7836    -1.2685 N.pl3   
   4 C4            -0.9149    -2.8271    -0.2383 C.3     
   5 C5            -1.2300    -2.1885     1.1215 C.3     
   6 S6             0.0062    -0.8913     1.4434 S.o2    
   7 N7            -0.0140    -0.0067     0.0314 N.am    
   8 C8            -0.0112    -0.7261    -1.1552 C.2     
   9 C9             0.4500    -3.5154    -0.1755 C.3     
  10 C10           -1.9764    -3.8423    -0.5755 C.ar    
  11 C11           -2.8069    -3.6377    -1.6601 C.ar    
  12 C12           -3.7851    -4.5731    -1.9718 C.ar    
  13 C13           -3.9269    -5.7132    -1.1921 C.ar    
  14 C14           -3.0936    -5.9149    -0.1067 C.ar    
  15 C15           -2.1144    -4.9815     0.1987 C.ar    
  16 O16           -0.4576     0.0117     2.4377 O.2     
  17 O17            1.3141    -1.4441     1.5003 O.2     
  18 N18           -4.6272    -4.3666    -3.0701 N.am    
  19 C19           -5.0471    -5.4160    -3.8041 C.2     
  20 O20           -4.6183    -6.5298    -3.5730 O.2     
  21 C21           -6.0296    -5.2126    -4.8907 C.ar    
  22 N22           -6.4936    -3.9929    -5.1373 N.ar    
  23 F23           -1.3010    -5.1793     1.2590 F       
  24 C24           -7.3666    -3.7667    -6.0927 C.ar    
  25 C25           -7.3737    -6.1001    -6.6634 C.ar    
  26 C26           -6.4549    -6.3029    -5.6496 C.ar    
  27 C27           -7.8403    -4.8075    -6.8869 C.ar    
  28 O28           -8.7428    -4.5640    -7.8710 O.3     
  29 F29           -3.2306    -7.0234     0.6532 F       
  30 C30           -9.1683    -3.2104    -8.0406 C.3     
  31 F31           -9.7682    -2.7587    -6.8603 F       
  32 F32           -8.0619    -2.4077    -8.3383 F       
  33 H33            0.9884     1.8356     0.0392 H       
  34 H34           -0.5580     1.8208    -0.8421 H       
  35 H35           -0.5478     1.8077     0.9378 H       
  36 H36            1.4072     0.3330    -2.0332 H       
  37 H37           -1.4883    -1.8388    -2.0303 H       
  38 H38           -2.2269    -1.7484     1.0986 H       
  39 H39           -1.1799    -2.9460     1.9036 H       
  40 H40            1.2166    -2.7805     0.0704 H       
  41 H41            0.4311    -4.2908     0.5903 H       
  42 H42            0.6749    -3.9653    -1.1426 H       
  43 H43           -2.6958    -2.7503    -2.2655 H       
  44 H44           -4.6872    -6.4415    -1.4326 H       
  45 H45           -4.9087    -3.4681    -3.3032 H       
  46 H46           -7.7213    -2.7611    -6.2639 H       
  47 H47           -7.7210    -6.9252    -7.2676 H       
  48 H48           -6.0713    -7.2923    -5.4488 H       
  49 H49           -9.8875    -3.1554    -8.8579 H       
@<TRIPOS>BOND
   1    1    7 1
   2    1   33 1
   3    1   34 1
   4    1   35 1
   5    2    8 2
   6    2   36 1
   7    3    4 1
   8    3    8 1
   9    3   37 1
  10    4    5 1
  11    4    9 1
  12    4   10 1
  13    5    6 1
  14    5   38 1
  15    5   39 1
  16    6    7 am
  17    6   16 2
  18    6   17 2
  19    7    8 1
  20    9   40 1
  21    9   41 1
  22    9   42 1
  23   10   11 ar
  24   10   15 ar
  25   11   12 ar
  26   11   43 1
  27   12   13 ar
  28   12   18 1
  29   13   14 ar
  30   13   44 1
  31   14   15 ar
  32   14   29 1
  33   15   23 1
  34   18   19 am
  35   18   45 1
  36   19   20 2
  37   19   21 1
  38   21   22 ar
  39   21   26 ar
  40   22   24 ar
  41   24   27 ar
  42   24   46 1
  43   25   26 ar
  44   25   27 ar
  45   25   47 1
  46   26   48 1
  47   27   28 1
  48   28   30 1
  49   30   31 1
  50   30   32 1
  51   30   49 1

#	End of record

