#	Name: ASD00510004
#	Creating user name:	WinNT
#	Creation time:	15. 06. 2019 18:36

#	Modifying user name:	WinNT
#	Modification time:	15. 06. 2019 18:36

#	Program:	/corina/corina34_cracker 3.40 0067  02.08.2006

@<TRIPOS>MOLECULE
ASD00510004
  33   36    0    0    0
SMALL
NO_CHARGES


@<TRIPOS>ATOM
   1 C1             0.0243     1.3200    -0.5660 C.ar    
   2 N2             0.0416    -0.0022    -0.5646 N.ar    
   3 C3             1.1483    -0.6972    -0.3992 C.ar    
   4 C4             2.3594    -0.0339    -0.2169 C.ar    
   5 C5             2.3740     1.3817    -0.2136 C.ar    
   6 C6             1.1647     2.0567    -0.3944 C.ar    
   7 C7             3.6352    -0.7285    -0.0256 C.ar    
   8 C8             4.8068     0.0459     0.1511 C.ar    
   9 N9             4.7591     1.3874     0.1453 N.ar    
  10 C10            3.6504     2.0709    -0.0211 C.ar    
  11 C11            3.7058    -2.1235    -0.0155 C.ar    
  12 C12            4.9033    -2.7476     0.1651 C.ar    
  13 C13            6.0762    -1.9980     0.3420 C.ar    
  14 C14            6.0323    -0.6112     0.3350 C.ar    
  15 C15            3.6919     3.5505    -0.0133 C.ar    
  16 C16            2.7298     4.2743     0.6919 C.ar    
  17 C17            2.7734     5.6529     0.6957 C.ar    
  18 C18            3.7693     6.3187     0.0009 C.ar    
  19 C19            4.7268     5.6055    -0.7008 C.ar    
  20 C20            4.6967     4.2265    -0.7065 C.ar    
  21 Cl21           3.8173     8.0540     0.0090 Cl      
  22 C22            7.3272    -2.6689     0.5306 C.1     
  23 N23            8.3196    -3.2011     0.6803 N.1     
  24 H24           -0.9151     1.8327    -0.7111 H       
  25 H25            1.1166    -1.7767    -0.4046 H       
  26 H26            1.1304     3.1361    -0.3989 H       
  27 H27            2.8085    -2.7090    -0.1508 H       
  28 H28            4.9501    -3.8266     0.1725 H       
  29 H29            6.9385    -0.0397     0.4717 H       
  30 H30            1.9523     3.7561     1.2335 H       
  31 H31            2.0292     6.2142     1.2412 H       
  32 H32            5.5010     6.1299    -1.2412 H       
  33 H33            5.4441     3.6712    -1.2537 H       
@<TRIPOS>BOND
   1    1    2 ar
   2    1    6 ar
   3    1   24 1
   4    2    3 ar
   5    3    4 ar
   6    3   25 1
   7    4    5 ar
   8    4    7 ar
   9    5    6 ar
  10    5   10 ar
  11    6   26 1
  12    7    8 ar
  13    7   11 ar
  14    8    9 ar
  15    8   14 ar
  16    9   10 ar
  17   10   15 1
  18   11   12 ar
  19   11   27 1
  20   12   13 ar
  21   12   28 1
  22   13   14 ar
  23   13   22 1
  24   14   29 1
  25   15   16 ar
  26   15   20 ar
  27   16   17 ar
  28   16   30 1
  29   17   18 ar
  30   17   31 1
  31   18   19 ar
  32   18   21 1
  33   19   20 ar
  34   19   32 1
  35   20   33 1
  36   22   23 3

#	End of record

