#	Name: ASD03490013
#	Creating user name:	WinNT
#	Creation time:	15. 06. 2019 20:42

#	Modifying user name:	WinNT
#	Modification time:	15. 06. 2019 20:42

#	Program:	/corina/corina34_cracker 3.40 0067  02.08.2006

@<TRIPOS>MOLECULE
ASD03490013
  81   85    0    0    0
SMALL
NO_CHARGES


@<TRIPOS>ATOM
   1 C1             1.3643    -0.4850     0.2470 C.2     
   2 C2             0.0642    -0.0817     0.2812 C.2     
   3 C3            -0.7364    -1.2228     0.3813 C.2     
   4 N4             0.0417    -2.2749     0.4070 N.2     
   5 N5             1.3717    -1.8443     0.3189 N.pl3   
   6 N6             2.4815     0.3414     0.1501 N.am    
   7 C7             2.3266     1.6785     0.0805 C.2     
   8 C8             3.5145     2.5634     0.0936 C.2     
   9 C9             4.8600     1.9905     0.3026 C.ar    
  10 C10            5.1930     1.3840     1.5390 C.ar    
  11 C11            6.4870     0.8403     1.7200 C.ar    
  12 C12            7.4238     0.9113     0.6674 C.ar    
  13 C13            7.0726     1.5079    -0.5255 C.ar    
  14 C14            5.8042     2.0373    -0.7120 C.ar    
  15 C15            4.2635     1.3136     2.5861 C.ar    
  16 C16            4.6158     0.7240     3.7629 C.ar    
  17 C17            5.8889     0.1885     3.9420 C.ar    
  18 C18            6.8161     0.2394     2.9457 C.ar    
  19 O19            8.6679     0.3941     0.8285 O.3     
  20 C20            9.5638     0.5019    -0.2796 C.3     
  21 C21           10.9071    -0.1322     0.0871 C.3     
  22 N22           10.7257    -1.5741     0.3015 N.3     
  23 C23           12.0225    -2.2561     0.4215 C.3     
  24 C24           11.7872    -3.7425     0.7029 C.3     
  25 O25           10.9780    -4.2972    -0.3377 O.3     
  26 C26            9.7073    -3.6570    -0.4820 C.3     
  27 C27            9.9215    -2.1698    -0.7754 C.3     
  28 C28           -2.2418    -1.2391     0.4484 C.3     
  29 C29           -2.8173    -0.9510    -0.9396 C.3     
  30 C30           -2.7164    -2.6144     0.9219 C.3     
  31 C31           -2.7201    -0.1684     1.4311 C.3     
  32 O32            1.2124     2.1581     0.0070 O.2     
  33 N33            3.3726     3.8476    -0.0793 N.2     
  34 C34            2.5073    -2.6656     0.3134 C.ar    
  35 C35            2.5286    -3.8282     1.0722 C.ar    
  36 C36            3.6492    -4.6356     1.0648 C.ar    
  37 C37            4.7493    -4.2869     0.3030 C.ar    
  38 C38            4.7311    -3.1297    -0.4537 C.ar    
  39 C39            3.6111    -2.3214    -0.4553 C.ar    
  40 C40            5.9707    -5.1695     0.2980 C.3     
  41 O41            2.0766     4.4108    -0.1704 O.3     
  42 C42            2.0703     5.8272    -0.3592 C.3     
  43 H43           -0.2862     0.9390     0.2388 H       
  44 H44            3.3709    -0.0453     0.1328 H       
  45 H45            7.7941     1.5595    -1.3275 H       
  46 H46            5.5520     2.4998    -1.6549 H       
  47 H47            3.2729     1.7252     2.4608 H       
  48 H48            3.8980     0.6714     4.5681 H       
  49 H49            6.1444    -0.2738     4.8840 H       
  50 H50            7.7996    -0.1800     3.0977 H       
  51 H51            9.1407    -0.0157    -1.1405 H       
  52 H52            9.7132     1.5533    -0.5251 H       
  53 H53           11.6178     0.0281    -0.7236 H       
  54 H54           11.2879     0.3258     1.0000 H       
  55 H55           12.5794    -2.1455    -0.5090 H       
  56 H56           12.5908    -1.8160     1.2410 H       
  57 H57           12.7445    -4.2626     0.7359 H       
  58 H58           11.2776    -3.8555     1.6597 H       
  59 H59            9.1603    -4.1154    -1.3059 H       
  60 H60            9.1372    -3.7676     0.4404 H       
  61 H61            8.9561    -1.6667    -0.8295 H       
  62 H62           10.4448    -2.0578    -1.7250 H       
  63 H63           -2.4766    -1.7138    -1.6397 H       
  64 H64           -3.9062    -0.9628    -0.8911 H       
  65 H65           -2.4792     0.0288    -1.2769 H       
  66 H66           -2.3063    -2.8197     1.9108 H       
  67 H67           -3.8052    -2.6262     0.9704 H       
  68 H68           -2.3756    -3.3772     0.2218 H       
  69 H69           -2.3821     0.8114     1.0938 H       
  70 H70           -3.8090    -0.1802     1.4796 H       
  71 H71           -2.3101    -0.3736     2.4200 H       
  72 H72            1.6699    -4.1007     1.6679 H       
  73 H73            3.6663    -5.5400     1.6548 H       
  74 H74            5.5918    -2.8599    -1.0477 H       
  75 H75            3.5975    -1.4177    -1.0465 H       
  76 H76            5.8816    -5.9086    -0.4982 H       
  77 H77            6.8587    -4.5601     0.1302 H       
  78 H78            6.0554    -5.6783     1.2582 H       
  79 H79            1.0411     6.1812    -0.4191 H       
  80 H80            2.5716     6.3080     0.4808 H       
  81 H81            2.5934     6.0729    -1.2834 H       
@<TRIPOS>BOND
   1    1    2 2
   2    1    6 1
   3    1    5 1
   4    2    3 1
   5    2   43 1
   6    3    4 2
   7    3   28 1
   8    4    5 1
   9    5   34 1
  10    6    7 am
  11    6   44 1
  12    7    8 1
  13    7   32 2
  14    8    9 1
  15    8   33 2
  16    9   10 ar
  17    9   14 ar
  18   10   11 ar
  19   10   15 ar
  20   11   12 ar
  21   11   18 ar
  22   12   13 ar
  23   12   19 1
  24   13   14 ar
  25   13   45 1
  26   14   46 1
  27   15   16 ar
  28   15   47 1
  29   16   17 ar
  30   16   48 1
  31   17   18 ar
  32   17   49 1
  33   18   50 1
  34   19   20 1
  35   20   21 1
  36   20   51 1
  37   20   52 1
  38   21   22 1
  39   21   53 1
  40   21   54 1
  41   22   23 1
  42   22   27 1
  43   23   24 1
  44   23   55 1
  45   23   56 1
  46   24   25 1
  47   24   57 1
  48   24   58 1
  49   25   26 1
  50   26   27 1
  51   26   59 1
  52   26   60 1
  53   27   61 1
  54   27   62 1
  55   28   29 1
  56   28   30 1
  57   28   31 1
  58   29   63 1
  59   29   64 1
  60   29   65 1
  61   30   66 1
  62   30   67 1
  63   30   68 1
  64   31   69 1
  65   31   70 1
  66   31   71 1
  67   33   41 1
  68   34   35 ar
  69   34   39 ar
  70   35   36 ar
  71   35   72 1
  72   36   37 ar
  73   36   73 1
  74   37   38 ar
  75   37   40 1
  76   38   39 ar
  77   38   74 1
  78   39   75 1
  79   40   76 1
  80   40   77 1
  81   40   78 1
  82   41   42 1
  83   42   79 1
  84   42   80 1
  85   42   81 1

#	End of record

