#	Name: ASD02500488
#	Creating user name:	WinNT
#	Creation time:	15. 06. 2019 20:22

#	Modifying user name:	WinNT
#	Modification time:	15. 06. 2019 20:22

#	Program:	/corina/corina34_cracker 3.40 0067  02.08.2006

@<TRIPOS>MOLECULE
ASD02500488
  62   66    0    0    0
SMALL
NO_CHARGES


@<TRIPOS>ATOM
   1 N1             0.7440     4.1039    -1.2882 N.ar    
   2 C2             1.8521     3.9321    -0.6092 C.ar    
   3 C3             2.9940     3.3891    -1.1945 C.ar    
   4 C4             2.9763     3.0200    -2.5093 C.ar    
   5 C5             1.7844     3.2056    -3.2353 C.ar    
   6 C6             1.6909     2.8505    -4.5903 C.ar    
   7 C7             0.5202     3.0461    -5.2579 C.ar    
   8 C8            -0.5868     3.5948    -4.6141 C.ar    
   9 C9            -0.5311     3.9503    -3.3014 C.ar    
  10 C10            0.6597     3.7638    -2.5783 C.ar    
  11 S11           -1.9460     4.6426    -2.5119 S.o2    
  12 O12           -1.4999     5.8157    -1.8456 O.2     
  13 O13           -2.9846     4.6470    -3.4817 O.2     
  14 N14           -2.4151     3.5827    -1.3292 N.am    
  15 C15           -2.7834     2.2847    -1.6650 C.ar    
  16 C16           -2.2885     1.2102    -0.9310 C.ar    
  17 C17           -2.6511    -0.0756    -1.2609 C.ar    
  18 C18           -3.5174    -0.3023    -2.3343 C.ar    
  19 C19           -4.0127     0.7787    -3.0695 C.ar    
  20 C20           -3.6508     2.0625    -2.7311 C.ar    
  21 C21           -3.9078    -1.6795    -2.6910 C.2     
  22 O22           -5.0546    -1.9219    -3.0144 O.2     
  23 N23           -2.9933    -2.6690    -2.6583 N.am    
  24 C24           -3.3372    -4.0296    -3.0986 C.3     
  25 C25           -2.2841    -4.4946    -4.1100 C.3     
  26 N26           -0.9464    -4.3523    -3.5196 N.3     
  27 C27           -0.6393    -2.9455    -3.2288 C.3     
  28 C28           -1.6233    -2.4155    -2.1871 C.3     
  29 C29            0.0784    -4.9461    -4.3886 C.3     
  30 O30            2.9160    -5.9756    -2.3577 O.3     
  31 C31            1.6008    -5.4118    -2.4211 C.3     
  32 C32            1.4629    -4.7017    -3.7849 C.3     
  33 C33            2.5650    -5.3957    -4.6308 C.3     
  34 C34            3.6466    -5.6519    -3.5513 C.3     
  35 H35            1.8807     4.2195     0.4315 H       
  36 H36            3.8924     3.2606    -0.6091 H       
  37 H37            3.8523     2.5979    -2.9792 H       
  38 H38            2.5424     2.4251    -5.1004 H       
  39 H39            0.4491     2.7727    -6.3003 H       
  40 H40           -1.5038     3.7406    -5.1656 H       
  41 H41           -2.4329     3.8674    -0.4021 H       
  42 H42           -1.6190     1.3860    -0.1020 H       
  43 H43           -2.2666    -0.9087    -0.6913 H       
  44 H44           -4.6818     0.6067    -3.8996 H       
  45 H45           -4.0368     2.8984    -3.2956 H       
  46 H46           -3.3428    -4.7017    -2.2405 H       
  47 H47           -4.3201    -4.0245    -3.5697 H       
  48 H48           -2.4602    -5.5399    -4.3638 H       
  49 H49           -2.3507    -3.8849    -5.0110 H       
  50 H50            0.3774    -2.8673    -2.8436 H       
  51 H51           -0.7289    -2.3573    -4.1420 H       
  52 H52           -1.4737    -1.3439    -2.0558 H       
  53 H53           -1.4610    -2.9295    -1.2397 H       
  54 H54           -0.0959    -6.0186    -4.4754 H       
  55 H55            0.0268    -4.4884    -5.3765 H       
  56 H56            0.8551    -6.2025    -2.3388 H       
  57 H57            1.4681    -4.6913    -1.6140 H       
  58 H58            1.6588    -3.6338    -3.6879 H       
  59 H59            2.2034    -6.3326    -5.0546 H       
  60 H60            2.9379    -4.7319    -5.4108 H       
  61 H61            4.2463    -4.7550    -3.3963 H       
  62 H62            4.2827    -6.4873    -3.8438 H       
@<TRIPOS>BOND
   1    1    2 ar
   2    1   10 ar
   3    2    3 ar
   4    2   35 1
   5    3    4 ar
   6    3   36 1
   7    4    5 ar
   8    4   37 1
   9    5    6 ar
  10    5   10 ar
  11    6    7 ar
  12    6   38 1
  13    7    8 ar
  14    7   39 1
  15    8    9 ar
  16    8   40 1
  17    9   10 ar
  18    9   11 1
  19   11   12 2
  20   11   13 2
  21   11   14 am
  22   14   15 1
  23   14   41 1
  24   15   16 ar
  25   15   20 ar
  26   16   17 ar
  27   16   42 1
  28   17   18 ar
  29   17   43 1
  30   18   19 ar
  31   18   21 1
  32   19   20 ar
  33   19   44 1
  34   20   45 1
  35   21   22 2
  36   21   23 am
  37   23   24 1
  38   23   28 1
  39   24   25 1
  40   24   46 1
  41   24   47 1
  42   25   26 1
  43   25   48 1
  44   25   49 1
  45   26   27 1
  46   26   29 1
  47   27   28 1
  48   27   50 1
  49   27   51 1
  50   28   52 1
  51   28   53 1
  52   29   32 1
  53   29   54 1
  54   29   55 1
  55   30   31 1
  56   30   34 1
  57   31   32 1
  58   31   56 1
  59   31   57 1
  60   32   33 1
  61   32   58 1
  62   33   34 1
  63   33   59 1
  64   33   60 1
  65   34   61 1
  66   34   62 1

#	End of record

