#	Name: ASD03430251
#	Creating user name:	WinNT
#	Creation time:	15. 06. 2019 20:40

#	Modifying user name:	WinNT
#	Modification time:	15. 06. 2019 20:40

#	Program:	/corina/corina34_cracker 3.40 0067  02.08.2006

@<TRIPOS>MOLECULE
ASD03430251
  55   60    0    0    0
SMALL
NO_CHARGES


@<TRIPOS>ATOM
   1 C1            -0.0167     1.3821     0.0096 C.ar    
   2 C2             0.0021    -0.0041     0.0020 C.ar    
   3 C3             1.2028    -0.6818    -0.0162 C.ar    
   4 C4             2.4087     0.0129    -0.0162 C.ar    
   5 C5             2.3861     1.4039    -0.0119 C.ar    
   6 C6             1.1815     2.0867     0.0020 C.ar    
   7 O7             3.4713    -0.8419    -0.0074 O.3     
   8 C8             1.5511    -2.1458    -0.0509 C.3     
   9 C9             3.0363    -2.1458    -0.4380 C.3     
  10 C10            0.4268    -3.8598     1.0070 C.ar    
  11 C11            1.3158    -2.8198     1.2682 C.ar    
  12 C12            0.7167    -2.9064    -1.0410 C.2     
  13 N13            0.0966    -3.8836    -0.3502 N.am    
  14 O14            0.6192    -2.6843    -2.2294 O.2     
  15 C15            1.7821    -2.6009     2.5448 C.ar    
  16 C16            1.3690    -3.4172     3.5832 C.ar    
  17 C17            0.4871    -4.4527     3.3353 C.ar    
  18 C18            0.0170    -4.6765     2.0576 C.ar    
  19 O19           -1.2113     2.0356     0.0189 O.3     
  20 C20           -1.1865     3.4165     0.3963 C.3     
  21 C21           -0.0349     4.0988    -0.3543 C.3     
  22 O22            1.1866     3.4483     0.0115 O.3     
  23 C23           -0.8166    -4.8579    -0.9526 C.3     
  24 N24           -2.1887    -4.3349    -0.9093 N.3     
  25 C25           -3.0141    -4.9335    -1.9676 C.3     
  26 C26           -2.1966    -2.8685    -1.0053 C.3     
  27 C27           -3.6341    -2.3593    -0.8768 C.3     
  28 N28           -4.4596    -2.9579    -1.9351 N.3     
  29 C29           -4.4517    -4.4243    -1.8391 C.3     
  30 C30           -5.8316    -2.4349    -1.8918 C.3     
  31 H31           -0.9268    -0.5550     0.0107 H       
  32 H32            3.3148     1.9551    -0.0190 H       
  33 H33            3.1554    -2.2571    -1.5158 H       
  34 H34            3.5752    -2.9292     0.0949 H       
  35 H35            2.4713    -1.7916     2.7361 H       
  36 H36            1.7349    -3.2459     4.5848 H       
  37 H37            0.1649    -5.0898     4.1457 H       
  38 H38           -0.6714    -5.4876     1.8718 H       
  39 H39           -2.1315     3.8882     0.1269 H       
  40 H40           -1.0261     3.5010     1.4711 H       
  41 H41           -0.1916     4.0078    -1.4291 H       
  42 H42            0.0118     5.1519    -0.0769 H       
  43 H43           -0.5276    -5.0346    -1.9886 H       
  44 H44           -0.7671    -5.7943    -0.3969 H       
  45 H45           -2.6149    -4.6535    -2.9424 H       
  46 H46           -3.0025    -6.0189    -1.8677 H       
  47 H47           -1.5889    -2.4483    -0.2039 H       
  48 H48           -1.7881    -2.5650    -1.9692 H       
  49 H49           -4.0334    -2.6393     0.0980 H       
  50 H50           -3.6458    -1.2739    -0.9767 H       
  51 H51           -5.0593    -4.8445    -2.6405 H       
  52 H52           -4.8602    -4.7278    -0.8752 H       
  53 H53           -5.8131    -1.3541    -2.0323 H       
  54 H54           -6.4208    -2.8943    -2.6854 H       
  55 H55           -6.2791    -2.6680    -0.9256 H       
@<TRIPOS>BOND
   1    1    2 ar
   2    1    6 ar
   3    1   19 1
   4    2    3 ar
   5    2   31 1
   6    3    4 ar
   7    3    8 1
   8    4    5 ar
   9    4    7 1
  10    5    6 ar
  11    5   32 1
  12    6   22 1
  13    7    9 1
  14    8    9 1
  15    8   11 1
  16    8   12 1
  17    9   33 1
  18    9   34 1
  19   10   11 ar
  20   10   13 1
  21   10   18 ar
  22   11   15 ar
  23   12   13 am
  24   12   14 2
  25   13   23 1
  26   15   16 ar
  27   15   35 1
  28   16   17 ar
  29   16   36 1
  30   17   18 ar
  31   17   37 1
  32   18   38 1
  33   19   20 1
  34   20   21 1
  35   20   39 1
  36   20   40 1
  37   21   22 1
  38   21   41 1
  39   21   42 1
  40   23   24 1
  41   23   43 1
  42   23   44 1
  43   24   25 1
  44   24   26 1
  45   25   29 1
  46   25   45 1
  47   25   46 1
  48   26   27 1
  49   26   47 1
  50   26   48 1
  51   27   28 1
  52   27   49 1
  53   27   50 1
  54   28   29 1
  55   28   30 1
  56   29   51 1
  57   29   52 1
  58   30   53 1
  59   30   54 1
  60   30   55 1

#	End of record

