#	Name: ASD01890577
#	Creating user name:	WinNT
#	Creation time:	15. 06. 2019 19:51

#	Modifying user name:	WinNT
#	Modification time:	15. 06. 2019 19:51

#	Program:	/corina/corina34_cracker 3.40 0067  02.08.2006

@<TRIPOS>MOLECULE
ASD01890577
  49   51    0    0    0
SMALL
NO_CHARGES


@<TRIPOS>ATOM
   1 C1            -0.0166     1.3748     0.0096 C.ar    
   2 C2             0.0021    -0.0041     0.0020 C.ar    
   3 C3            -1.1945    -0.7079     0.0097 C.ar    
   4 C4            -2.4150    -0.0120     0.0251 C.ar    
   5 C5            -2.4097     1.3855     0.0325 C.ar    
   6 C6            -1.2229     2.0618     0.0306 C.ar    
   7 N7            -1.5208    -2.0494     0.0056 N.pl3   
   8 C8            -2.8785    -2.1356     0.0181 C.2     
   9 N9            -3.4020    -0.9445     0.0295 N.2     
  10 I10            1.7873     2.4401    -0.0019 I       
  11 C11           -3.6619    -3.4230     0.0186 C.3     
  12 C12           -4.6225    -3.4349     1.2094 C.3     
  13 C13           -5.6638    -2.3276     1.0358 C.3     
  14 C14           -5.3167    -4.7706     1.2814 C.ar    
  15 C15           -5.1781    -5.5619     2.4064 C.ar    
  16 C16           -5.8149    -6.7870     2.4724 C.ar    
  17 C17           -6.5907    -7.2207     1.4136 C.ar    
  18 C18           -6.7300    -6.4290     0.2890 C.ar    
  19 C19           -6.0967    -5.2019     0.2248 C.ar    
  20 C20           -7.2841    -8.5568     1.4851 C.3     
  21 C21           -8.2440    -8.5701     2.6764 C.3     
  22 C22           -8.0703    -8.7931     0.1940 C.3     
  23 C23           -6.2419    -9.6636     1.6575 C.3     
  24 C24           -6.5338    -2.2590     2.2644 C.2     
  25 O25           -6.3408    -3.0179     3.1845 O.2     
  26 O26           -7.5232    -1.3547     2.3366 O.3     
  27 H27            0.9431    -0.5339    -0.0102 H       
  28 H28           -3.3424     1.9298     0.0443 H       
  29 H29           -1.2231     3.1417     0.0367 H       
  30 H30           -0.8976    -2.7926    -0.0047 H       
  31 H31           -4.2306    -3.5026    -0.9078 H       
  32 H32           -2.9754    -4.2660     0.0971 H       
  33 H33           -4.0628    -3.2663     2.1295 H       
  34 H34           -5.1583    -1.3722     0.8948 H       
  35 H35           -6.2821    -2.5436     0.1644 H       
  36 H36           -4.5720    -5.2230     3.2336 H       
  37 H37           -5.7060    -7.4055     3.3510 H       
  38 H38           -7.3358    -6.7680    -0.5384 H       
  39 H39           -6.2056    -4.5834    -0.6538 H       
  40 H40           -8.9864    -7.7815     2.5536 H       
  41 H41           -8.7455    -9.5364     2.7282 H       
  42 H42           -7.6839    -8.4017     3.5962 H       
  43 H43           -7.3864    -8.7837    -0.6547 H       
  44 H44           -8.5718    -9.7595     0.2458 H       
  45 H45           -8.8127    -8.0046     0.0712 H       
  46 H46           -5.6818    -9.4953     2.5773 H       
  47 H47           -6.7435   -10.6300     1.7093 H       
  48 H48           -5.5581    -9.6542     0.8088 H       
  49 H49           -8.0545    -1.3488     3.1445 H       
@<TRIPOS>BOND
   1    1    2 ar
   2    1   10 1
   3    1    6 ar
   4    2    3 ar
   5    2   27 1
   6    3    4 ar
   7    3    7 1
   8    4    5 ar
   9    4    9 1
  10    5    6 ar
  11    5   28 1
  12    6   29 1
  13    7    8 1
  14    7   30 1
  15    8    9 2
  16    8   11 1
  17   11   12 1
  18   11   31 1
  19   11   32 1
  20   12   13 1
  21   12   14 1
  22   12   33 1
  23   13   24 1
  24   13   34 1
  25   13   35 1
  26   14   15 ar
  27   14   19 ar
  28   15   16 ar
  29   15   36 1
  30   16   17 ar
  31   16   37 1
  32   17   18 ar
  33   17   20 1
  34   18   19 ar
  35   18   38 1
  36   19   39 1
  37   20   21 1
  38   20   22 1
  39   20   23 1
  40   21   40 1
  41   21   41 1
  42   21   42 1
  43   22   43 1
  44   22   44 1
  45   22   45 1
  46   23   46 1
  47   23   47 1
  48   23   48 1
  49   24   25 2
  50   24   26 1
  51   26   49 1

#	End of record

