#	Name: ASD01028755
#	Creating user name:	WinNT
#	Creation time:	15. 06. 2019 18:58

#	Modifying user name:	WinNT
#	Modification time:	15. 06. 2019 18:58

#	Program:	/corina/corina34_cracker 3.40 0067  02.08.2006

@<TRIPOS>MOLECULE
ASD01028755
  31   33    0    0    0
SMALL
NO_CHARGES


@<TRIPOS>ATOM
   1 N1            -0.0157     1.3059     0.0092 N.ar    
   2 C2             0.0021    -0.0041     0.0020 C.ar    
   3 C3             1.2047    -0.7195    -0.0133 C.ar    
   4 C4             2.3983    -0.0476    -0.0211 C.ar    
   5 C5             2.3699     1.3597    -0.0132 C.ar    
   6 N6             3.4995     2.0727    -0.0196 N.ar    
   7 C7             3.4781     3.3843    -0.0120 C.ar    
   8 C8             2.2813     4.0950     0.0036 C.ar    
   9 C9             1.0888     3.4259     0.0114 C.ar    
  10 C10            1.1149     2.0165     0.0022 C.ar    
  11 O11            1.1884    -2.0780    -0.0200 O.3     
  12 C12           -0.0925    -2.7114    -0.0108 C.3     
  13 O13            0.6987    -4.6715     1.2129 O.3     
  14 C14            0.0897    -4.2305    -0.0202 C.3     
  15 C15           -1.2837    -4.9367    -0.0568 C.3     
  16 C16           -1.0916    -6.1782     0.8426 C.3     
  17 C17            0.3752    -6.0753     1.3162 C.3     
  18 Cl18          -0.4172     4.2892     0.0320 Cl      
  19 H19           -0.9331    -0.5443     0.0084 H       
  20 H20            3.3360    -0.5833    -0.0326 H       
  21 H21            4.4122     3.9262    -0.0176 H       
  22 H22            2.2947     5.1749     0.0100 H       
  23 H23           -0.6373    -2.4164     0.8861 H       
  24 H24           -0.6546    -2.4074    -0.8938 H       
  25 H25            0.6970    -4.5338    -0.8731 H       
  26 H26           -2.0584    -4.2866     0.3499 H       
  27 H27           -1.5317    -5.2372    -1.0748 H       
  28 H28           -1.7713    -6.1419     1.6940 H       
  29 H29           -1.2446    -7.0926     0.2693 H       
  30 H30            1.0253    -6.6632     0.6682 H       
  31 H31            0.4647    -6.4102     2.3496 H       
@<TRIPOS>BOND
   1    1    2 ar
   2    1   10 ar
   3    2    3 ar
   4    2   19 1
   5    3    4 ar
   6    3   11 1
   7    4    5 ar
   8    4   20 1
   9    5    6 ar
  10    5   10 ar
  11    6    7 ar
  12    7    8 ar
  13    7   21 1
  14    8    9 ar
  15    8   22 1
  16    9   10 ar
  17    9   18 1
  18   11   12 1
  19   12   14 1
  20   12   23 1
  21   12   24 1
  22   13   14 1
  23   13   17 1
  24   14   15 1
  25   14   25 1
  26   15   16 1
  27   15   26 1
  28   15   27 1
  29   16   17 1
  30   16   28 1
  31   16   29 1
  32   17   30 1
  33   17   31 1

#	End of record

