#	Name: ASD03081074
#	Creating user name:	WinNT
#	Creation time:	15. 06. 2019 20:26

#	Modifying user name:	WinNT
#	Modification time:	15. 06. 2019 20:26

#	Program:	/corina/corina34_cracker 3.40 0067  02.08.2006

@<TRIPOS>MOLECULE
ASD03081074
  23   23    0    0    0
SMALL
NO_CHARGES


@<TRIPOS>ATOM
   1 C1            -0.0180     1.4730     0.0101 C.2     
   2 C2             0.0021    -0.0041     0.0020 C.ar    
   3 C3             1.2190    -0.6889    -0.0133 C.ar    
   4 C4             1.2304    -2.0681    -0.0203 C.ar    
   5 C5             0.0396    -2.7731    -0.0127 C.ar    
   6 C6            -1.1695    -2.1010     0.0020 C.ar    
   7 C7            -1.1954    -0.7216     0.0154 C.ar    
   8 O8             1.0256     2.0946     0.0035 O.2     
   9 O9            -1.1936     2.1307     0.0193 O.3     
  10 S10            2.7647    -2.9343    -0.0396 S.o2    
  11 O11            2.4944    -4.2171    -0.5879 O.2     
  12 O12            3.7232    -2.0406    -0.5889 O.2     
  13 N13            3.2069    -3.1832     1.5367 N.am    
  14 C14            2.3928    -4.0437     2.3988 C.3     
  15 H15            2.1490    -0.1399    -0.0199 H       
  16 H16            0.0543    -3.8530    -0.0186 H       
  17 H17           -2.0952    -2.6573     0.0071 H       
  18 H18           -2.1399    -0.1982     0.0318 H       
  19 H19           -1.1561     3.0969     0.0244 H       
  20 H20            4.0050    -2.7593     1.8893 H       
  21 H21            2.3513    -5.0472     1.9753 H       
  22 H22            2.8375    -4.0869     3.3930 H       
  23 H23            1.3840    -3.6370     2.4694 H       
@<TRIPOS>BOND
   1    1    2 1
   2    1    8 2
   3    1    9 1
   4    2    3 ar
   5    2    7 ar
   6    3    4 ar
   7    3   15 1
   8    4    5 ar
   9    4   10 1
  10    5    6 ar
  11    5   16 1
  12    6    7 ar
  13    6   17 1
  14    7   18 1
  15    9   19 1
  16   10   11 2
  17   10   12 2
  18   10   13 am
  19   13   14 1
  20   13   20 1
  21   14   21 1
  22   14   22 1
  23   14   23 1

#	End of record

