#	Name: ASD09610027
#	Creating user name:	WinNT
#	Creation time:	15. 06. 2019 21:22

#	Modifying user name:	WinNT
#	Modification time:	15. 06. 2019 21:22

#	Program:	/corina/corina34_cracker 3.40 0067  02.08.2006

@<TRIPOS>MOLECULE
ASD09610027
  32   34    0    0    0
SMALL
NO_CHARGES


@<TRIPOS>ATOM
   1 C1            -0.0169     1.3939     0.0097 C.ar    
   2 C2             0.0021    -0.0041     0.0020 C.ar    
   3 C3             1.2612    -0.6398    -0.0134 C.ar    
   4 C4             2.3961     0.1731    -0.0199 C.ar    
   5 N5             2.2629     1.4843    -0.0116 N.ar    
   6 N6             1.1192     2.0636     0.0025 N.ar    
   7 C7            -1.2539    -0.7888     0.0103 C.ar    
   8 C8            -1.8605    -1.1538    -1.1936 C.ar    
   9 C9            -3.0321    -1.8864    -1.1795 C.ar    
  10 C10           -3.6052    -2.2584     0.0257 C.ar    
  11 C11           -3.0084    -1.8989     1.2232 C.ar    
  12 C12           -1.8334    -1.1717     1.2219 C.ar    
  13 F13           -1.2496    -0.8266     2.3904 F       
  14 F14           -4.7509    -2.9742     0.0333 F       
  15 F15           -1.3032    -0.7910    -2.3696 F       
  16 C16            3.7696    -0.4468    -0.0358 C.3     
  17 C17            0.9132    -2.8571    -1.1094 C.ar    
  18 C18            1.3752    -2.1176    -0.0220 C.ar    
  19 C19            1.9485    -2.7921     1.0606 C.ar    
  20 C20            2.0323    -4.1721     1.0044 C.ar    
  21 C21            1.5504    -4.8349    -0.1117 C.ar    
  22 N22            1.0146    -4.1704    -1.1189 N.ar    
  23 Cl23           1.6528    -6.5662    -0.1880 Cl      
  24 Cl24          -1.5300     2.2448     0.0215 Cl      
  25 H25           -3.5021    -2.1692    -2.1098 H       
  26 H26           -3.4601    -2.1915     2.1596 H       
  27 H27            4.0911    -0.5910    -1.0673 H       
  28 H28            4.4716     0.2124     0.4748 H       
  29 H29            3.7394    -1.4100     0.4734 H       
  30 H30            0.4644    -2.3491    -1.9501 H       
  31 H31            2.3167    -2.2497     1.9188 H       
  32 H32            2.4692    -4.7262     1.8220 H       
@<TRIPOS>BOND
   1    1    2 ar
   2    1    6 ar
   3    1   24 1
   4    2    3 ar
   5    2    7 1
   6    3    4 ar
   7    3   18 1
   8    4    5 ar
   9    4   16 1
  10    5    6 ar
  11    7    8 ar
  12    7   12 ar
  13    8    9 ar
  14    8   15 1
  15    9   10 ar
  16    9   25 1
  17   10   11 ar
  18   10   14 1
  19   11   12 ar
  20   11   26 1
  21   12   13 1
  22   16   27 1
  23   16   28 1
  24   16   29 1
  25   17   18 ar
  26   17   22 ar
  27   17   30 1
  28   18   19 ar
  29   19   20 ar
  30   19   31 1
  31   20   21 ar
  32   20   32 1
  33   21   22 ar
  34   21   23 1

#	End of record

