#	Name: ASD06660225
#	Creating user name:	WinNT
#	Creation time:	15. 06. 2019 21:08

#	Modifying user name:	WinNT
#	Modification time:	15. 06. 2019 21:08

#	Program:	/corina/corina34_cracker 3.40 0067  02.08.2006

@<TRIPOS>MOLECULE
ASD06660225
  68   71    0    0    0
SMALL
NO_CHARGES


@<TRIPOS>ATOM
   1 C1            -1.9796     1.7559     0.1517 C.2     
   2 C2            -1.6376     0.4921    -0.5946 C.3     
   3 C3            -2.3191     0.5084    -1.9644 C.3     
   4 O4            -1.1009     2.5088     0.4993 O.2     
   5 O5            -3.2609     2.0479     0.4253 O.3     
   6 C6            -2.0946    -0.8131    -2.6529 C.ar    
   7 C7            -2.9296    -1.8820    -2.3836 C.ar    
   8 C8            -2.7266    -3.0945    -3.0128 C.ar    
   9 C9            -1.6822    -3.2397    -3.9171 C.ar    
  10 C10           -0.8453    -2.1639    -4.1853 C.ar    
  11 C11           -1.0574    -0.9526    -3.5568 C.ar    
  12 N12           -1.4738    -4.4647    -4.5550 N.3     
  13 C13           -2.7556    -5.0888    -4.9324 C.3     
  14 C14           -2.1725    -6.4328    -4.4736 C.3     
  15 C15           -1.2991    -5.5496    -3.5715 C.3     
  16 C16           -3.1622    -7.3186    -3.7143 C.3     
  17 N17           -2.5403    -8.6145    -3.4315 N.pl3   
  18 C18           -3.2519    -9.5921    -2.7458 C.ar    
  19 C19           -4.5545    -9.3332    -2.3309 C.ar    
  20 C20           -5.2510   -10.3148    -1.6496 C.ar    
  21 C21           -4.6191   -11.5272    -1.4050 C.ar    
  22 C22           -3.3247   -11.7159    -1.8454 C.ar    
  23 N23           -2.6861   -10.7631    -2.4980 N.ar    
  24 C24            0.5992     0.0405     0.2597 C.2     
  25 C25            2.0518    -0.1471     0.0537 C.ar    
  26 C26            2.5654    -1.4259    -0.1726 C.ar    
  27 C27            3.9177    -1.6009    -0.3644 C.ar    
  28 C28            4.7759    -0.4991    -0.3326 C.ar    
  29 C29            4.2621     0.7796    -0.1063 C.ar    
  30 C30            2.9085     0.9548     0.0799 C.ar    
  31 O31            0.1135    -0.1363     1.3598 O.2     
  32 N32           -0.1859     0.4077    -0.7724 N.am    
  33 C33            2.3532     2.3355     0.3175 C.3     
  34 C34            1.6396    -2.6145    -0.2064 C.3     
  35 C35            1.0575    -2.7677    -1.6131 C.3     
  36 C36            6.1823    -0.6808    -0.5316 C.1     
  37 N37            7.2980    -0.8250    -0.6895 N.1     
  38 H38           -1.9849    -0.3707    -0.0263 H       
  39 H39           -3.3888     0.6741    -1.8360 H       
  40 H40           -1.8974     1.3102    -2.5705 H       
  41 H41           -3.4309     2.8695     0.9061 H       
  42 H42           -3.7412    -1.7686    -1.6802 H       
  43 H43           -3.3789    -3.9290    -2.8018 H       
  44 H44           -0.0323    -2.2734    -4.8879 H       
  45 H45           -0.4099    -0.1144    -3.7684 H       
  46 H46           -3.5974    -4.7517    -4.3277 H       
  47 H47           -2.9606    -5.0470    -6.0021 H       
  48 H48           -1.6191    -6.9663    -5.2465 H       
  49 H49           -0.2698    -5.8983    -3.4878 H       
  50 H50           -1.7523    -5.3355    -2.6035 H       
  51 H51           -3.4373    -6.8352    -2.7769 H       
  52 H52           -4.0551    -7.4688    -4.3213 H       
  53 H53           -1.6319    -8.7904    -3.7227 H       
  54 H54           -5.0154    -8.3786    -2.5378 H       
  55 H55           -6.2632   -10.1423    -1.3151 H       
  56 H56           -5.1353   -12.3141    -0.8753 H       
  57 H57           -2.8297   -12.6572    -1.6573 H       
  58 H58            4.3149    -2.5899    -0.5391 H       
  59 H59            4.9254     1.6316    -0.0813 H       
  60 H60            0.2102     0.6160    -1.6330 H       
  61 H61            2.3466     2.5453     1.3871 H       
  62 H62            2.9756     3.0703    -0.1931 H       
  63 H63            1.3356     2.3894    -0.0696 H       
  64 H64            2.1945    -3.5148     0.0573 H       
  65 H65            0.8297    -2.4646     0.5075 H       
  66 H66            0.5869    -1.8323    -1.9155 H       
  67 H67            1.8566    -3.0150    -2.3120 H       
  68 H68            0.3145    -3.5652    -1.6139 H       
@<TRIPOS>BOND
   1    1    2 1
   2    1    4 2
   3    1    5 1
   4    2    3 1
   5    2   32 1
   6    2   38 1
   7    3    6 1
   8    3   39 1
   9    3   40 1
  10    5   41 1
  11    6    7 ar
  12    6   11 ar
  13    7    8 ar
  14    7   42 1
  15    8    9 ar
  16    8   43 1
  17    9   10 ar
  18    9   12 1
  19   10   11 ar
  20   10   44 1
  21   11   45 1
  22   12   13 1
  23   12   15 1
  24   13   14 1
  25   13   46 1
  26   13   47 1
  27   14   15 1
  28   14   16 1
  29   14   48 1
  30   15   49 1
  31   15   50 1
  32   16   17 1
  33   16   51 1
  34   16   52 1
  35   17   18 1
  36   17   53 1
  37   18   19 ar
  38   18   23 ar
  39   19   20 ar
  40   19   54 1
  41   20   21 ar
  42   20   55 1
  43   21   22 ar
  44   21   56 1
  45   22   23 ar
  46   22   57 1
  47   24   25 1
  48   24   31 2
  49   24   32 am
  50   25   26 ar
  51   25   30 ar
  52   26   27 ar
  53   26   34 1
  54   27   28 ar
  55   27   58 1
  56   28   29 ar
  57   28   36 1
  58   29   30 ar
  59   29   59 1
  60   30   33 1
  61   32   60 1
  62   33   61 1
  63   33   62 1
  64   33   63 1
  65   34   35 1
  66   34   64 1
  67   34   65 1
  68   35   66 1
  69   35   67 1
  70   35   68 1
  71   36   37 3

#	End of record

