#	Name: ASD03092846
#	Creating user name:	WinNT
#	Creation time:	15. 06. 2019 20:33

#	Modifying user name:	WinNT
#	Modification time:	15. 06. 2019 20:33

#	Program:	/corina/corina34_cracker 3.40 0067  02.08.2006

@<TRIPOS>MOLECULE
ASD03092846
  47   50    0    0    0
SMALL
NO_CHARGES


@<TRIPOS>ATOM
   1 N1            -0.8539    -1.3400    -1.0359 N.am    
   2 S2            -0.0872    -0.3377     0.0364 S.o2    
   3 O3            -0.1905     0.9753    -0.4973 O.2     
   4 O4            -0.5637    -0.6915     1.3275 O.2     
   5 C5             1.6247    -0.7536     0.0066 C.ar    
   6 C6             2.1132    -1.7204     0.8673 C.ar    
   7 C7             3.4524    -2.0521     0.8504 C.ar    
   8 C8             4.3165    -1.4097    -0.0381 C.ar    
   9 C9             5.7507    -1.7599    -0.0619 C.2     
  10 S10            6.7076    -2.1274    -1.4948 S.3     
  11 C11            8.0937    -2.3722    -0.5263 C.2     
  12 C12            9.4518    -2.7514    -1.0582 C.3     
  13 N13            9.5679    -4.2111    -1.1047 N.am    
  14 C14           10.0698    -5.0374    -0.0005 C.3     
  15 C15            9.6096    -6.4769    -0.3209 C.3     
  16 C16            9.4691    -6.4278    -1.8600 C.3     
  17 C17            9.2230    -4.9660    -2.1620 C.2     
  18 O18            8.7812    -4.5375    -3.2070 O.2     
  19 N19            7.8224    -2.1887     0.7191 N.2     
  20 C20            6.5805    -1.8520     1.0277 C.2     
  21 C21            6.1280    -1.6029     2.4160 C.ar    
  22 C22            5.2868    -0.5260     2.6954 C.ar    
  23 C23            4.8681    -0.2989     3.9902 C.ar    
  24 C24            5.2814    -1.1377     5.0113 C.ar    
  25 Cl25           4.7507    -0.8460     6.6383 Cl      
  26 C26            6.1161    -2.2084     4.7396 C.ar    
  27 C27            6.5370    -2.4477     3.4477 C.ar    
  28 C28            3.8170    -0.4331    -0.9058 C.ar    
  29 F29            4.6455     0.1937    -1.7695 F       
  30 C30            2.4727    -0.1157    -0.8813 C.ar    
  31 H31           -0.3445    -1.9987    -1.5334 H       
  32 H32           -1.8130    -1.2711    -1.1636 H       
  33 H33            1.4443    -2.2168     1.5547 H       
  34 H34            3.8314    -2.8069     1.5235 H       
  35 H35            9.5753    -2.3449    -2.0620 H       
  36 H36           10.2241    -2.3461    -0.4045 H       
  37 H37           11.1579    -4.9899     0.0418 H       
  38 H38            9.6399    -4.7056     0.9446 H       
  39 H39           10.3647    -7.2036    -0.0211 H       
  40 H40            8.6517    -6.6944     0.1515 H       
  41 H41           10.3867    -6.7708    -2.3380 H       
  42 H42            8.6205    -7.0298    -2.1850 H       
  43 H43            4.9641     0.1291     1.8997 H       
  44 H44            4.2170     0.5349     4.2077 H       
  45 H45            6.4355    -2.8595     5.5399 H       
  46 H46            7.1851    -3.2854     3.2363 H       
  47 H47            2.0837     0.6347    -1.5536 H       
@<TRIPOS>BOND
   1    1    2 am
   2    1   31 1
   3    1   32 1
   4    2    3 2
   5    2    4 2
   6    2    5 1
   7    5   30 ar
   8    5    6 ar
   9    6    7 ar
  10    6   33 1
  11    7    8 ar
  12    7   34 1
  13    8    9 1
  14    8   28 ar
  15    9   20 2
  16    9   10 1
  17   10   11 1
  18   11   12 1
  19   11   19 2
  20   12   13 1
  21   12   35 1
  22   12   36 1
  23   13   17 am
  24   13   14 1
  25   14   15 1
  26   14   37 1
  27   14   38 1
  28   15   16 1
  29   15   39 1
  30   15   40 1
  31   16   17 1
  32   16   41 1
  33   16   42 1
  34   17   18 2
  35   19   20 1
  36   20   21 1
  37   21   27 ar
  38   21   22 ar
  39   22   23 ar
  40   22   43 1
  41   23   24 ar
  42   23   44 1
  43   24   25 1
  44   24   26 ar
  45   26   27 ar
  46   26   45 1
  47   27   46 1
  48   28   29 1
  49   28   30 ar
  50   30   47 1

#	End of record

