#	Name: ASD01170002
#	Creating user name:	WinNT
#	Creation time:	15. 06. 2019 19:06

#	Modifying user name:	WinNT
#	Modification time:	15. 06. 2019 19:06

#	Program:	/corina/corina34_cracker 3.40 0067  02.08.2006

@<TRIPOS>MOLECULE
ASD01170002
  41   43    0    0    0
SMALL
NO_CHARGES


@<TRIPOS>ATOM
   1 C1             7.2876     1.3314     1.3321 C.ar    
   2 C2             6.9356     0.1787     2.0094 C.ar    
   3 C3             5.7346    -0.4459     1.7385 C.ar    
   4 C4             4.8670     0.0767     0.7829 C.ar    
   5 C5             5.2205     1.2411     0.1088 C.ar    
   6 C6             6.4336     1.8617     0.3850 C.ar    
   7 N7             3.6741    -0.6088     0.5365 N.am    
   8 C8             2.5303     0.0092    -0.1280 C.3     
   9 C9             3.0007     0.6036    -1.4637 C.3     
  10 S10            4.1504     1.9609    -1.0946 S.3     
  11 C11            3.5757    -1.8945     0.9285 C.2     
  12 N12            2.3957    -2.5391     0.8351 N.am    
  13 O13            4.5515    -2.4730     1.3664 O.2     
  14 C14            2.3189    -3.9044     1.1316 C.ar    
  15 C15            1.1659    -4.4276     1.7005 C.ar    
  16 C16            1.0903    -5.7806     1.9936 C.ar    
  17 C17            2.1665    -6.6111     1.7190 C.ar    
  18 C18            3.3190    -6.0889     1.1511 C.ar    
  19 C19            3.3936    -4.7372     0.8518 C.ar    
  20 O20            4.3734    -6.9033     0.8831 O.3     
  21 C21            4.2254    -8.2859     1.2123 C.3     
  22 O22           -0.0385    -6.2930     2.5505 O.3     
  23 C23           -0.0471    -7.6952     2.8260 C.3     
  24 H24            8.2271     1.8190     1.5465 H       
  25 H25            7.6021    -0.2345     2.7520 H       
  26 H26            5.4663    -1.3462     2.2713 H       
  27 H27            6.7093     2.7625    -0.1432 H       
  28 H28            1.7638    -0.7436    -0.3124 H       
  29 H29            2.1250     0.8008     0.5021 H       
  30 H30            3.5095    -0.1620    -2.0495 H       
  31 H31            2.1445     0.9861    -2.0193 H       
  32 H32            1.5997    -2.0565     0.5624 H       
  33 H33            0.3280    -3.7808     1.9150 H       
  34 H34            2.1072    -7.6650     1.9478 H       
  35 H35            4.2912    -4.3307     0.4095 H       
  36 H36            5.1369    -8.8220     0.9480 H       
  37 H37            4.0416    -8.3871     2.2820 H       
  38 H38            3.3847    -8.7034     0.6582 H       
  39 H39            0.0991    -8.2486     1.8984 H       
  40 H40            0.7572    -7.9337     3.5220 H       
  41 H41           -1.0041    -7.9728     3.2678 H       
@<TRIPOS>BOND
   1    1    2 ar
   2    1    6 ar
   3    1   24 1
   4    2    3 ar
   5    2   25 1
   6    3    4 ar
   7    3   26 1
   8    4    5 ar
   9    4    7 1
  10    5    6 ar
  11    5   10 1
  12    6   27 1
  13    7    8 1
  14    7   11 am
  15    8    9 1
  16    8   28 1
  17    8   29 1
  18    9   10 1
  19    9   30 1
  20    9   31 1
  21   11   12 am
  22   11   13 2
  23   12   14 1
  24   12   32 1
  25   14   15 ar
  26   14   19 ar
  27   15   16 ar
  28   15   33 1
  29   16   17 ar
  30   16   22 1
  31   17   18 ar
  32   17   34 1
  33   18   19 ar
  34   18   20 1
  35   19   35 1
  36   20   21 1
  37   21   36 1
  38   21   37 1
  39   21   38 1
  40   22   23 1
  41   23   39 1
  42   23   40 1
  43   23   41 1

#	End of record

