#	Name: ASD01882978
#	Creating user name:	WinNT
#	Creation time:	15. 06. 2019 19:45

#	Modifying user name:	WinNT
#	Modification time:	15. 06. 2019 19:45

#	Program:	/corina/corina34_cracker 3.40 0067  02.08.2006

@<TRIPOS>MOLECULE
ASD01882978
  33   35    0    0    0
SMALL
NO_CHARGES


@<TRIPOS>ATOM
   1 C1            -0.0159     1.3220     0.0093 C.2     
   2 N2             0.0021    -0.0041     0.0020 N.2     
   3 C3             1.1523    -0.6857    -0.0126 C.2     
   4 C4             2.3835     0.0173    -0.0206 C.2     
   5 C5             2.3523     1.3664    -0.0131 C.2     
   6 N6             1.1484     2.0132     0.0019 N.pl3   
   7 O7            -1.0993     2.1290     0.0184 O.3     
   8 C8             0.8540     3.4562     0.0125 C.3     
   9 C9            -0.6831     3.5211     0.0242 C.3     
  10 O10            1.1423    -1.9071    -0.0187 O.2     
  11 C11           -1.1944     4.2379    -1.2270 C.3     
  12 O12           -2.6209     4.3119    -1.1842 O.3     
  13 C13           -3.2031     4.9668    -2.3130 C.3     
  14 C14           -4.7025     4.9876    -2.1635 C.ar    
  15 C15           -5.3186     6.0464    -1.5231 C.ar    
  16 C16           -6.6940     6.0655    -1.3859 C.ar    
  17 C17           -7.4533     5.0259    -1.8896 C.ar    
  18 C18           -6.8372     3.9675    -2.5308 C.ar    
  19 C19           -5.4622     3.9506    -2.6718 C.ar    
  20 H20            3.3237    -0.5140    -0.0321 H       
  21 H21            3.2727     1.9314    -0.0185 H       
  22 H22            1.2651     3.9237     0.9072 H       
  23 H23            1.2480     3.9334    -0.8848 H       
  24 H24           -1.0396     4.0220     0.9243 H       
  25 H25           -0.7793     5.2451    -1.2639 H       
  26 H26           -0.8857     3.6850    -2.1142 H       
  27 H27           -2.8296     5.9891    -2.3724 H       
  28 H28           -2.9360     4.4290    -3.2227 H       
  29 H29           -4.7254     6.8586    -1.1296 H       
  30 H30           -7.1753     6.8924    -0.8849 H       
  31 H31           -8.5278     5.0405    -1.7818 H       
  32 H32           -7.4304     3.1552    -2.9240 H       
  33 H33           -4.9812     3.1255    -3.1760 H       
@<TRIPOS>BOND
   1    1    2 2
   2    1    6 1
   3    1    7 1
   4    2    3 1
   5    3    4 1
   6    3   10 2
   7    4    5 2
   8    4   20 1
   9    5    6 1
  10    5   21 1
  11    6    8 1
  12    7    9 1
  13    8    9 1
  14    8   22 1
  15    8   23 1
  16    9   11 1
  17    9   24 1
  18   11   12 1
  19   11   25 1
  20   11   26 1
  21   12   13 1
  22   13   14 1
  23   13   27 1
  24   13   28 1
  25   14   15 ar
  26   14   19 ar
  27   15   16 ar
  28   15   29 1
  29   16   17 ar
  30   16   30 1
  31   17   18 ar
  32   17   31 1
  33   18   19 ar
  34   18   32 1
  35   19   33 1

#	End of record

