#	Name: ASD05740001
#	Creating user name:	WinNT
#	Creation time:	15. 06. 2019 21:02

#	Modifying user name:	WinNT
#	Modification time:	15. 06. 2019 21:02

#	Program:	/corina/corina34_cracker 3.40 0067  02.08.2006

@<TRIPOS>MOLECULE
ASD05740001
  56   57    0    0    0
SMALL
NO_CHARGES


@<TRIPOS>ATOM
   1 C1            -0.0168     1.3895     0.0097 C.ar    
   2 C2             0.0021    -0.0041     0.0020 C.ar    
   3 C3            -1.1650    -0.7112     0.0093 C.ar    
   4 C4            -2.3892    -0.0327     0.0251 C.ar    
   5 C5            -2.4147     1.3743     0.0334 C.ar    
   6 C6            -1.2191     2.0771     0.0306 C.ar    
   7 C7            -3.6571    -0.7653     0.0327 C.2     
   8 C8            -4.8117    -0.0496     0.0476 C.2     
   9 C9            -4.7633     1.3595     0.0553 C.2     
  10 O10           -3.5977     2.0250     0.0478 O.3     
  11 C11           -6.1408    -0.7600     0.0554 C.3     
  12 C12           -6.6292    -0.8962     1.4745 C.ar    
  13 C13           -7.8802    -0.4195     1.8347 C.ar    
  14 O14           -5.8059     1.9890     0.0687 O.2     
  15 N15           -5.8718    -1.4768     2.3902 N.ar    
  16 C16           -6.2946    -1.6001     3.6400 C.ar    
  17 N17           -7.4823    -1.1509     4.0178 N.ar    
  18 C18           -8.2909    -0.5648     3.1502 C.ar    
  19 O19            1.1527     2.0786     0.0022 O.3     
  20 N20           -5.4762    -2.2131     4.5727 N.am    
  21 S21           -5.8001    -2.0557     6.1891 S.o2    
  22 O22           -4.7582    -2.7811     6.8275 O.2     
  23 O23           -5.9433    -0.6553     6.3831 O.2     
  24 C24           -3.6805    -2.2721     0.0237 C.3     
  25 C25            2.3579     1.3110    -0.0134 C.3     
  26 C26           -7.3919    -2.8957     6.4156 C.3     
  27 C27           -7.8046    -2.8182     7.8868 C.3     
  28 C28           -9.1472    -3.5267     8.0778 C.3     
  29 H29            0.9465    -0.5277    -0.0101 H       
  30 H30           -1.1442    -1.7910     0.0026 H       
  31 H31           -1.2255     3.1570     0.0369 H       
  32 H32           -6.8633    -0.1852    -0.5240 H       
  33 H33           -6.0262    -1.7500    -0.3860 H       
  34 H34           -8.5205     0.0551     1.1059 H       
  35 H35           -9.2578    -0.2003     3.4643 H       
  36 H36           -4.7128    -2.7349     4.2796 H       
  37 H37           -2.6587    -2.6512     0.0116 H       
  38 H38           -4.1914    -2.6328     0.9164 H       
  39 H39           -4.2084    -2.6220    -0.8635 H       
  40 H40            2.3968     0.6777     0.8728 H       
  41 H41            2.3798     0.6872    -0.9070 H       
  42 H42            3.2164     1.9826    -0.0180 H       
  43 H43           -8.1494    -2.4110     5.7997 H       
  44 H44           -7.2968    -3.9404     6.1194 H       
  45 H45           -7.0471    -3.3029     8.5027 H       
  46 H46           -7.8997    -1.7735     8.1829 H       
  47 H47           -9.9047    -3.0420     7.4619 H       
  48 H48           -9.0521    -4.5714     7.7817 H       
  49 H49           -9.4413    -3.4715     9.1260 H       
  50 C50            8.7436    10.8263    15.9943 C.3     
  51 N51            8.7635     9.3615    15.9862 N.2     
  52 C52            9.3042     8.7490    15.0402 C.1     
  53 O53            9.8267     8.1570    14.1260 O.2     
  54 H54            9.7662    11.2036    15.9865 H       
  55 H55            8.2164    11.1874    15.1112 H       
  56 H56            8.2334    11.1779    16.8911 H       
@<TRIPOS>BOND
   1    1    2 ar
   2    1   19 1
   3    1    6 ar
   4    2    3 ar
   5    2   29 1
   6    3    4 ar
   7    3   30 1
   8    4    5 ar
   9    4    7 1
  10    5    6 ar
  11    5   10 1
  12    6   31 1
  13    7    8 2
  14    7   24 1
  15    8    9 1
  16    8   11 1
  17    9   10 1
  18    9   14 2
  19   11   12 1
  20   11   32 1
  21   11   33 1
  22   12   13 ar
  23   12   15 ar
  24   13   18 ar
  25   13   34 1
  26   15   16 ar
  27   16   17 ar
  28   16   20 1
  29   17   18 ar
  30   18   35 1
  31   19   25 1
  32   20   21 am
  33   20   36 1
  34   21   22 2
  35   21   23 2
  36   21   26 1
  37   24   37 1
  38   24   38 1
  39   24   39 1
  40   25   40 1
  41   25   41 1
  42   25   42 1
  43   26   27 1
  44   26   43 1
  45   26   44 1
  46   27   28 1
  47   27   45 1
  48   27   46 1
  49   28   47 1
  50   28   48 1
  51   28   49 1
  52   50   51 1
  53   50   54 1
  54   50   55 1
  55   50   56 1
  56   51   52 2
  57   52   53 2

#	End of record

