#	Name: ASD03430126
#	Creating user name:	WinNT
#	Creation time:	15. 06. 2019 20:40

#	Modifying user name:	WinNT
#	Modification time:	15. 06. 2019 20:40

#	Program:	/corina/corina34_cracker 3.40 0067  02.08.2006

@<TRIPOS>MOLECULE
ASD03430126
  62   68    0    0    0
SMALL
NO_CHARGES


@<TRIPOS>ATOM
   1 C1             0.4840     1.1076    -0.6148 C.ar    
   2 C2             0.4489    -0.2620    -0.4722 C.ar    
   3 C3             1.6145    -0.9644    -0.2498 C.ar    
   4 C4             2.8327    -0.2961    -0.1580 C.ar    
   5 C5             2.8605     1.0848    -0.3114 C.ar    
   6 C6             1.6893     1.7960    -0.5440 C.ar    
   7 O7             3.8526    -1.1652     0.0944 O.3     
   8 C8             1.9128    -2.4292    -0.0785 C.3     
   9 C9             3.4365    -2.5003    -0.2511 C.3     
  10 C10            0.5960    -3.9943     0.9859 C.ar    
  11 C11            1.4758    -2.9519     1.2573 C.ar    
  12 C12            1.1971    -3.2770    -1.0908 C.2     
  13 N13            0.4531    -4.1591    -0.3943 N.am    
  14 O14            1.2731    -3.1855    -2.2978 O.2     
  15 C15            1.7732    -2.6048     2.5676 C.ar    
  16 C16            1.1865    -3.3061     3.6213 C.ar    
  17 C17            0.3132    -4.3408     3.3523 C.ar    
  18 C18            0.0177    -4.6856     2.0486 C.ar    
  19 C19            2.7129    -1.4912     2.8472 C.ar    
  20 C20           -0.6046     2.1373    -0.8462 C.3     
  21 C21            0.1236     3.4566    -0.4963 C.3     
  22 O22            1.5034     3.1316    -0.7358 O.3     
  23 C23           -0.4055    -5.1725    -1.0123 C.3     
  24 C24           -1.8059    -4.5940    -1.2245 C.3     
  25 C25           -2.7173    -5.6529    -1.8746 C.3     
  26 C26           -3.8835    -5.8181    -0.8698 C.3     
  27 C27           -3.8074    -4.4964    -0.0639 C.3     
  28 O28           -2.3891    -4.2482     0.0430 O.3     
  29 C29            2.4288    -0.2061     2.3887 C.ar    
  30 C30            3.3041     0.8270     2.6500 C.ar    
  31 C31            4.4676     0.5878     3.3687 C.ar    
  32 C32            4.7535    -0.6913     3.8264 C.ar    
  33 C33            3.8786    -1.7271     3.5738 C.ar    
  34 O34            5.3284     1.6075     3.6243 O.3     
  35 C35            6.5062     1.2910     4.3690 C.3     
  36 H36           -0.4932    -0.7866    -0.5343 H       
  37 H37            3.8017     1.6108    -0.2487 H       
  38 H38            3.6987    -2.7325    -1.2833 H       
  39 H39            3.8698    -3.2299     0.4330 H       
  40 H40            1.4143    -3.0404     4.6430 H       
  41 H41           -0.1416    -4.8844     4.1671 H       
  42 H42           -0.6674    -5.4967     1.8509 H       
  43 H43           -0.9279     2.1351    -1.8871 H       
  44 H44           -1.4485     1.9689    -0.1773 H       
  45 H45           -0.2026     4.2635    -1.1524 H       
  46 H46           -0.0352     3.7197     0.5495 H       
  47 H47            0.0151    -5.4679    -1.9735 H       
  48 H48           -0.4672    -6.0434    -0.3597 H       
  49 H49           -1.7495    -3.7117    -1.8621 H       
  50 H50           -3.0892    -5.2980    -2.8357 H       
  51 H51           -2.1819    -6.5946    -1.9958 H       
  52 H52           -4.8371    -5.9015    -1.3911 H       
  53 H53           -3.7194    -6.6789    -0.2216 H       
  54 H54           -4.2988    -3.6879    -0.6052 H       
  55 H55           -4.2504    -4.6231     0.9239 H       
  56 H56            1.5242    -0.0196     1.8289 H       
  57 H57            3.0845     1.8230     2.2949 H       
  58 H58            5.6597    -0.8746     4.3846 H       
  59 H59            4.1014    -2.7219     3.9304 H       
  60 H60            7.1048     2.1921     4.5025 H       
  61 H61            6.2238     0.8947     5.3444 H       
  62 H62            7.0884     0.5448     3.8283 H       
@<TRIPOS>BOND
   1    1    2 ar
   2    1    6 ar
   3    1   20 1
   4    2    3 ar
   5    2   36 1
   6    3    4 ar
   7    3    8 1
   8    4    5 ar
   9    4    7 1
  10    5    6 ar
  11    5   37 1
  12    6   22 1
  13    7    9 1
  14    8    9 1
  15    8   11 1
  16    8   12 1
  17    9   38 1
  18    9   39 1
  19   10   11 ar
  20   10   13 1
  21   10   18 ar
  22   11   15 ar
  23   12   13 am
  24   12   14 2
  25   13   23 1
  26   15   16 ar
  27   15   19 1
  28   16   17 ar
  29   16   40 1
  30   17   18 ar
  31   17   41 1
  32   18   42 1
  33   19   29 ar
  34   19   33 ar
  35   20   21 1
  36   20   43 1
  37   20   44 1
  38   21   22 1
  39   21   45 1
  40   21   46 1
  41   23   24 1
  42   23   47 1
  43   23   48 1
  44   24   25 1
  45   24   28 1
  46   24   49 1
  47   25   26 1
  48   25   50 1
  49   25   51 1
  50   26   27 1
  51   26   52 1
  52   26   53 1
  53   27   28 1
  54   27   54 1
  55   27   55 1
  56   29   30 ar
  57   29   56 1
  58   30   31 ar
  59   30   57 1
  60   31   32 ar
  61   31   34 1
  62   32   33 ar
  63   32   58 1
  64   33   59 1
  65   34   35 1
  66   35   60 1
  67   35   61 1
  68   35   62 1

#	End of record

