#	Name: ASD01100035
#	Creating user name:	WinNT
#	Creation time:	15. 06. 2019 18:58

#	Modifying user name:	WinNT
#	Modification time:	15. 06. 2019 18:58

#	Program:	/corina/corina34_cracker 3.40 0067  02.08.2006

@<TRIPOS>MOLECULE
ASD01100035
  36   37    0    0    0
SMALL
NO_CHARGES


@<TRIPOS>ATOM
   1 C1             0.1624     1.2940    -0.9226 C.ar    
   2 C2             0.2407    -0.0856    -0.9928 C.ar    
   3 C3             1.4418    -0.7236    -0.7391 C.ar    
   4 C4             2.5628     0.0175    -0.4158 C.ar    
   5 C5             2.4840     1.3959    -0.3458 C.ar    
   6 C6             1.2841     2.0339    -0.5991 C.ar    
   7 C7             3.7065     2.2032     0.0074 C.3     
   8 C8             3.4373     3.0052     1.2822 C.3     
   9 C9             3.2215     2.0444     2.4532 C.3     
  10 C10            4.6355     3.9094     1.5785 C.3     
  11 Cl11          -1.1679    -1.0157    -1.3984 Cl      
  12 C12            4.0281     3.1478    -1.1219 C.2     
  13 N13            5.1803     3.8470    -1.1083 N.am    
  14 O14            3.2503     3.2789    -2.0428 O.2     
  15 C15            5.4388     4.7727    -2.1017 C.2     
  16 N16            6.5003     5.4887    -2.1824 N.2     
  17 C17            6.6561     6.4258    -3.2725 C.3     
  18 C18            5.4377     6.3977    -4.2087 C.3     
  19 S19            4.3589     5.1390    -3.4523 S.3     
  20 H20           -0.7739     1.7928    -1.1248 H       
  21 H21            1.5034    -1.8004    -0.7934 H       
  22 H22            3.5004    -0.4805    -0.2174 H       
  23 H23            1.2231     3.1108    -0.5443 H       
  24 H24            4.5499     1.5325     0.1714 H       
  25 H25            2.5456     3.6170     1.1451 H       
  26 H26            4.1132     1.4327     2.5903 H       
  27 H27            3.0297     2.6158     3.3614 H       
  28 H28            2.3679     1.4003     2.2421 H       
  29 H29            4.8522     4.5234     0.7044 H       
  30 H30            4.4036     4.5536     2.4266 H       
  31 H31            5.5042     3.2952     1.8155 H       
  32 H32            5.8281     3.7005    -0.4014 H       
  33 H33            6.7715     7.4306    -2.8662 H       
  34 H34            7.5495     6.1674    -3.8409 H       
  35 H35            4.9454     7.3700    -4.2285 H       
  36 H36            5.7315     6.0936    -5.2133 H       
@<TRIPOS>BOND
   1    1    2 ar
   2    1    6 ar
   3    1   20 1
   4    2    3 ar
   5    2   11 1
   6    3    4 ar
   7    3   21 1
   8    4    5 ar
   9    4   22 1
  10    5    6 ar
  11    5    7 1
  12    6   23 1
  13    7    8 1
  14    7   12 1
  15    7   24 1
  16    8    9 1
  17    8   10 1
  18    8   25 1
  19    9   26 1
  20    9   27 1
  21    9   28 1
  22   10   29 1
  23   10   30 1
  24   10   31 1
  25   12   13 am
  26   12   14 2
  27   13   15 1
  28   13   32 1
  29   15   16 2
  30   15   19 1
  31   16   17 1
  32   17   18 1
  33   17   33 1
  34   17   34 1
  35   18   19 1
  36   18   35 1
  37   18   36 1

#	End of record

