#	Name: ASD03910067
#	Creating user name:	WinNT
#	Creation time:	15. 06. 2019 20:47

#	Modifying user name:	WinNT
#	Modification time:	15. 06. 2019 20:47

#	Program:	/corina/corina34_cracker 3.40 0067  02.08.2006

@<TRIPOS>MOLECULE
ASD03910067
  66   69    0    0    0
SMALL
NO_CHARGES


@<TRIPOS>ATOM
   1 C1             1.5657     2.3455     2.3946 C.ar    
   2 C2             1.8047     1.3064     3.2752 C.ar    
   3 C3             0.7486     0.6691     3.9003 C.ar    
   4 C4            -0.5489     1.0686     3.6463 C.ar    
   5 C5            -0.7922     2.1118     2.7625 C.ar    
   6 C6             0.2709     2.7538     2.1411 C.ar    
   7 N7            -2.1056     2.5189     2.5030 N.am    
   8 C8            -2.3733     3.8177     2.2621 C.2     
   9 O9            -1.4946     4.6473     2.3651 O.2     
  10 C10           -3.7969     5.7311     1.6554 C.ar    
  11 C11           -3.5294     6.2586     0.4056 C.ar    
  12 C12           -3.5641     7.6257     0.2098 C.ar    
  13 C13           -3.8676     8.4694     1.2684 C.ar    
  14 C14           -4.1356     7.9377     2.5214 C.ar    
  15 C15           -4.0997     6.5699     2.7121 C.ar    
  16 O16           -3.9019     9.8146     1.0783 O.3     
  17 C17           -4.3313    10.6150     2.1815 C.3     
  18 C18           -5.7122    10.1961     2.6160 C.2     
  19 C19            2.7197     3.0372     1.7157 C.3     
  20 C20            1.0136    -0.4628     4.8592 C.3     
  21 O21           -6.0189    10.2417     3.7885 O.2     
  22 N22           -6.6063     9.7708     1.7016 N.am    
  23 C23           -3.7646     4.2391     1.8648 C.3     
  24 C24           -3.3439    10.4712     3.3529 C.3     
  25 C25           -2.7776    11.8797     3.6272 C.3     
  26 C26           -3.8554    12.8389     3.0639 C.3     
  27 C27           -4.3317    12.1056     1.7845 C.3     
  28 C28           -9.3348    10.4349     1.0699 C.3     
  29 C29           -8.8734     8.9714     0.9687 C.3     
  30 C30           -7.9157     9.2751     2.1329 C.3     
  31 C31           -7.8160     8.1581     3.1396 C.2     
  32 O32           -6.7190     8.0394     3.9039 O.3     
  33 O33           -8.7235     7.3693     3.2587 O.2     
  34 C34           -8.8924    10.3902     2.5420 C.3     
  35 H35            2.8183     0.9917     3.4749 H       
  36 H36           -1.3733     0.5700     4.1342 H       
  37 H37            0.0850     3.5656     1.4535 H       
  38 H38           -2.8233     1.8665     2.4965 H       
  39 H39           -3.2928     5.6014    -0.4180 H       
  40 H40           -3.3547     8.0373    -0.7665 H       
  41 H41           -4.3718     8.5925     3.3471 H       
  42 H42           -4.3083     6.1555     3.6873 H       
  43 H43            2.9430     2.5332     0.7754 H       
  44 H44            2.4549     4.0757     1.5173 H       
  45 H45            3.5958     3.0029     2.3633 H       
  46 H46            1.1324    -0.0649     5.8670 H       
  47 H47            0.1752    -1.1591     4.8399 H       
  48 H48            1.9249    -0.9831     4.5642 H       
  49 H49           -6.3829     9.7930     0.7580 H       
  50 H50           -4.0462     3.7362     0.9397 H       
  51 H51           -4.4657     3.9676     2.6539 H       
  52 H52           -3.8637    10.0993     4.2359 H       
  53 H53           -2.5372     9.7910     3.0799 H       
  54 H54           -2.6488    12.0372     4.6981 H       
  55 H55           -1.8317    12.0191     3.1037 H       
  56 H56           -4.6771    12.9544     3.7707 H       
  57 H57           -3.4195    13.8064     2.8152 H       
  58 H58           -3.6370    12.2813     0.9631 H       
  59 H59           -5.3363    12.4286     1.5114 H       
  60 H60           -8.7485    11.1208     0.4584 H       
  61 H61          -10.4094    10.5639     0.9406 H       
  62 H62           -9.6511     8.2501     1.2198 H       
  63 H63           -8.3640     8.7379     0.0338 H       
  64 H64           -6.7009     7.3072     4.5353 H       
  65 H65           -8.3983    11.3021     2.8773 H       
  66 H66           -9.6752    10.0568     3.2233 H       
@<TRIPOS>BOND
   1    1    2 ar
   2    1   19 1
   3    1    6 ar
   4    2    3 ar
   5    2   35 1
   6    3    4 ar
   7    3   20 1
   8    4    5 ar
   9    4   36 1
  10    5    6 ar
  11    5    7 1
  12    6   37 1
  13    7    8 am
  14    7   38 1
  15    8    9 2
  16    8   23 1
  17   10   11 ar
  18   10   15 ar
  19   10   23 1
  20   11   12 ar
  21   11   39 1
  22   12   13 ar
  23   12   40 1
  24   13   14 ar
  25   13   16 1
  26   14   15 ar
  27   14   41 1
  28   15   42 1
  29   16   17 1
  30   17   18 1
  31   17   24 1
  32   17   27 1
  33   18   21 2
  34   18   22 am
  35   19   43 1
  36   19   44 1
  37   19   45 1
  38   20   46 1
  39   20   47 1
  40   20   48 1
  41   22   30 1
  42   22   49 1
  43   23   50 1
  44   23   51 1
  45   24   25 1
  46   24   52 1
  47   24   53 1
  48   25   26 1
  49   25   54 1
  50   25   55 1
  51   26   27 1
  52   26   56 1
  53   26   57 1
  54   27   58 1
  55   27   59 1
  56   28   29 1
  57   28   34 1
  58   28   60 1
  59   28   61 1
  60   29   30 1
  61   29   62 1
  62   29   63 1
  63   30   31 1
  64   30   34 1
  65   31   32 1
  66   31   33 2
  67   32   64 1
  68   34   65 1
  69   34   66 1

#	End of record

