#	Name: ASD01208722
#	Creating user name:	WinNT
#	Creation time:	15. 06. 2019 19:10

#	Modifying user name:	WinNT
#	Modification time:	15. 06. 2019 19:10

#	Program:	/corina/corina34_cracker 3.40 0067  02.08.2006

@<TRIPOS>MOLECULE
ASD01208722
  55   58    0    0    0
SMALL
NO_CHARGES


@<TRIPOS>ATOM
   1 C1             0.1635     1.3078    -0.1906 C.2     
   2 C2             0.1928    -0.1075     0.2150 C.ar    
   3 C3             1.3809    -0.8474     0.1065 C.ar    
   4 C4             1.3996    -2.1771     0.4905 C.ar    
   5 C5             0.2474    -2.7745     0.9805 C.ar    
   6 C6            -0.9311    -2.0426     1.0882 C.ar    
   7 C7            -0.9611    -0.7185     0.7153 C.ar    
   8 O8             1.1701     1.8381    -0.6207 O.2     
   9 N9            -0.9800     2.0139    -0.0904 N.am    
  10 O10            2.5063    -0.2615    -0.3734 O.3     
  11 C11            3.6179    -1.0303    -0.5076 C.ar    
  12 C12            3.7264    -1.9106    -1.5767 C.ar    
  13 C13            4.8525    -2.6926    -1.7160 C.ar    
  14 C14            5.8854    -2.5990    -0.7811 C.ar    
  15 C15            5.7728    -1.7126     0.2918 C.ar    
  16 C16            4.6458    -0.9301     0.4215 C.ar    
  17 O17            8.1621    -3.4489    -0.1037 O.3     
  18 C18            7.0943    -3.4361    -0.9266 C.2     
  19 N19            7.3289    -4.3061    -1.8814 N.2     
  20 N20            8.4792    -4.8488    -1.6875 N.2     
  21 C21            9.0200    -4.3514    -0.6108 C.2     
  22 C22           10.3642    -4.7208    -0.0382 C.3     
  23 O23            0.2697    -4.0785     1.3560 O.3     
  24 C24           -0.9154    -6.1783     1.5207 C.3     
  25 C25           -0.9762    -4.6650     1.7379 C.3     
  26 C26           -1.2462    -4.3722     3.2151 C.3     
  27 O27            0.0559    -6.7472     2.4011 O.3     
  28 C28            0.1923    -8.1643     2.2783 C.3     
  29 S29           -2.3844     4.3605    -0.3995 S.3     
  30 C30           -1.0077     3.3494    -0.4731 C.2     
  31 N31            0.0065     4.0096    -0.9369 N.2     
  32 C32           -0.1977     5.2759    -1.2515 C.2     
  33 C33           -1.4450     5.7048    -1.0428 C.2     
  34 Cl34          -2.0373     7.3072    -1.3515 Cl      
  35 H35            2.3115    -2.7499     0.4082 H       
  36 H36           -1.8244    -2.5144     1.4699 H       
  37 H37           -1.8766    -0.1526     0.8050 H       
  38 H38           -1.7838     1.5899     0.2488 H       
  39 H39            2.9271    -1.9824    -2.2994 H       
  40 H40            4.9359    -3.3773    -2.5471 H       
  41 H41            6.5696    -1.6374     1.0170 H       
  42 H42            4.5598    -0.2411     1.2487 H       
  43 H43           10.2458    -5.5468     0.6630 H       
  44 H44           11.0325    -5.0219    -0.8449 H       
  45 H45           10.7865    -3.8607     0.4815 H       
  46 H46           -1.8927    -6.6146     1.7272 H       
  47 H47           -0.6356    -6.3862     0.4880 H       
  48 H48           -1.7775    -4.2429     1.1314 H       
  49 H49           -1.2895    -3.2941     3.3698 H       
  50 H50           -2.1965    -4.8196     3.5064 H       
  51 H51           -0.4448    -4.7944     3.8215 H       
  52 H52            0.9479    -8.5187     2.9794 H       
  53 H53           -0.7620    -8.6418     2.5005 H       
  54 H54            0.4951    -8.4134     1.2613 H       
  55 H55            0.5807     5.9128    -1.6451 H       
@<TRIPOS>BOND
   1    1    2 1
   2    1    8 2
   3    1    9 am
   4    2    3 ar
   5    2    7 ar
   6    3    4 ar
   7    3   10 1
   8    4    5 ar
   9    4   35 1
  10    5    6 ar
  11    5   23 1
  12    6    7 ar
  13    6   36 1
  14    7   37 1
  15    9   30 1
  16    9   38 1
  17   10   11 1
  18   11   12 ar
  19   11   16 ar
  20   12   13 ar
  21   12   39 1
  22   13   14 ar
  23   13   40 1
  24   14   15 ar
  25   14   18 1
  26   15   16 ar
  27   15   41 1
  28   16   42 1
  29   17   18 1
  30   17   21 1
  31   18   19 2
  32   19   20 1
  33   20   21 2
  34   21   22 1
  35   22   43 1
  36   22   44 1
  37   22   45 1
  38   23   25 1
  39   24   25 1
  40   24   27 1
  41   24   46 1
  42   24   47 1
  43   25   26 1
  44   25   48 1
  45   26   49 1
  46   26   50 1
  47   26   51 1
  48   27   28 1
  49   28   52 1
  50   28   53 1
  51   28   54 1
  52   29   30 1
  53   29   33 1
  54   30   31 2
  55   31   32 1
  56   32   33 2
  57   32   55 1
  58   33   34 1

#	End of record

