#	Name: ASD02590034
#	Creating user name:	WinNT
#	Creation time:	15. 06. 2019 20:25

#	Modifying user name:	WinNT
#	Modification time:	15. 06. 2019 20:25

#	Program:	/corina/corina34_cracker 3.40 0067  02.08.2006

@<TRIPOS>MOLECULE
ASD02590034
  37   40    0    0    0
SMALL
NO_CHARGES


@<TRIPOS>ATOM
   1 C1            -0.0168     1.3855     0.0097 C.ar    
   2 C2             0.0021    -0.0041     0.0020 C.ar    
   3 C3            -1.1886    -0.7214     0.0091 C.ar    
   4 C4            -2.4086    -0.0379     0.0244 C.ar    
   5 C5            -2.4247     1.3672     0.0326 C.ar    
   6 C6            -1.2152     2.0717     0.0305 C.ar    
   7 N7            -3.7286    -0.4390     0.0345 N.pl3   
   8 C8            -4.4959     0.6940     0.0481 C.2     
   9 N9            -3.7235     1.7521     0.0469 N.2     
  10 C10           -5.9755     0.7200     0.0614 C.ar    
  11 C11           -6.6455     1.9425     0.0747 C.ar    
  12 C12           -8.0301     1.9505     0.0865 C.ar    
  13 C13           -8.6993     0.7355     0.0846 C.ar    
  14 C14           -7.9706    -0.4412     0.0711 C.ar    
  15 N15           -6.6545    -0.4212     0.0549 N.ar    
  16 C16           -1.1652    -2.2041    -0.0001 C.ar    
  17 C17           -1.9166    -2.9299     0.9222 C.ar    
  18 N18           -1.8963    -4.2471     0.9152 N.ar    
  19 C19           -1.1739    -4.9275     0.0464 C.ar    
  20 C20           -0.4011    -4.2803    -0.9007 C.ar    
  21 C21           -0.3935    -2.8968    -0.9379 C.ar    
  22 O22            1.1549     2.0755     0.0022 O.3     
  23 C23            1.0679     3.5018     0.0107 C.3     
  24 F24            0.3921     3.9210     1.1617 F       
  25 F25            2.3559     4.0477     0.0013 F       
  26 F26            0.3703     3.9332    -1.1227 F       
  27 H27            0.9459    -0.5289    -0.0098 H       
  28 H28           -1.2192     3.1516     0.0371 H       
  29 H29           -4.0524    -1.3533     0.0320 H       
  30 H30           -6.0924     2.8701     0.0761 H       
  31 H31           -8.5768     2.8818     0.0973 H       
  32 H32           -9.7789     0.7079     0.0940 H       
  33 H33           -8.4889    -1.3887     0.0696 H       
  34 H34           -2.5208    -2.4078     1.6494 H       
  35 H35           -1.1856    -6.0071     0.0753 H       
  36 H36            0.1865    -4.8484    -1.6066 H       
  37 H37            0.2004    -2.3656    -1.6670 H       
@<TRIPOS>BOND
   1    1    2 ar
   2    1   22 1
   3    1    6 ar
   4    2    3 ar
   5    2   27 1
   6    3    4 ar
   7    3   16 1
   8    4    5 ar
   9    4    7 1
  10    5    6 ar
  11    5    9 1
  12    6   28 1
  13    7    8 1
  14    7   29 1
  15    8    9 2
  16    8   10 1
  17   10   11 ar
  18   10   15 ar
  19   11   12 ar
  20   11   30 1
  21   12   13 ar
  22   12   31 1
  23   13   14 ar
  24   13   32 1
  25   14   15 ar
  26   14   33 1
  27   16   17 ar
  28   16   21 ar
  29   17   18 ar
  30   17   34 1
  31   18   19 ar
  32   19   20 ar
  33   19   35 1
  34   20   21 ar
  35   20   36 1
  36   21   37 1
  37   22   23 1
  38   23   24 1
  39   23   25 1
  40   23   26 1

#	End of record

