#	Name: ASD03090900
#	Creating user name:	WinNT
#	Creation time:	15. 06. 2019 20:29

#	Modifying user name:	WinNT
#	Modification time:	15. 06. 2019 20:29

#	Program:	/corina/corina34_cracker 3.40 0067  02.08.2006

@<TRIPOS>MOLECULE
ASD03090900
  51   54    0    0    0
SMALL
NO_CHARGES


@<TRIPOS>ATOM
   1 N1            -0.0175     1.3432    -0.0860 N.am    
   2 C2             0.0012    -0.0044    -0.0679 C.2     
   3 O3             1.0649    -0.5993    -0.0775 O.2     
   4 N4            -1.1464    -0.6880    -0.0394 N.2     
   5 S5             0.2595    -3.0387    -0.0302 S.3     
   6 C6            -1.1280    -2.0187    -0.0215 C.2     
   7 N7            -2.1987    -2.8518     0.0077 N.pl3   
   8 C8            -1.9391    -4.1884     0.0221 C.2     
   9 C9            -0.6633    -4.5510     0.0062 C.2     
  10 O10           -7.3741    -0.8848     0.0781 O.3     
  11 C11           -8.4123    -1.7492    -0.3960 C.3     
  12 C12           -8.2087    -3.1342     0.2329 C.3     
  13 O13           -6.9212    -3.6205    -0.1616 O.3     
  14 C14           -5.8806    -2.7488    -0.0610 C.ar    
  15 C15           -6.1064    -1.3819     0.0568 C.ar    
  16 C16           -4.5831    -3.2357    -0.0763 C.ar    
  17 C17           -3.5113    -2.3592     0.0230 C.ar    
  18 C18           -3.7397    -0.9950     0.1377 C.ar    
  19 C19           -5.0330    -0.5092     0.1545 C.ar    
  20 F20           -8.2679    -3.0328     1.6270 F       
  21 F21           -9.2025    -4.0087    -0.2198 F       
  22 F22           -9.6595    -1.2390    -0.0199 F       
  23 F23           -8.3434    -1.8491    -1.7897 F       
  24 C24           -0.1141    -5.9542     0.0171 C.3     
  25 C25            1.2409     2.0928    -0.1173 C.3     
  26 C26            1.6486     2.3304    -1.5485 C.ar    
  27 C27            1.3061     3.5175    -2.1683 C.ar    
  28 C28            1.6864     3.7263    -3.4849 C.ar    
  29 C29            2.4003     2.7288    -4.1319 C.ar    
  30 C30            2.7066     1.5681    -3.4475 C.ar    
  31 N31            2.3326     1.4057    -2.1933 N.ar    
  32 C32            3.4819     0.4774    -4.1407 C.3     
  33 C33           -1.2961     2.0582    -0.0806 C.3     
  34 H34           -2.7344    -4.9188     0.0454 H       
  35 H35           -4.4058    -4.2972    -0.1662 H       
  36 H36           -2.9060    -0.3127     0.2139 H       
  37 H37           -5.2085     0.5527     0.2435 H       
  38 H38            0.9752    -5.9182    -0.0005 H       
  39 H39           -0.4460    -6.4673     0.9197 H       
  40 H40           -0.4741    -6.4922    -0.8598 H       
  41 H41            1.1060     3.0502     0.3858 H       
  42 H42            2.0170     1.5211     0.3915 H       
  43 H43            0.7490     4.2726    -1.6337 H       
  44 H44            1.4325     4.6439    -3.9948 H       
  45 H45            2.7125     2.8574    -5.1577 H       
  46 H46            4.5492     0.6362    -3.9866 H       
  47 H47            3.1953    -0.4902    -3.7287 H       
  48 H48            3.2620     0.4974    -5.2081 H       
  49 H49           -1.6010     2.2495     0.9483 H       
  50 H50           -1.1850     3.0052    -0.6087 H       
  51 H51           -2.0536     1.4519    -0.5772 H       
@<TRIPOS>BOND
   1    1    2 am
   2    1   25 1
   3    1   33 1
   4    2    3 2
   5    2    4 1
   6    4    6 2
   7    5    6 1
   8    5    9 1
   9    6    7 1
  10    7    8 1
  11    7   17 1
  12    8    9 2
  13    8   34 1
  14    9   24 1
  15   10   11 1
  16   10   15 1
  17   11   12 1
  18   11   22 1
  19   11   23 1
  20   12   13 1
  21   12   20 1
  22   12   21 1
  23   13   14 1
  24   14   15 ar
  25   14   16 ar
  26   15   19 ar
  27   16   17 ar
  28   16   35 1
  29   17   18 ar
  30   18   19 ar
  31   18   36 1
  32   19   37 1
  33   24   38 1
  34   24   39 1
  35   24   40 1
  36   25   26 1
  37   25   41 1
  38   25   42 1
  39   26   27 ar
  40   26   31 ar
  41   27   28 ar
  42   27   43 1
  43   28   29 ar
  44   28   44 1
  45   29   30 ar
  46   29   45 1
  47   30   31 ar
  48   30   32 1
  49   32   46 1
  50   32   47 1
  51   32   48 1
  52   33   49 1
  53   33   50 1
  54   33   51 1

#	End of record

