#	Name: ASD01152476
#	Creating user name:	WinNT
#	Creation time:	15. 06. 2019 19:05

#	Modifying user name:	WinNT
#	Modification time:	15. 06. 2019 19:05

#	Program:	/corina/corina34_cracker 3.40 0067  02.08.2006

@<TRIPOS>MOLECULE
ASD01152476
  58   61    0    0    0
SMALL
NO_CHARGES


@<TRIPOS>ATOM
   1 C1            -0.3501     1.3556    -0.0017 C.2     
   2 N2            -0.3387     0.0564    -0.1371 N.2     
   3 N3            -1.3669    -0.7401     0.3665 N.am    
   4 C4            -2.5198    -0.2264     0.8263 C.2     
   5 C5            -2.7983     1.2530     0.7015 C.3     
   6 C6            -1.4653     1.9778     0.7282 C.2     
   7 C7            -3.5205     1.5349    -0.6175 C.3     
   8 O8            -1.3288     3.0284     1.3206 O.2     
   9 C9            -1.1908    -2.1281     0.3935 C.ar    
  10 O10           -3.3409    -0.9537     1.3434 O.2     
  11 C11           -3.9036     2.9910    -0.6793 C.ar    
  12 C12           -2.1830    -2.9638    -0.0989 C.ar    
  13 C13           -0.0196    -2.6708     0.9084 C.ar    
  14 C14            0.1550    -4.0408     0.9349 C.ar    
  15 C15           -0.8335    -4.8759     0.4500 C.ar    
  16 C16           -2.0045    -4.3396    -0.0703 C.ar    
  17 C17           -3.0295     3.9116    -1.2279 C.ar    
  18 C18           -5.1306     3.4026    -0.1926 C.ar    
  19 C19           -5.4863     4.7364    -0.2480 C.ar    
  20 C20           -4.6102     5.6652    -0.7929 C.ar    
  21 C21           -3.3785     5.2483    -1.2863 C.ar    
  22 N22           -4.9674     7.0161    -0.8504 N.3     
  23 F23           -2.5224     6.1486    -1.8171 F       
  24 C24           -6.1906     7.2055    -1.6516 C.3     
  25 C25           -7.2196     7.9224    -0.7525 C.3     
  26 C26           -6.3307     8.6058     0.3198 C.3     
  27 C27           -5.2029     7.5600     0.5040 C.3     
  28 O28            0.6502     2.1158    -0.5193 O.3     
  29 C29            1.6972     1.4289    -1.2079 C.3     
  30 N30           -3.0026    -5.1858    -0.5659 N.am    
  31 C31           -3.2337    -6.3743     0.0262 C.2     
  32 O32           -2.5218    -6.7480     0.9343 O.2     
  33 C33           -4.3766    -7.2389    -0.4400 C.3     
  34 H34           -3.4134     1.5846     1.5381 H       
  35 H35           -2.8599     1.2973    -1.4514 H       
  36 H36           -4.4184     0.9200    -0.6787 H       
  37 H37           -3.0924    -2.5444    -0.5033 H       
  38 H38            0.7550    -2.0208     1.2878 H       
  39 H39            1.0662    -4.4601     1.3352 H       
  40 H40           -0.6937    -5.9466     0.4719 H       
  41 H41           -2.0734     3.5863    -1.6106 H       
  42 H42           -5.8123     2.6801     0.2314 H       
  43 H43           -6.4454     5.0562     0.1319 H       
  44 H44           -5.9704     7.8190    -2.5252 H       
  45 H45           -6.5824     6.2377    -1.9647 H       
  46 H46           -7.7770     8.6662    -1.3220 H       
  47 H47           -7.8957     7.2028    -0.2909 H       
  48 H48           -5.9308     9.5504    -0.0488 H       
  49 H49           -6.8823     8.7528     1.2483 H       
  50 H50           -5.5262     6.7683     1.1799 H       
  51 H51           -4.2999     8.0384     0.8831 H       
  52 H52            2.4288     2.1512    -1.5700 H       
  53 H53            2.1828     0.7302    -0.5266 H       
  54 H54            1.2785     0.8813    -2.0523 H       
  55 H55           -3.5282    -4.9171    -1.3355 H       
  56 H56           -4.0293    -7.9056    -1.2293 H       
  57 H57           -4.7500    -7.8296     0.3964 H       
  58 H58           -5.1770    -6.6067    -0.8245 H       
@<TRIPOS>BOND
   1    1    2 2
   2    1   28 1
   3    1    6 1
   4    2    3 1
   5    3    4 am
   6    3    9 1
   7    4    5 1
   8    4   10 2
   9    5    6 1
  10    5    7 1
  11    5   34 1
  12    6    8 2
  13    7   11 1
  14    7   35 1
  15    7   36 1
  16    9   12 ar
  17    9   13 ar
  18   11   17 ar
  19   11   18 ar
  20   12   16 ar
  21   12   37 1
  22   13   14 ar
  23   13   38 1
  24   14   15 ar
  25   14   39 1
  26   15   16 ar
  27   15   40 1
  28   16   30 1
  29   17   21 ar
  30   17   41 1
  31   18   19 ar
  32   18   42 1
  33   19   20 ar
  34   19   43 1
  35   20   21 ar
  36   20   22 1
  37   21   23 1
  38   22   24 1
  39   22   27 1
  40   24   25 1
  41   24   44 1
  42   24   45 1
  43   25   26 1
  44   25   46 1
  45   25   47 1
  46   26   27 1
  47   26   48 1
  48   26   49 1
  49   27   50 1
  50   27   51 1
  51   28   29 1
  52   29   52 1
  53   29   53 1
  54   29   54 1
  55   30   31 am
  56   30   55 1
  57   31   32 2
  58   31   33 1
  59   33   56 1
  60   33   57 1
  61   33   58 1

#	End of record

