#	Name: ASD01320051
#	Creating user name:	WinNT
#	Creation time:	15. 06. 2019 19:15

#	Modifying user name:	WinNT
#	Modification time:	15. 06. 2019 19:15

#	Program:	/corina/corina34_cracker 3.40 0067  02.08.2006

@<TRIPOS>MOLECULE
ASD01320051
  58   61    0    0    0
SMALL
NO_CHARGES


@<TRIPOS>ATOM
   1 N1            -0.0162     1.3436     0.0094 N.am    
   2 C2             0.0021    -0.0041     0.0020 C.2     
   3 O3             1.0637    -0.5979    -0.0113 O.2     
   4 N4            -2.5253    -0.1994     0.0251 N.pl3   
   5 C5            -1.2613    -0.7566     0.0100 C.2     
   6 C6            -1.3716    -2.1108     0.0033 C.2     
   7 C7            -2.7506    -2.4313     0.0145 C.ar    
   8 C8            -3.4572    -3.6412     0.0146 C.ar    
   9 C9            -4.8224    -3.6302     0.0279 C.ar    
  10 C10           -5.5202    -2.4276     0.0409 C.ar    
  11 C11           -4.8478    -1.2264     0.0410 C.ar    
  12 C12           -3.4557    -1.2121     0.0281 C.ar    
  13 Cl13          -5.6949    -5.1310     0.0281 Cl      
  14 C14            1.2424     2.0932     0.0014 C.3     
  15 C15            0.9425     3.5935     0.0124 C.3     
  16 O16            0.3025     3.9424     1.2415 O.3     
  17 C17           -0.0226     5.3293     1.3543 C.3     
  18 C18           -0.6997     5.5865     2.7020 C.3     
  19 O19            0.2278     5.3285     3.7580 O.3     
  20 C20           -0.3073     5.5396     5.0661 C.3     
  21 C21            0.7671     5.2349     6.1119 C.3     
  22 C22            7.1923     8.7032     7.3989 C.ar    
  23 C23            7.7243     9.7850     6.7599 C.ar    
  24 C24            7.0455    10.3911     5.7101 C.ar    
  25 C25            5.8236     9.9119     5.2947 C.ar    
  26 C26            5.2600     8.8091     5.9309 C.ar    
  27 C27            5.9501     8.1964     6.9950 C.ar    
  28 N28            4.0858     8.1172     5.7501 N.pl3   
  29 C29            4.0275     7.0910     6.6731 C.2     
  30 C30            5.1482     7.1181     7.4408 C.2     
  31 N31            1.8628     6.1985     5.9813 N.am    
  32 C32            2.9276     6.1237     6.8042 C.2     
  33 O33            2.9787     5.2562     7.6555 O.2     
  34 H34           -0.8627     1.8171     0.0160 H       
  35 H35           -2.7239     0.7500     0.0360 H       
  36 H36           -0.5539    -2.8163    -0.0087 H       
  37 H37           -2.9234    -4.5800     0.0039 H       
  38 H38           -6.6001    -2.4360     0.0506 H       
  39 H39           -5.3987    -0.2975     0.0512 H       
  40 H40            1.8260     1.8329     0.8845 H       
  41 H41            1.8090     1.8425    -0.8954 H       
  42 H42            1.8742     4.1510    -0.0831 H       
  43 H43            0.2852     3.8387    -0.8219 H       
  44 H44            0.8891     5.9229     1.2866 H       
  45 H45           -0.6999     5.6106     0.5479 H       
  46 H46           -1.0273     6.6249     2.7517 H       
  47 H47           -1.5620     4.9281     2.8068 H       
  48 H48           -0.6268     6.5770     5.1649 H       
  49 H49           -1.1615     4.8802     5.2200 H       
  50 H50            0.3345     5.3097     7.1096 H       
  51 H51            1.1497     4.2262     5.9565 H       
  52 H52            7.7294     8.2359     8.2110 H       
  53 H53            8.6818    10.1739     7.0734 H       
  54 H54            7.4805    11.2469     5.2152 H       
  55 H55            5.3035    10.3901     4.4778 H       
  56 H56            3.4093     8.3171     5.0844 H       
  57 H57            5.3851     6.4387     8.2462 H       
  58 H58            1.8221     6.8902     5.3025 H       
@<TRIPOS>BOND
   1    1    2 am
   2    1   14 1
   3    1   34 1
   4    2    3 2
   5    2    5 1
   6    4    5 1
   7    4   12 1
   8    4   35 1
   9    5    6 2
  10    6    7 1
  11    6   36 1
  12    7    8 ar
  13    7   12 ar
  14    8    9 ar
  15    8   37 1
  16    9   10 ar
  17    9   13 1
  18   10   11 ar
  19   10   38 1
  20   11   12 ar
  21   11   39 1
  22   14   15 1
  23   14   40 1
  24   14   41 1
  25   15   16 1
  26   15   42 1
  27   15   43 1
  28   16   17 1
  29   17   18 1
  30   17   44 1
  31   17   45 1
  32   18   19 1
  33   18   46 1
  34   18   47 1
  35   19   20 1
  36   20   21 1
  37   20   48 1
  38   20   49 1
  39   21   31 1
  40   21   50 1
  41   21   51 1
  42   22   23 ar
  43   22   27 ar
  44   22   52 1
  45   23   24 ar
  46   23   53 1
  47   24   25 ar
  48   24   54 1
  49   25   26 ar
  50   25   55 1
  51   26   27 ar
  52   26   28 1
  53   27   30 1
  54   28   29 1
  55   28   56 1
  56   29   30 2
  57   29   32 1
  58   30   57 1
  59   31   32 am
  60   31   58 1
  61   32   33 2

#	End of record

