#	Name: ASD02030305
#	Creating user name:	WinNT
#	Creation time:	15. 06. 2019 20:15

#	Modifying user name:	WinNT
#	Modification time:	15. 06. 2019 20:15

#	Program:	/corina/corina34_cracker 3.40 0067  02.08.2006

@<TRIPOS>MOLECULE
ASD02030305
  55   59    0    0    0
SMALL
NO_CHARGES


@<TRIPOS>ATOM
   1 N1            -0.0336     1.2445     0.3460 N.am    
   2 C2            -0.2589    -0.2076     0.3686 C.3     
   3 C3            -1.3004    -0.5252     1.4487 C.3     
   4 N4            -2.4534     0.3677     1.2663 N.am    
   5 C5            -2.2281     1.8198     1.2437 C.3     
   6 C6            -1.1873     2.1376     0.1692 C.3     
   7 C7             1.2080     1.7484     0.4904 C.2     
   8 C8             2.3394     0.8486     0.8000 C.2     
   9 N9             3.5684     1.2211     1.0859 N.2     
  10 N10            2.2923    -0.4955     0.8449 N.2     
  11 C11            3.4927    -0.9167     1.1520 C.2     
  12 N12            4.2801     0.1685     1.2997 N.pl3   
  13 C13            5.6423     0.1536     1.6290 C.ar    
  14 O14            1.3976     2.9426     0.3660 O.2     
  15 C15           -3.6951    -0.1361     1.1219 C.2     
  16 C16           -3.8933    -1.5902     1.0405 C.2     
  17 O17           -4.6518     0.6127     1.0590 O.2     
  18 C18            6.3415     1.3469     1.7512 C.ar    
  19 C19            7.6839     1.3289     2.0758 C.ar    
  20 C20            8.3314     0.1241     2.2791 C.ar    
  21 C21            7.6379    -1.0660     2.1576 C.ar    
  22 C22            6.2939    -1.0543     1.8393 C.ar    
  23 C23           -5.0725    -2.2039     0.7626 C.2     
  24 C24           -0.7371     3.5936     0.3051 C.3     
  25 C25           -4.7974    -3.6400     0.7869 C.ar    
  26 C26           -3.4284    -3.7614     1.0881 C.ar    
  27 O27           -2.9298    -2.5167     1.2250 O.3     
  28 C28           -5.5749    -4.7832     0.5843 C.ar    
  29 C29           -4.9923    -6.0281     0.6815 C.ar    
  30 C30           -3.6393    -6.1469     0.9797 C.ar    
  31 C31           -2.8622    -5.0275     1.1815 C.ar    
  32 F32           -5.7384    -7.1374     0.4867 F       
  33 C33           -6.3964    -1.5395     0.4853 C.3     
  34 H34           -0.6280    -0.5357    -0.6032 H       
  35 H35            0.6754    -0.7192     0.5996 H       
  36 H36           -1.6221    -1.5622     1.3530 H       
  37 H37           -0.8653    -0.3640     2.4350 H       
  38 H38           -3.1624     2.3314     1.0127 H       
  39 H39           -1.8591     2.1479     2.2155 H       
  40 H40           -1.6200     1.9765    -0.8182 H       
  41 H41            3.7971    -1.9464     1.2684 H       
  42 H42            5.8364     2.2881     1.5923 H       
  43 H43            8.2284     2.2567     2.1707 H       
  44 H44            9.3812     0.1126     2.5328 H       
  45 H45            8.1465    -2.0054     2.3162 H       
  46 H46            5.7528    -1.9842     1.7446 H       
  47 H47           -0.1978     3.7210     1.2437 H       
  48 H48           -0.0827     3.8507    -0.5278 H       
  49 H49           -1.6101     4.2462     0.2961 H       
  50 H50           -6.6260    -4.6917     0.3534 H       
  51 H51           -3.1929    -7.1275     1.0538 H       
  52 H52           -1.8125    -5.1337     1.4122 H       
  53 H53           -6.4929    -1.3539    -0.5844 H       
  54 H54           -7.2059    -2.1905     0.8156 H       
  55 H55           -6.4481    -0.5934     1.0243 H       
@<TRIPOS>BOND
   1    1    2 1
   2    1    7 am
   3    1    6 1
   4    2    3 1
   5    2   34 1
   6    2   35 1
   7    3    4 1
   8    3   36 1
   9    3   37 1
  10    4    5 1
  11    4   15 am
  12    5    6 1
  13    5   38 1
  14    5   39 1
  15    6   24 1
  16    6   40 1
  17    7    8 1
  18    7   14 2
  19    8    9 2
  20    8   10 1
  21    9   12 1
  22   10   11 2
  23   11   12 1
  24   11   41 1
  25   12   13 1
  26   13   18 ar
  27   13   22 ar
  28   15   16 1
  29   15   17 2
  30   16   23 2
  31   16   27 1
  32   18   19 ar
  33   18   42 1
  34   19   20 ar
  35   19   43 1
  36   20   21 ar
  37   20   44 1
  38   21   22 ar
  39   21   45 1
  40   22   46 1
  41   23   25 1
  42   23   33 1
  43   24   47 1
  44   24   48 1
  45   24   49 1
  46   25   26 ar
  47   25   28 ar
  48   26   27 1
  49   26   31 ar
  50   28   29 ar
  51   28   50 1
  52   29   30 ar
  53   29   32 1
  54   30   31 ar
  55   30   51 1
  56   31   52 1
  57   33   53 1
  58   33   54 1
  59   33   55 1

#	End of record

