#	Name: ASD01883119
#	Creating user name:	WinNT
#	Creation time:	15. 06. 2019 19:45

#	Modifying user name:	WinNT
#	Modification time:	15. 06. 2019 19:45

#	Program:	/corina/corina34_cracker 3.40 0067  02.08.2006

@<TRIPOS>MOLECULE
ASD01883119
  58   61    0    0    0
SMALL
NO_CHARGES


@<TRIPOS>ATOM
   1 N1            -0.0676     1.2329     1.3318 N.am    
   2 C2            -0.0480     0.0627     0.6673 C.2     
   3 C3            -1.2575    -0.6362     0.4310 C.2     
   4 C4            -2.4605    -0.0817     0.9028 C.2     
   5 C5            -2.4148     1.1465     1.5916 C.2     
   6 C6            -1.2292     1.7651     1.7916 C.2     
   7 O7             1.0094    -0.3952     0.2687 O.2     
   8 C8            -1.2550    -1.8822    -0.2747 C.1     
   9 N9            -1.2531    -2.8707    -0.8346 N.1     
  10 C10            1.1909     1.9442     1.5693 C.3     
  11 C11            1.4656     2.8975     0.4045 C.3     
  12 C12            2.7799     3.6404     0.6525 C.3     
  13 C13            3.0546     4.5937    -0.5123 C.3     
  14 C14           -3.7472    -0.7733     0.6803 C.ar    
  15 C15           -4.4770    -1.2614     1.7669 C.ar    
  16 C16           -5.6763    -1.9051     1.5554 C.ar    
  17 C17           -6.1602    -2.0696     0.2629 C.ar    
  18 C18           -5.4368    -1.5858    -0.8207 C.ar    
  19 C19           -4.2398    -0.9356    -0.6169 C.ar    
  20 O20           -7.3423    -2.7050     0.0584 O.3     
  21 C21           -8.4771    -1.9603     0.0737 C.ar    
  22 C22           -8.4184    -0.5713     0.1855 C.ar    
  23 C23           -9.5908     0.1536     0.1973 C.ar    
  24 N24          -10.7619    -0.4489     0.1045 N.ar    
  25 C25          -10.8622    -1.7658    -0.0032 C.ar    
  26 C26           -9.7253    -2.5628    -0.0274 C.ar    
  27 N27          -12.1180    -2.3550    -0.0977 N.3     
  28 C28          -13.1805    -1.3398    -0.0583 C.3     
  29 C29          -14.5396    -2.0246    -0.2249 C.3     
  30 O30          -14.6977    -3.0137     0.7959 O.3     
  31 C31          -13.6802    -4.0186     0.7863 C.3     
  32 C32          -12.3124    -3.3540     0.9632 C.3     
  33 H33           -3.3260     1.5918     1.9629 H       
  34 H34           -1.2065     2.7060     2.3212 H       
  35 H35            1.1170     2.5141     2.4955 H       
  36 H36            2.0055     1.2245     1.6496 H       
  37 H37            1.5395     2.3277    -0.5217 H       
  38 H38            0.6510     3.6173     0.3242 H       
  39 H39            2.7060     4.2103     1.5787 H       
  40 H40            3.5945     2.9207     0.7328 H       
  41 H41            2.2399     5.3135    -0.5925 H       
  42 H42            3.9909     5.1229    -0.3356 H       
  43 H43            3.1285     4.0238    -1.4385 H       
  44 H44           -4.1013    -1.1345     2.7714 H       
  45 H45           -6.2411    -2.2827     2.3949 H       
  46 H46           -5.8159    -1.7160    -1.8236 H       
  47 H47           -3.6784    -0.5596    -1.4595 H       
  48 H48           -7.4652    -0.0694     0.2623 H       
  49 H49           -9.5508     1.2294     0.2840 H       
  50 H50           -9.8102    -3.6359    -0.1152 H       
  51 H51          -13.1505    -0.8184     0.8984 H       
  52 H52          -13.0314    -0.6252    -0.8678 H       
  53 H53          -15.3338    -1.2829    -0.1392 H       
  54 H54          -14.5896    -2.5009    -1.2041 H       
  55 H55          -13.8529    -4.7192     1.6034 H       
  56 H56          -13.7052    -4.5529    -0.1634 H       
  57 H57          -11.5296    -4.1098     0.8994 H       
  58 H58          -12.2685    -2.8648     1.9363 H       
@<TRIPOS>BOND
   1    1    2 am
   2    1   10 1
   3    1    6 1
   4    2    3 1
   5    2    7 2
   6    3    4 2
   7    3    8 1
   8    4    5 1
   9    4   14 1
  10    5    6 2
  11    5   33 1
  12    6   34 1
  13    8    9 3
  14   10   11 1
  15   10   35 1
  16   10   36 1
  17   11   12 1
  18   11   37 1
  19   11   38 1
  20   12   13 1
  21   12   39 1
  22   12   40 1
  23   13   41 1
  24   13   42 1
  25   13   43 1
  26   14   15 ar
  27   14   19 ar
  28   15   16 ar
  29   15   44 1
  30   16   17 ar
  31   16   45 1
  32   17   18 ar
  33   17   20 1
  34   18   19 ar
  35   18   46 1
  36   19   47 1
  37   20   21 1
  38   21   22 ar
  39   21   26 ar
  40   22   23 ar
  41   22   48 1
  42   23   24 ar
  43   23   49 1
  44   24   25 ar
  45   25   26 ar
  46   25   27 1
  47   26   50 1
  48   27   28 1
  49   27   32 1
  50   28   29 1
  51   28   51 1
  52   28   52 1
  53   29   30 1
  54   29   53 1
  55   29   54 1
  56   30   31 1
  57   31   32 1
  58   31   55 1
  59   31   56 1
  60   32   57 1
  61   32   58 1

#	End of record

