#	Name: ASD01478107
#	Creating user name:	WinNT
#	Creation time:	15. 06. 2019 19:21

#	Modifying user name:	WinNT
#	Modification time:	15. 06. 2019 19:21

#	Program:	/corina/corina34_cracker 3.40 0067  02.08.2006

@<TRIPOS>MOLECULE
ASD01478107
  60   62    0    0    0
SMALL
NO_CHARGES


@<TRIPOS>ATOM
   1 C1            -0.1748     0.5721     1.7541 C.3     
   2 C2             0.3707    -0.5936     2.5975 C.3     
   3 C3             1.8546    -0.7610     2.2104 C.3     
   4 C4             2.2621     0.6276     1.6583 C.3     
   5 C5             0.9966     1.0723     0.8838 C.3     
   6 O6            -0.6331     1.6219     2.6084 O.3     
   7 O7             3.3812     0.5137     0.7770 O.3     
   8 Si8            4.5901     1.5595     1.1012 Si      
   9 C9             5.2146     1.2704     2.8378 C.ar    
  10 C10            6.4765     0.7433     3.0397 C.ar    
  11 C11            6.9387     0.5293     4.3248 C.ar    
  12 C12            6.1391     0.8428     5.4080 C.ar    
  13 C13            4.8776     1.3707     5.2061 C.ar    
  14 C14            4.4171     1.5888     3.9211 C.ar    
  15 C15            5.9842     1.2958    -0.1138 C.ar    
  16 C16            6.8907     0.2715     0.0859 C.ar    
  17 C17            7.9224     0.0764    -0.8132 C.ar    
  18 C18            8.0473     0.9054    -1.9124 C.ar    
  19 C19            7.1402     1.9291    -2.1126 C.ar    
  20 C20            6.1060     2.1215    -1.2158 C.ar    
  21 C21            3.9576     3.3055     0.9514 C.3     
  22 C22            3.0780     3.6347     2.1592 C.3     
  23 C23            5.1409     4.2741     0.9030 C.3     
  24 C24            3.1345     3.4414    -0.3311 C.3     
  25 O25            0.2595    -0.2854     3.9884 O.3     
  26 C26           -0.9608    -0.7279     4.5860 C.3     
  27 C27           -0.9708    -0.3464     6.0677 C.3     
  28 O28           -0.9830     1.0771     6.1930 O.3     
  29 H29           -0.9896     0.2242     1.1191 H       
  30 H30           -0.1794    -1.5071     2.3719 H       
  31 H31            2.4514    -1.0132     3.0869 H       
  32 H32            1.9642    -1.5248     1.4405 H       
  33 H33            2.4793     1.3186     2.4728 H       
  34 H34            0.9676     0.6046    -0.1003 H       
  35 H35            0.9673     2.1581     0.7923 H       
  36 H36           -0.9893     2.3866     2.1355 H       
  37 H37            7.1012     0.4984     2.1934 H       
  38 H38            7.9243     0.1168     4.4825 H       
  39 H39            6.4999     0.6749     6.4121 H       
  40 H40            4.2528     1.6153     6.0524 H       
  41 H41            3.4330     2.0046     3.7634 H       
  42 H42            6.7931    -0.3761     0.9447 H       
  43 H43            8.6310    -0.7234    -0.6567 H       
  44 H44            8.8537     0.7534    -2.6145 H       
  45 H45            7.2380     2.5769    -2.9712 H       
  46 H46            5.3952     2.9190    -1.3742 H       
  47 H47            3.6626     3.5312     3.0734 H       
  48 H48            2.7136     4.6585     2.0750 H       
  49 H49            2.2313     2.9489     2.1898 H       
  50 H50            5.7100     4.1072    -0.0115 H       
  51 H51            4.7719     5.2996     0.9191 H       
  52 H52            5.7839     4.1057     1.7669 H       
  53 H53            2.2338     2.8326    -0.2511 H       
  54 H54            2.8558     4.4853    -0.4751 H       
  55 H55            3.7273     3.1031    -1.1809 H       
  56 H56           -1.8042    -0.2546     4.0833 H       
  57 H57           -1.0411    -1.8106     4.4891 H       
  58 H58           -1.8597    -0.7606     6.5435 H       
  59 H59           -0.0798    -0.7461     6.5518 H       
  60 H60           -0.9898     1.3914     7.1074 H       
@<TRIPOS>BOND
   1    1    2 1
   2    1    5 1
   3    1    6 1
   4    1   29 1
   5    2    3 1
   6    2   25 1
   7    2   30 1
   8    3    4 1
   9    3   31 1
  10    3   32 1
  11    4    5 1
  12    4    7 1
  13    4   33 1
  14    5   34 1
  15    5   35 1
  16    6   36 1
  17    7    8 1
  18    8    9 1
  19    8   15 1
  20    8   21 1
  21    9   10 ar
  22    9   14 ar
  23   10   11 ar
  24   10   37 1
  25   11   12 ar
  26   11   38 1
  27   12   13 ar
  28   12   39 1
  29   13   14 ar
  30   13   40 1
  31   14   41 1
  32   15   16 ar
  33   15   20 ar
  34   16   17 ar
  35   16   42 1
  36   17   18 ar
  37   17   43 1
  38   18   19 ar
  39   18   44 1
  40   19   20 ar
  41   19   45 1
  42   20   46 1
  43   21   22 1
  44   21   24 1
  45   21   23 1
  46   22   47 1
  47   22   48 1
  48   22   49 1
  49   23   50 1
  50   23   51 1
  51   23   52 1
  52   24   53 1
  53   24   54 1
  54   24   55 1
  55   25   26 1
  56   26   27 1
  57   26   56 1
  58   26   57 1
  59   27   28 1
  60   27   58 1
  61   27   59 1
  62   28   60 1

#	End of record

