#	Name: ASD01410405
#	Creating user name:	WinNT
#	Creation time:	15. 06. 2019 19:17

#	Modifying user name:	WinNT
#	Modification time:	15. 06. 2019 19:17

#	Program:	/corina/corina34_cracker 3.40 0067  02.08.2006

@<TRIPOS>MOLECULE
ASD01410405
  36   38    0    0    0
SMALL
NO_CHARGES


@<TRIPOS>ATOM
   1 S1            -0.0221     1.7692     0.0475 S.3     
   2 C2            -0.0029     0.0151     0.2997 C.2     
   3 N3             1.2795    -0.3466     0.4206 N.am    
   4 C4             2.2266     0.5731     0.3399 C.2     
   5 C5             1.7430     1.9417     0.1179 C.2     
   6 S6            -1.3652    -1.0190     0.3749 S.2     
   7 O7             3.4093     0.3054     0.4423 O.2     
   8 N8             1.6168    -1.6899     0.6315 N.am    
   9 S9             1.8929    -2.6872    -0.6614 S.o2    
  10 O10            2.3546    -3.9198    -0.1260 O.2     
  11 O11            0.7501    -2.5833    -1.4995 O.2     
  12 C12            3.2395    -2.0036    -1.5691 C.ar    
  13 C13            4.5362    -2.3756    -1.2673 C.ar    
  14 C14            5.5926    -1.8392    -1.9795 C.ar    
  15 C15            5.3524    -0.9312    -2.9937 C.ar    
  16 C16            4.0556    -0.5599    -3.2961 C.ar    
  17 C17            2.9989    -1.0995    -2.5869 C.ar    
  18 C18            2.4764     3.0765    -0.0059 C.2     
  19 C19            1.8457     6.7086    -0.7093 C.ar    
  20 C20            0.5337     6.8359    -0.2895 C.ar    
  21 C21            2.4871     5.4882    -0.6213 C.ar    
  22 C22            1.8038     4.3788    -0.1039 C.ar    
  23 C23            0.4770     4.5192     0.3181 C.ar    
  24 C24           -0.1472     5.7445     0.2224 C.ar    
  25 F25            3.7683     5.3645    -1.0318 F       
  26 H26            1.6886    -2.0359     1.5349 H       
  27 H27            4.7239    -3.0850    -0.4749 H       
  28 H28            6.6058    -2.1293    -1.7432 H       
  29 H29            6.1778    -0.5116    -3.5496 H       
  30 H30            3.8679     0.1498    -4.0883 H       
  31 H31            1.9855    -0.8122    -2.8256 H       
  32 H32            3.5547     3.0223    -0.0324 H       
  33 H33            2.3682     7.5641    -1.1112 H       
  34 H34            0.0378     7.7927    -0.3609 H       
  35 H35           -0.0568     3.6696     0.7176 H       
  36 H36           -1.1710     5.8536     0.5483 H       
@<TRIPOS>BOND
   1    1    2 1
   2    1    5 1
   3    2    3 am
   4    2    6 2
   5    3    4 am
   6    3    8 1
   7    4    5 1
   8    4    7 2
   9    5   18 2
  10    8    9 am
  11    8   26 1
  12    9   10 2
  13    9   11 2
  14    9   12 1
  15   12   13 ar
  16   12   17 ar
  17   13   14 ar
  18   13   27 1
  19   14   15 ar
  20   14   28 1
  21   15   16 ar
  22   15   29 1
  23   16   17 ar
  24   16   30 1
  25   17   31 1
  26   18   22 1
  27   18   32 1
  28   19   20 ar
  29   19   21 ar
  30   19   33 1
  31   20   24 ar
  32   20   34 1
  33   21   22 ar
  34   21   25 1
  35   22   23 ar
  36   23   24 ar
  37   23   35 1
  38   24   36 1

#	End of record

