#	Name: ASD03331124
#	Creating user name:	WinNT
#	Creation time:	15. 06. 2019 20:38

#	Modifying user name:	WinNT
#	Modification time:	15. 06. 2019 20:38

#	Program:	/corina/corina34_cracker 3.40 0067  02.08.2006

@<TRIPOS>MOLECULE
ASD03331124
  65   68    0    0    0
SMALL
NO_CHARGES


@<TRIPOS>ATOM
   1 C1             1.1849    -3.2118     1.6330 C.ar    
   2 C2             0.6943    -3.6884     0.4316 C.ar    
   3 C3             1.1852    -3.1950    -0.7632 C.ar    
   4 C4             2.1679    -2.2237    -0.7602 C.ar    
   5 C5             2.6625    -1.7424     0.4425 C.ar    
   6 C6             2.1685    -2.2390     1.6421 C.ar    
   7 F7             2.6476    -1.7723     2.8159 F       
   8 O8             5.1456    -2.3893     0.6953 O.2     
   9 C9             4.9058    -1.2090     0.5343 C.2     
  10 O10            3.6299    -0.7869     0.4477 O.3     
  11 N11            5.9167    -0.3224     0.4422 N.am    
  12 C12            7.3046    -0.7817     0.5364 C.3     
  13 C13            8.2481     0.4153     0.4019 C.3     
  14 C14            9.6976    -0.0643     0.5002 C.3     
  15 C15           10.6411     1.1326     0.3657 C.3     
  16 C16           12.0907     0.6530     0.4640 C.3     
  17 C17           13.0341     1.8499     0.3295 C.3     
  18 N18           14.4158     1.4080     0.5343 N.pl3   
  19 C19           15.0689     1.3083     1.7410 C.2     
  20 C20           16.3427     0.8535     1.4534 C.2     
  21 N21           16.4214     0.6957     0.1186 N.2     
  22 C22           15.2818     1.0177    -0.4265 C.2     
  23 C23           14.5201     1.6242     3.0751 C.ar    
  24 C24           14.5556     0.6682     4.0924 C.ar    
  25 C25           18.3137    -0.4630     2.2253 C.ar    
  26 C26           17.4218     0.5888     2.4332 C.ar    
  27 C27           13.9687     2.8823     3.3268 C.ar    
  28 C28           13.4584     3.1707     4.5755 C.ar    
  29 C29           13.4920     2.2169     5.5774 C.ar    
  30 C30           14.0417     0.9701     5.3364 C.ar    
  31 C31           19.3170    -0.7043     3.1413 C.ar    
  32 C32           19.4390     0.0944     4.2644 C.ar    
  33 C33           18.5575     1.1395     4.4759 C.ar    
  34 C34           17.5501     1.3907     3.5670 C.ar    
  35 C35           14.9798     0.9707    -1.9021 C.3     
  36 H36            0.7969    -3.5958     2.5648 H       
  37 H37           -0.0736    -4.4478     0.4262 H       
  38 H38            0.8002    -3.5696    -1.7001 H       
  39 H39            2.5508    -1.8397    -1.6941 H       
  40 H40            5.7252     0.6198     0.3136 H       
  41 H41            7.4634    -1.2628     1.5014 H       
  42 H42            7.5063    -1.4949    -0.2628 H       
  43 H43            8.0893     0.8965    -0.5632 H       
  44 H44            8.0464     1.1285     1.2011 H       
  45 H45            9.8565    -0.5455     1.4653 H       
  46 H46            9.8994    -0.7776    -0.2990 H       
  47 H47           10.4823     1.6138    -0.5994 H       
  48 H48           10.4394     1.8458     1.1649 H       
  49 H49           12.2495     0.1718     1.4291 H       
  50 H50           12.2924    -0.0603    -0.3352 H       
  51 H51           12.9344     2.2810    -0.6666 H       
  52 H52           12.7780     2.6003     1.0775 H       
  53 H53           14.9840    -0.3055     3.9056 H       
  54 H54           18.2166    -1.0901     1.3514 H       
  55 H55           13.9422     3.6277     2.5458 H       
  56 H56           13.0319     4.1434     4.7716 H       
  57 H57           13.0913     2.4482     6.5533 H       
  58 H58           14.0646     0.2303     6.1229 H       
  59 H59           20.0084    -1.5185     2.9814 H       
  60 H60           20.2256    -0.0986     4.9787 H       
  61 H61           18.6575     1.7593     5.3546 H       
  62 H62           16.8626     2.2069     3.7332 H       
  63 H63           14.5866    -0.0123    -2.1614 H       
  64 H64           14.2405     1.7336    -2.1462 H       
  65 H65           15.8938     1.1568    -2.4662 H       
@<TRIPOS>BOND
   1    1    2 ar
   2    1    6 ar
   3    1   36 1
   4    2    3 ar
   5    2   37 1
   6    3    4 ar
   7    3   38 1
   8    4    5 ar
   9    4   39 1
  10    5    6 ar
  11    5   10 1
  12    6    7 1
  13    8    9 2
  14    9   10 1
  15    9   11 am
  16   11   12 1
  17   11   40 1
  18   12   13 1
  19   12   41 1
  20   12   42 1
  21   13   14 1
  22   13   43 1
  23   13   44 1
  24   14   15 1
  25   14   45 1
  26   14   46 1
  27   15   16 1
  28   15   47 1
  29   15   48 1
  30   16   17 1
  31   16   49 1
  32   16   50 1
  33   17   18 1
  34   17   51 1
  35   17   52 1
  36   18   19 1
  37   18   22 1
  38   19   20 2
  39   19   23 1
  40   20   21 1
  41   20   26 1
  42   21   22 2
  43   22   35 1
  44   23   24 ar
  45   23   27 ar
  46   24   30 ar
  47   24   53 1
  48   25   26 ar
  49   25   31 ar
  50   25   54 1
  51   26   34 ar
  52   27   28 ar
  53   27   55 1
  54   28   29 ar
  55   28   56 1
  56   29   30 ar
  57   29   57 1
  58   30   58 1
  59   31   32 ar
  60   31   59 1
  61   32   33 ar
  62   32   60 1
  63   33   34 ar
  64   33   61 1
  65   34   62 1
  66   35   63 1
  67   35   64 1
  68   35   65 1

#	End of record

