#	Name: ASD01910609
#	Creating user name:	WinNT
#	Creation time:	15. 06. 2019 19:56

#	Modifying user name:	WinNT
#	Modification time:	15. 06. 2019 19:56

#	Program:	/corina/corina34_cracker 3.40 0067  02.08.2006

@<TRIPOS>MOLECULE
ASD01910609
  47   50    0    0    0
SMALL
NO_CHARGES


@<TRIPOS>ATOM
   1 C1             0.0244     1.3039    -0.0724 C.ar    
   2 C2             0.0574    -0.0819    -0.0820 C.ar    
   3 C3             1.2713    -0.7514    -0.0864 C.ar    
   4 C4             2.4530    -0.0413    -0.0818 C.ar    
   5 C5             2.4256     1.3546    -0.0725 C.ar    
   6 C6             1.2002     2.0239    -0.0677 C.ar    
   7 C7             3.6888     2.1209    -0.0675 C.2     
   8 N8             3.8141     3.4365    -0.0588 N.2     
   9 C9             5.1353     3.6719    -0.0573 C.2     
  10 N10            5.7404     2.5209    -0.0649 N.2     
  11 O11            4.9325     1.6164    -0.0650 O.3     
  12 C12            5.7978     5.0254    -0.0488 C.3     
  13 C13            6.6702     5.1593     1.2015 C.3     
  14 C14            7.3176     6.5457     1.2278 C.3     
  15 C15            8.2114     6.7110    -0.0054 C.3     
  16 N16            7.4122     6.4410    -1.2083 N.am    
  17 C17            6.6743     5.1735    -1.2964 C.3     
  18 C18            7.3569     7.3389    -2.2119 C.2     
  19 C19            8.0271     8.6476    -2.0698 C.ar    
  20 O20            6.7554     7.0718    -3.2340 O.2     
  21 C21            9.3864     8.7083    -1.7559 C.ar    
  22 C22           10.0070     9.9323    -1.6250 C.ar    
  23 C23            9.2840    11.1016    -1.8038 C.ar    
  24 C24            7.9338    11.0471    -2.1152 C.ar    
  25 C25            7.3048     9.8287    -2.2546 C.ar    
  26 F26            9.8970    12.2984    -1.6739 F       
  27 F27           -1.0977    -0.7826    -0.0866 F       
  28 C28            5.8376     9.7710    -2.5934 C.3     
  29 H29           -0.9240     1.8206    -0.0731 H       
  30 H30            1.2913    -1.8312    -0.0932 H       
  31 H31            3.3982    -0.5639    -0.0849 H       
  32 H32            1.1734     3.1035    -0.0609 H       
  33 H33            5.0349     5.8039    -0.0451 H       
  34 H34            6.0530     5.0298     2.0905 H       
  35 H35            7.4478     4.3956     1.1851 H       
  36 H36            6.5407     7.3103     1.2191 H       
  37 H37            7.9201     6.6488     2.1302 H       
  38 H38            8.5964     7.7300    -0.0437 H       
  39 H39            9.0413     6.0064     0.0477 H       
  40 H40            7.3789     4.3434    -1.3486 H       
  41 H41            6.0452     5.1780    -2.1865 H       
  42 H42            9.9503     7.7980    -1.6157 H       
  43 H43           11.0583     9.9803    -1.3822 H       
  44 H44            7.3750    11.9610    -2.2528 H       
  45 H45            5.7112     9.8403    -3.6739 H       
  46 H46            5.4194     8.8291    -2.2383 H       
  47 H47            5.3208    10.6019    -2.1132 H       
@<TRIPOS>BOND
   1    1    2 ar
   2    1    6 ar
   3    1   29 1
   4    2    3 ar
   5    2   27 1
   6    3    4 ar
   7    3   30 1
   8    4    5 ar
   9    4   31 1
  10    5    6 ar
  11    5    7 1
  12    6   32 1
  13    7    8 2
  14    7   11 1
  15    8    9 1
  16    9   10 2
  17    9   12 1
  18   10   11 1
  19   12   13 1
  20   12   17 1
  21   12   33 1
  22   13   14 1
  23   13   34 1
  24   13   35 1
  25   14   15 1
  26   14   36 1
  27   14   37 1
  28   15   16 1
  29   15   38 1
  30   15   39 1
  31   16   17 1
  32   16   18 am
  33   17   40 1
  34   17   41 1
  35   18   19 1
  36   18   20 2
  37   19   21 ar
  38   19   25 ar
  39   21   22 ar
  40   21   42 1
  41   22   23 ar
  42   22   43 1
  43   23   24 ar
  44   23   26 1
  45   24   25 ar
  46   24   44 1
  47   25   28 1
  48   28   45 1
  49   28   46 1
  50   28   47 1

#	End of record

