#	Name: ASD03330546
#	Creating user name:	WinNT
#	Creation time:	15. 06. 2019 20:37

#	Modifying user name:	WinNT
#	Modification time:	15. 06. 2019 20:37

#	Program:	/corina/corina34_cracker 3.40 0067  02.08.2006

@<TRIPOS>MOLECULE
ASD03330546
  63   65    0    0    0
SMALL
NO_CHARGES


@<TRIPOS>ATOM
   1 C1            -0.3225     1.1664     0.8598 C.2     
   2 N2            -0.3510    -0.1667     1.0939 N.pl3   
   3 C3             0.9827     1.5542     0.9016 C.2     
   4 N4             1.7310     0.4557     1.1421 N.2     
   5 C5             0.9381    -0.5841     1.2533 C.2     
   6 C6             1.3699    -1.9760     1.5087 C.ar    
   7 C7             1.4879     2.9263     0.7171 C.2     
   8 O8             0.7104     3.8371     0.5047 O.2     
   9 C9             3.3135     4.5358     0.6005 C.3     
  10 N10            2.8114     3.1718     0.7839 N.am    
  11 C11            3.4850     4.8196    -0.8932 C.3     
  12 C12            2.1158     4.8028    -1.5759 C.3     
  13 C13            4.1313     6.1937    -1.0803 C.3     
  14 C14            4.3791     3.7462    -1.5169 C.3     
  15 C15            4.6433     4.6791     1.2949 C.2     
  16 N16            5.1787     5.9021     1.4797 N.am    
  17 O17            5.2317     3.6940     1.6875 O.2     
  18 C18            6.5038     6.0371     2.0895 C.3     
  19 C19           -1.5606    -0.9905     1.1724 C.3     
  20 C20           -2.4707    -0.6622    -0.0151 C.3     
  21 C21           -3.3823     0.5074     0.3425 C.3     
  22 N22           -2.7025     1.4500     1.2335 N.3     
  23 C23           -1.5206     2.0385     0.5866 C.3     
  24 C24           -3.6248     2.4956     1.6962 C.3     
  25 C25            2.6214    -2.4118     1.0739 C.ar    
  26 C26            3.0184    -3.7125     1.3155 C.ar    
  27 C27            2.1767    -4.5821     1.9876 C.ar    
  28 C28            0.9341    -4.1549     2.4205 C.ar    
  29 C29            0.5289    -2.8563     2.1906 C.ar    
  30 C30            2.6155    -6.0000     2.2483 C.3     
  31 Cl31           4.5754    -4.2578     0.7750 Cl      
  32 H32            2.6032     5.2447     1.0258 H       
  33 H33            3.4315     2.4454     0.9533 H       
  34 H34            1.4788     5.5675    -1.1315 H       
  35 H35            2.2380     5.0050    -2.6400 H       
  36 H36            1.6554     3.8239    -1.4426 H       
  37 H37            5.0908     6.2172    -0.5636 H       
  38 H38            4.2862     6.3807    -2.1429 H       
  39 H39            3.4775     6.9620    -0.6676 H       
  40 H40            3.9186     2.7672    -1.3836 H       
  41 H41            4.5013     3.9484    -2.5810 H       
  42 H42            5.3545     3.7581    -1.0305 H       
  43 H43            4.6865     6.6929     1.2088 H       
  44 H44            6.7672     7.0927     2.1564 H       
  45 H45            6.4900     5.6020     3.0888 H       
  46 H46            7.2404     5.5170     1.4770 H       
  47 H47           -1.2859    -2.0449     1.1402 H       
  48 H48           -2.0859    -0.7784     2.1035 H       
  49 H49           -1.8596    -0.3952    -0.8773 H       
  50 H50           -3.0781    -1.5340    -0.2583 H       
  51 H51           -3.6746     1.0256    -0.5709 H       
  52 H52           -4.2752     0.1266     0.8383 H       
  53 H53           -1.3441     3.0362     0.9884 H       
  54 H54           -1.6874     2.1019    -0.4887 H       
  55 H55           -4.4518     2.0369     2.2381 H       
  56 H56           -3.0942     3.1820     2.3561 H       
  57 H57           -4.0126     3.0439     0.8376 H       
  58 H58            3.2784    -1.7340     0.5492 H       
  59 H59            0.2818    -4.8381     2.9440 H       
  60 H60           -0.4413    -2.5243     2.5295 H       
  61 H61            3.1339    -6.0498     3.2058 H       
  62 H62            1.7422    -6.6518     2.2736 H       
  63 H63            3.2879    -6.3242     1.4539 H       
@<TRIPOS>BOND
   1    1    2 1
   2    1    3 2
   3    1   23 1
   4    2   19 1
   5    2    5 1
   6    3    4 1
   7    3    7 1
   8    4    5 2
   9    5    6 1
  10    6   25 ar
  11    6   29 ar
  12    7    8 2
  13    7   10 am
  14    9   10 1
  15    9   11 1
  16    9   15 1
  17    9   32 1
  18   10   33 1
  19   11   12 1
  20   11   13 1
  21   11   14 1
  22   12   34 1
  23   12   35 1
  24   12   36 1
  25   13   37 1
  26   13   38 1
  27   13   39 1
  28   14   40 1
  29   14   41 1
  30   14   42 1
  31   15   16 am
  32   15   17 2
  33   16   18 1
  34   16   43 1
  35   18   44 1
  36   18   45 1
  37   18   46 1
  38   19   20 1
  39   19   47 1
  40   19   48 1
  41   20   21 1
  42   20   49 1
  43   20   50 1
  44   21   22 1
  45   21   51 1
  46   21   52 1
  47   22   23 1
  48   22   24 1
  49   23   53 1
  50   23   54 1
  51   24   55 1
  52   24   56 1
  53   24   57 1
  54   25   26 ar
  55   25   58 1
  56   26   27 ar
  57   26   31 1
  58   27   28 ar
  59   27   30 1
  60   28   29 ar
  61   28   59 1
  62   29   60 1
  63   30   61 1
  64   30   62 1
  65   30   63 1

#	End of record

