#	Name: ASD05143248
#	Creating user name:	WinNT
#	Creation time:	15. 06. 2019 20:57

#	Modifying user name:	WinNT
#	Modification time:	15. 06. 2019 20:57

#	Program:	/corina/corina34_cracker 3.40 0067  02.08.2006

@<TRIPOS>MOLECULE
ASD05143248
  48   50    0    0    0
SMALL
NO_CHARGES


@<TRIPOS>ATOM
   1 C1            -0.2392     1.4493     0.0943 C.2     
   2 N2            -0.0224     0.1927    -0.2408 N.2     
   3 S3            -1.5551    -0.5384    -0.3019 S.3     
   4 C4            -2.4126     0.8919     0.1289 C.2     
   5 N5            -1.4902     1.8148     0.2930 N.2     
   6 N6            -3.7793     1.0376     0.2753 N.pl3   
   7 C7            -4.3069     2.2392     0.7631 C.ar    
   8 C8            -5.6024     2.6143     0.4321 C.ar    
   9 C9            -6.1222     3.7994     0.9141 C.ar    
  10 C10           -5.3505     4.6154     1.7282 C.ar    
  11 C11           -4.0562     4.2417     2.0590 C.ar    
  12 C12           -3.5370     3.0540     1.5829 C.ar    
  13 O13           -5.8629     5.7825     2.2021 O.3     
  14 C14            1.1891    -0.4011    -0.4891 C.ar    
  15 C15            1.5841    -1.5212     0.2442 C.ar    
  16 C16            2.0296     0.1087    -1.4802 C.ar    
  17 C17            3.2463    -0.4934    -1.7252 C.ar    
  18 C18            3.6340    -1.6006    -0.9914 C.ar    
  19 C19            2.8035    -2.1138    -0.0109 C.ar    
  20 C20            0.8781     2.4100     0.2475 C.ar    
  21 C21            0.6925     3.7557    -0.0679 C.ar    
  22 C22            2.1180     1.9733     0.7130 C.ar    
  23 C23            3.1547     2.8730     0.8540 C.ar    
  24 C24            2.9659     4.2058     0.5350 C.ar    
  25 C25            1.7368     4.6459     0.0773 C.ar    
  26 C26            4.9642    -2.2538    -1.2652 C.3     
  27 C27           -5.0129     6.5735     3.0349 C.3     
  28 H28           -4.3729     0.3074     0.0401 H       
  29 H29           -6.2031     1.9794    -0.2023 H       
  30 H30           -7.1297     4.0912     0.6568 H       
  31 H31           -3.4559     4.8778     2.6926 H       
  32 H32           -2.5294     2.7630     1.8408 H       
  33 H33            0.9368    -1.9228     1.0098 H       
  34 H34            1.7279     0.9724    -2.0541 H       
  35 H35            3.8976    -0.1001    -2.4916 H       
  36 H36            3.1122    -2.9780     0.5585 H       
  37 H37           -0.2666     4.1004    -0.4253 H       
  38 H38            2.2664     0.9332     0.9630 H       
  39 H39            4.1154     2.5360     1.2145 H       
  40 H40            3.7802     4.9063     0.6474 H       
  41 H41            1.5955     5.6875    -0.1705 H       
  42 H42            5.7295    -1.7963    -0.6382 H       
  43 H43            4.8992    -3.3184    -1.0407 H       
  44 H44            5.2259    -2.1191    -2.3147 H       
  45 H45           -4.7306     5.9982     3.9166 H       
  46 H46           -4.1167     6.8511     2.4800 H       
  47 H47           -5.5428     7.4747     3.3434 H       
  48 Br48          10.7295    12.4747     8.9166 Br      
@<TRIPOS>BOND
   1    1    2 2
   2    1   20 1
   3    1    5 1
   4    2    3 1
   5    2   14 1
   6    3    4 1
   7    4    5 2
   8    4    6 1
   9    6    7 1
  10    6   28 1
  11    7    8 ar
  12    7   12 ar
  13    8    9 ar
  14    8   29 1
  15    9   10 ar
  16    9   30 1
  17   10   11 ar
  18   10   13 1
  19   11   12 ar
  20   11   31 1
  21   12   32 1
  22   13   27 1
  23   14   15 ar
  24   14   16 ar
  25   15   19 ar
  26   15   33 1
  27   16   17 ar
  28   16   34 1
  29   17   18 ar
  30   17   35 1
  31   18   19 ar
  32   18   26 1
  33   19   36 1
  34   20   21 ar
  35   20   22 ar
  36   21   25 ar
  37   21   37 1
  38   22   23 ar
  39   22   38 1
  40   23   24 ar
  41   23   39 1
  42   24   25 ar
  43   24   40 1
  44   25   41 1
  45   26   42 1
  46   26   43 1
  47   26   44 1
  48   27   45 1
  49   27   46 1
  50   27   47 1

#	End of record

