#	Name: ASD01811163
#	Creating user name:	WinNT
#	Creation time:	15. 06. 2019 19:26

#	Modifying user name:	WinNT
#	Modification time:	15. 06. 2019 19:26

#	Program:	/corina/corina34_cracker 3.40 0067  02.08.2006

@<TRIPOS>MOLECULE
ASD01811163
  72   76    0    0    0
SMALL
NO_CHARGES


@<TRIPOS>ATOM
   1 C1            -7.1580    -0.8130     4.0479 C.2     
   2 C2            -6.1500    -1.6197     3.3275 C.ar    
   3 C3            -5.0170    -1.0077     2.7890 C.ar    
   4 C4            -4.0800    -1.7662     2.1183 C.ar    
   5 C5            -4.2618    -3.1307     1.9784 C.ar    
   6 C6            -5.3826    -3.7436     2.5098 C.ar    
   7 C7            -6.3244    -2.9974     3.1878 C.ar    
   8 O8            -7.0010     0.3859     4.1723 O.2     
   9 N9            -8.2537    -1.4061     4.5619 N.am    
  10 N10           -2.1827    -6.3663     0.2096 N.am    
  11 C11           -1.5968    -5.8283     1.4449 C.3     
  12 C12           -2.6652    -5.0171     2.1847 C.3     
  13 C13           -3.2346    -3.9529     1.2437 C.3     
  14 C14           -3.8915    -4.6326     0.0401 C.3     
  15 C15           -2.8371    -5.4395    -0.7240 C.3     
  16 C16           -2.1163    -7.6842    -0.0647 C.2     
  17 C17           -2.7869    -8.2239    -1.2669 C.ar    
  18 C18           -3.7146    -9.2611    -1.1447 C.ar    
  19 C19           -4.3416    -9.7660    -2.2662 C.ar    
  20 C20           -4.0571    -9.2500    -3.5152 C.ar    
  21 C21           -3.1322    -8.2129    -3.6515 C.ar    
  22 C22           -2.4993    -7.6953    -2.5234 C.ar    
  23 O23           -1.5050    -8.4291     0.6762 O.2     
  24 C24           -4.0314    -9.8303     0.2142 C.3     
  25 C25           -5.0217    -8.9123     0.9335 C.3     
  26 N26           -2.9054    -7.3095    -7.0857 N.2     
  27 N27           -3.4196    -7.9808    -6.1179 N.2     
  28 C28           -2.8284    -7.6620    -4.9900 C.2     
  29 N29           -1.8742    -6.7192    -5.2881 N.pl3   
  30 C30           -1.9570    -6.5235    -6.6347 C.2     
  31 O31           -1.2000    -5.6746    -7.3707 O.3     
  32 C32           -1.4572    -5.6278    -8.7756 C.3     
  33 C33           -0.5121    -4.6207    -9.4339 C.3     
  34 C34           -4.7461    -9.8078    -4.7339 C.3     
  35 C35           -4.5756   -11.3275    -4.8964 C.3     
  36 C36           -6.0474   -11.3659    -5.3407 C.3     
  37 C37           -6.2455   -10.0777    -4.5245 C.3     
  38 H38           -4.8744     0.0574     2.8969 H       
  39 H39           -3.2029    -1.2939     1.7011 H       
  40 H40           -5.5186    -4.8091     2.3972 H       
  41 H41           -7.1967    -3.4777     3.6060 H       
  42 H42           -8.3809    -2.3622     4.4591 H       
  43 H43           -8.9150    -0.8768     5.0346 H       
  44 H44           -1.2588    -6.6495     2.0769 H       
  45 H45           -0.7536    -5.1831     1.1985 H       
  46 H46           -3.4660    -5.6812     2.5098 H       
  47 H47           -2.2181    -4.5332     3.0530 H       
  48 H48           -2.4291    -3.3043     0.8992 H       
  49 H49           -4.6808    -5.3004     0.3855 H       
  50 H50           -4.3173    -3.8751    -0.6179 H       
  51 H51           -2.0949    -4.7626    -1.1472 H       
  52 H52           -3.3174    -6.0042    -1.5231 H       
  53 H53           -5.0576   -10.5684    -2.1664 H       
  54 H54           -1.7861    -6.8904    -2.6229 H       
  55 H55           -4.4715   -10.8209     0.0996 H       
  56 H56           -3.1148    -9.9055     0.7993 H       
  57 H57           -5.9383    -8.8371     0.3484 H       
  58 H58           -5.2508    -9.3241     1.9164 H       
  59 H59           -4.5816    -7.9217     1.0481 H       
  60 H60           -1.2676    -6.2836    -4.6690 H       
  61 H61           -1.2945    -6.6151    -9.2078 H       
  62 H62           -2.4896    -5.3223    -8.9459 H       
  63 H63           -0.7084    -4.5850   -10.5055 H       
  64 H64           -0.6749    -3.6334    -9.0017 H       
  65 H65            0.5202    -4.9262    -9.2636 H       
  66 H66           -4.5249    -9.2443    -5.6403 H       
  67 H67           -3.8747   -11.6066    -5.6831 H       
  68 H68           -4.3892   -11.8488    -3.9575 H       
  69 H69           -6.1834   -11.2283    -6.4134 H       
  70 H70           -6.5996   -12.2201    -4.9491 H       
  71 H71           -6.5156   -10.2573    -3.4838 H       
  72 H72           -6.8926    -9.3478    -5.0108 H       
@<TRIPOS>BOND
   1    1    2 1
   2    1    8 2
   3    1    9 am
   4    2    3 ar
   5    2    7 ar
   6    3    4 ar
   7    3   38 1
   8    4    5 ar
   9    4   39 1
  10    5    6 ar
  11    5   13 1
  12    6    7 ar
  13    6   40 1
  14    7   41 1
  15    9   42 1
  16    9   43 1
  17   10   11 1
  18   10   15 1
  19   10   16 am
  20   11   12 1
  21   11   44 1
  22   11   45 1
  23   12   13 1
  24   12   46 1
  25   12   47 1
  26   13   14 1
  27   13   48 1
  28   14   15 1
  29   14   49 1
  30   14   50 1
  31   15   51 1
  32   15   52 1
  33   16   17 1
  34   16   23 2
  35   17   18 ar
  36   17   22 ar
  37   18   19 ar
  38   18   24 1
  39   19   20 ar
  40   19   53 1
  41   20   21 ar
  42   20   34 1
  43   21   22 ar
  44   21   28 1
  45   22   54 1
  46   24   25 1
  47   24   55 1
  48   24   56 1
  49   25   57 1
  50   25   58 1
  51   25   59 1
  52   26   27 1
  53   26   30 2
  54   27   28 2
  55   28   29 1
  56   29   30 1
  57   29   60 1
  58   30   31 1
  59   31   32 1
  60   32   33 1
  61   32   61 1
  62   32   62 1
  63   33   63 1
  64   33   64 1
  65   33   65 1
  66   34   35 1
  67   34   37 1
  68   34   66 1
  69   35   36 1
  70   35   67 1
  71   35   68 1
  72   36   37 1
  73   36   69 1
  74   36   70 1
  75   37   71 1
  76   37   72 1

#	End of record

