#	Name: ASD01418029
#	Creating user name:	WinNT
#	Creation time:	15. 06. 2019 19:20

#	Modifying user name:	WinNT
#	Modification time:	15. 06. 2019 19:20

#	Program:	/corina/corina34_cracker 3.40 0067  02.08.2006

@<TRIPOS>MOLECULE
ASD01418029
  66   69    0    0    0
SMALL
NO_CHARGES


@<TRIPOS>ATOM
   1 N1             0.0063     1.3830    -0.1060 N.pl3   
   2 C2             0.1005     0.0106    -0.0811 C.2     
   3 C3            -1.0399    -0.9220    -0.0046 C.ar    
   4 C4            -1.7242    -1.1075     1.2157 C.ar    
   5 C5            -1.3062    -0.3734     2.4167 C.2     
   6 C6            -2.1185    -0.4740     3.6821 C.3     
   7 C7            -1.4514    -1.6210    -1.1392 C.ar    
   8 C8            -2.5171    -2.4920    -1.0655 C.ar    
   9 C9            -3.1912    -2.6818     0.1365 C.ar    
  10 C10           -2.8024    -1.9942     1.2729 C.ar    
  11 C11            1.2773     1.9140    -0.1808 C.ar    
  12 C12            2.1826     0.8327    -0.2025 C.ar    
  13 C13            1.4096    -0.3507    -0.1385 C.2     
  14 C14            1.7595     3.2123    -0.2328 C.ar    
  15 C15            3.1336     3.4362    -0.3060 C.ar    
  16 C16            4.0263     2.3543    -0.3276 C.ar    
  17 C17            3.5619     1.0759    -0.2764 C.ar    
  18 C18            1.9426    -1.7602    -0.1342 C.3     
  19 C19            2.6498    -2.0421    -1.4613 C.3     
  20 C20            2.9353    -1.9266     1.0181 C.3     
  21 C21            3.4765    -3.3577     1.0224 C.3     
  22 C22            4.1837    -3.6395    -0.3047 C.3     
  23 C23            3.1909    -3.4732    -1.4570 C.3     
  24 O24           -4.2406    -3.5430     0.1939 O.3     
  25 C25           -4.5942    -4.2163    -1.0159 C.3     
  26 C26            3.6506     4.8158    -0.3616 C.2     
  27 O27            2.8796     5.7548    -0.3434 O.2     
  28 O28            4.9784     5.0354    -0.4324 O.3     
  29 O29           -0.3072     0.3140     2.3904 O.2     
  30 C30            5.4158     6.4190    -0.4841 C.3     
  31 C31            4.9448     7.1501     0.7747 C.3     
  32 C32            6.9431     6.4685    -0.5612 C.3     
  33 C33            4.8205     7.0963    -1.7201 C.3     
  34 H34           -0.8183     1.8931    -0.0796 H       
  35 H35           -1.7514    -1.3050     4.2844 H       
  36 H36           -2.0263     0.4532     4.2477 H       
  37 H37           -3.1653    -0.6429     3.4295 H       
  38 H38           -0.9345    -1.4794    -2.0769 H       
  39 H39           -2.8314    -3.0306    -1.9473 H       
  40 H40           -3.3292    -2.1458     2.2034 H       
  41 H41            1.0740     4.0467    -0.2170 H       
  42 H42            5.0892     2.5370    -0.3848 H       
  43 H43            4.2557     0.2485    -0.2939 H       
  44 H44            1.1171    -2.4605    -0.0065 H       
  45 H45            1.9425    -1.9236    -2.2822 H       
  46 H46            3.4753    -1.3419    -1.5891 H       
  47 H47            3.7608    -1.2263     0.8904 H       
  48 H48            2.4315    -1.7257     1.9636 H       
  49 H49            4.1837    -3.4762     1.8433 H       
  50 H50            2.6510    -4.0579     1.1502 H       
  51 H51            5.0092    -2.9393    -0.4324 H       
  52 H52            4.5692    -4.6591    -0.3016 H       
  53 H53            2.3654    -4.1734    -1.3293 H       
  54 H54            3.6947    -3.6740    -2.4025 H       
  55 H55           -5.4453    -4.8718    -0.8315 H       
  56 H56           -4.8593    -3.4818    -1.7764 H       
  57 H57           -3.7476    -4.8090    -1.3627 H       
  58 H58            5.3688     6.6676     1.6553 H       
  59 H59            5.2731     8.1888     0.7359 H       
  60 H60            3.8567     7.1149     0.8296 H       
  61 H61            7.2787     5.9476    -1.4579 H       
  62 H62            7.2715     7.5071    -0.5999 H       
  63 H63            7.3671     5.9860     0.3194 H       
  64 H64            3.7325     7.0611    -1.6652 H       
  65 H65            5.1489     8.1349    -1.7589 H       
  66 H66            5.1561     6.5754    -2.6169 H       
@<TRIPOS>BOND
   1    1    2 1
   2    1   11 1
   3    1   34 1
   4    2    3 1
   5    2   13 2
   6    3    4 ar
   7    3    7 ar
   8    4    5 1
   9    4   10 ar
  10    5    6 1
  11    5   29 2
  12    6   35 1
  13    6   36 1
  14    6   37 1
  15    7    8 ar
  16    7   38 1
  17    8    9 ar
  18    8   39 1
  19    9   10 ar
  20    9   24 1
  21   10   40 1
  22   11   12 ar
  23   11   14 ar
  24   12   13 1
  25   12   17 ar
  26   13   18 1
  27   14   15 ar
  28   14   41 1
  29   15   16 ar
  30   15   26 1
  31   16   17 ar
  32   16   42 1
  33   17   43 1
  34   18   19 1
  35   18   20 1
  36   18   44 1
  37   19   23 1
  38   19   45 1
  39   19   46 1
  40   20   21 1
  41   20   47 1
  42   20   48 1
  43   21   22 1
  44   21   49 1
  45   21   50 1
  46   22   23 1
  47   22   51 1
  48   22   52 1
  49   23   53 1
  50   23   54 1
  51   24   25 1
  52   25   55 1
  53   25   56 1
  54   25   57 1
  55   26   27 2
  56   26   28 1
  57   28   30 1
  58   30   31 1
  59   30   32 1
  60   30   33 1
  61   31   58 1
  62   31   59 1
  63   31   60 1
  64   32   61 1
  65   32   62 1
  66   32   63 1
  67   33   64 1
  68   33   65 1
  69   33   66 1

#	End of record

