#	Name: ASD02590028
#	Creating user name:	WinNT
#	Creation time:	15. 06. 2019 20:25

#	Modifying user name:	WinNT
#	Modification time:	15. 06. 2019 20:25

#	Program:	/corina/corina34_cracker 3.40 0067  02.08.2006

@<TRIPOS>MOLECULE
ASD02590028
  39   42    0    0    0
SMALL
NO_CHARGES


@<TRIPOS>ATOM
   1 C1            -0.0168     1.3897     0.0097 C.ar    
   2 C2             0.0021    -0.0041     0.0020 C.ar    
   3 C3            -1.1766    -0.7177     0.0090 C.ar    
   4 C4            -2.3922    -0.0478     0.0242 C.ar    
   5 C5            -2.4211     1.3586     0.0325 C.ar    
   6 C6            -1.2181     2.0723     0.0306 C.ar    
   7 N7            -3.7117    -0.4596     0.0342 N.pl3   
   8 C8            -4.4870     0.6678     0.0479 C.2     
   9 N9            -3.7230     1.7320     0.0468 N.2     
  10 C10           -5.9667     0.6827     0.0614 C.ar    
  11 C11           -6.6459     1.9000     0.0748 C.ar    
  12 C12           -8.0306     1.8976     0.0873 C.ar    
  13 C13           -8.6906     0.6776     0.0861 C.ar    
  14 C14           -7.9530    -0.4935     0.0724 C.ar    
  15 N15           -6.6371    -0.4636     0.0552 N.ar    
  16 N16            1.1876     2.1016     0.0020 N.3     
  17 C17            2.3381     1.1892    -0.0139 C.3     
  18 C18            3.6290     1.9965    -0.1686 C.3     
  19 C19            3.7516     2.9822     0.9967 C.3     
  20 C20            2.5180     3.8889     1.0198 C.3     
  21 C21            1.2593     3.0268     1.1401 C.3     
  22 H22            0.9465    -0.5279    -0.0098 H       
  23 H23           -1.1547    -1.7975     0.0023 H       
  24 H24           -1.2281     3.1523     0.0372 H       
  25 H25           -4.0287    -1.3763     0.0319 H       
  26 H26           -6.0998     2.8318     0.0757 H       
  27 H27           -8.5842     2.8248     0.0982 H       
  28 H28           -9.7700     0.6419     0.0960 H       
  29 H29           -8.4642    -1.4449     0.0718 H       
  30 H30            2.3701     0.6287     0.9204 H       
  31 H31            2.2407     0.4963    -0.8497 H       
  32 H32            4.4838     1.3202    -0.1647 H       
  33 H33            3.6037     2.5465    -1.1093 H       
  34 H34            3.8161     2.4309     1.9348 H       
  35 H35            4.6476     3.5893     0.8675 H       
  36 H36            2.5790     4.5648     1.8728 H       
  37 H37            2.4752     4.4687     0.0978 H       
  38 H38            0.3783     3.6686     1.1424 H       
  39 H39            1.2963     2.4577     2.0690 H       
@<TRIPOS>BOND
   1    1    2 ar
   2    1   16 1
   3    1    6 ar
   4    2    3 ar
   5    2   22 1
   6    3    4 ar
   7    3   23 1
   8    4    5 ar
   9    4    7 1
  10    5    6 ar
  11    5    9 1
  12    6   24 1
  13    7    8 1
  14    7   25 1
  15    8    9 2
  16    8   10 1
  17   10   11 ar
  18   10   15 ar
  19   11   12 ar
  20   11   26 1
  21   12   13 ar
  22   12   27 1
  23   13   14 ar
  24   13   28 1
  25   14   15 ar
  26   14   29 1
  27   16   17 1
  28   16   21 1
  29   17   18 1
  30   17   30 1
  31   17   31 1
  32   18   19 1
  33   18   32 1
  34   18   33 1
  35   19   20 1
  36   19   34 1
  37   19   35 1
  38   20   21 1
  39   20   36 1
  40   20   37 1
  41   21   38 1
  42   21   39 1

#	End of record

