#	Name: ASD01410245
#	Creating user name:	WinNT
#	Creation time:	15. 06. 2019 19:17

#	Modifying user name:	WinNT
#	Modification time:	15. 06. 2019 19:17

#	Program:	/corina/corina34_cracker 3.40 0067  02.08.2006

@<TRIPOS>MOLECULE
ASD01410245
  29   30    0    0    0
SMALL
NO_CHARGES


@<TRIPOS>ATOM
   1 C1            -0.0165     1.3753     0.0328 C.ar    
   2 C2             0.0019    -0.0056     0.0280 C.ar    
   3 C3            -1.1843    -0.7223     0.0307 C.ar    
   4 C4            -2.3949    -0.0632     0.0387 C.ar    
   5 C5            -2.4277     1.3336     0.0441 C.ar    
   6 C6            -1.2262     2.0547     0.0467 C.ar    
   7 O7            -1.2458     3.4113     0.0524 O.3     
   8 I8             1.7845     2.4456     0.0279 I       
   9 C9            -3.7198     2.0452     0.0528 C.2     
  10 N10           -4.8732     1.3478     0.0554 N.am    
  11 O11           -3.7444     3.2610     0.0575 O.2     
  12 C12           -7.2174     1.5452    -0.4935 C.ar    
  13 C13           -6.0970     2.0186     0.1765 C.ar    
  14 C14           -6.1897     3.1567     0.9668 C.ar    
  15 C15           -7.3959     3.8176     1.0865 C.ar    
  16 C16           -8.5166     3.3442     0.4165 C.ar    
  17 C17           -8.4237     2.2059    -0.3739 C.ar    
  18 I18           -1.1372    -2.8168     0.0219 I       
  19 N19           -9.7390     4.0136     0.5381 N.pl3   
  20 H20            0.9460    -0.5299     0.0217 H       
  21 H21           -3.3168    -0.6258     0.0405 H       
  22 H22           -1.2511     3.8009     0.9374 H       
  23 H23           -4.8558     0.3814    -0.0265 H       
  24 H24           -7.1441     0.6626    -1.1116 H       
  25 H25           -5.3183     3.5246     1.4880 H       
  26 H26           -7.4681     4.7025     1.7014 H       
  27 H27           -9.2950     1.8379    -0.8952 H       
  28 H28           -9.8039     4.8083     1.0904 H       
  29 H29          -10.5217     3.6829     0.0702 H       
@<TRIPOS>BOND
   1    1    2 ar
   2    1    8 1
   3    1    6 ar
   4    2    3 ar
   5    2   20 1
   6    3    4 ar
   7    3   18 1
   8    4    5 ar
   9    4   21 1
  10    5    6 ar
  11    5    9 1
  12    6    7 1
  13    7   22 1
  14    9   10 am
  15    9   11 2
  16   10   13 1
  17   10   23 1
  18   12   13 ar
  19   12   17 ar
  20   12   24 1
  21   13   14 ar
  22   14   15 ar
  23   14   25 1
  24   15   16 ar
  25   15   26 1
  26   16   17 ar
  27   16   19 1
  28   17   27 1
  29   19   28 1
  30   19   29 1

#	End of record

