#	Name: ASD07931916
#	Creating user name:	WinNT
#	Creation time:	15. 06. 2019 21:13

#	Modifying user name:	WinNT
#	Modification time:	15. 06. 2019 21:13

#	Program:	/corina/corina34_cracker 3.40 0067  02.08.2006

@<TRIPOS>MOLECULE
ASD07931916
  28   28    0    0    0
SMALL
NO_CHARGES


@<TRIPOS>ATOM
   1 C1            -0.0184     1.5028     0.0103 C.2     
   2 C2             0.0021    -0.0041     0.0020 C.3     
   3 O3            -1.3386    -0.4987     0.0122 O.3     
   4 C4            -1.4792    -2.4258    -1.4394 C.3     
   5 C5            -1.4321    -1.9246     0.0054 C.3     
   6 C6            -2.6859    -2.3492     0.7255 C.2     
   7 C7            -2.6051    -3.1143     1.7858 C.2     
   8 F8            -0.3152    -2.0316    -2.1080 F       
   9 F9            -1.5707    -3.8218    -1.4461 F       
  10 F10           -2.5948    -1.8822    -2.0854 F       
  11 C11            1.2444     2.2550     0.0023 C.ar    
  12 C12            1.2299     3.6558     0.0099 C.ar    
  13 C13            2.4251     4.3548     0.0028 C.ar    
  14 C14            3.6290     3.6714    -0.0124 C.ar    
  15 C15            3.6481     2.2869    -0.0205 C.ar    
  16 C16            2.4679     1.5757    -0.0072 C.ar    
  17 F17            2.4165     5.7058     0.0101 F       
  18 F18            0.0547     4.3219     0.0238 F       
  19 O19           -1.0767     2.0948     0.0185 O.2     
  20 H20            0.5123    -0.3556    -0.8948 H       
  21 H21            0.5293    -0.3651     0.8851 H       
  22 H22           -0.5629    -2.3481     0.5087 H       
  23 H23           -3.6511    -2.0228     0.3675 H       
  24 H24           -1.6399    -3.4408     2.1439 H       
  25 H25           -3.5037    -3.4186     2.3019 H       
  26 H26            4.5585     4.2212    -0.0183 H       
  27 H27            4.5920     1.7621    -0.0326 H       
  28 H28            2.4870     0.4959    -0.0090 H       
@<TRIPOS>BOND
   1    1    2 1
   2    1   11 1
   3    1   19 2
   4    2    3 1
   5    2   20 1
   6    2   21 1
   7    3    5 1
   8    4    5 1
   9    4    8 1
  10    4    9 1
  11    4   10 1
  12    5    6 1
  13    5   22 1
  14    6    7 2
  15    6   23 1
  16    7   24 1
  17    7   25 1
  18   11   12 ar
  19   11   16 ar
  20   12   13 ar
  21   12   18 1
  22   13   14 ar
  23   13   17 1
  24   14   15 ar
  25   14   26 1
  26   15   16 ar
  27   15   27 1
  28   16   28 1

#	End of record

