#	Name: ASD01810749
#	Creating user name:	WinNT
#	Creation time:	15. 06. 2019 19:25

#	Modifying user name:	WinNT
#	Modification time:	15. 06. 2019 19:25

#	Program:	/corina/corina34_cracker 3.40 0067  02.08.2006

@<TRIPOS>MOLECULE
ASD01810749
  67   71    0    0    0
SMALL
NO_CHARGES


@<TRIPOS>ATOM
   1 C1             0.2224     1.8034    -0.2767 C.ar    
   2 C2            -0.0818     0.4539    -0.0913 C.ar    
   3 C3            -1.4867    -0.0069    -0.0968 C.2     
   4 N4            -1.8178    -1.1522    -0.7254 N.am    
   5 O5            -2.3431     0.6472     0.4655 O.2     
   6 C6            -0.8185    -1.8929    -1.5073 C.3     
   7 C7             0.9635    -0.4559     0.0994 C.ar    
   8 C8             2.2665     0.0294     0.0954 C.ar    
   9 C9             2.4822     1.3887    -0.0961 C.ar    
  10 N10            1.4721     2.2180    -0.2729 N.ar    
  11 C11            3.8912     1.9232    -0.1019 C.3     
  12 N12            3.3468    -0.8399     0.2824 N.am    
  13 C13            3.2088    -1.9275     1.0664 C.2     
  14 C14           -1.3703    -2.1271    -2.9171 C.3     
  15 C15           -2.7313    -2.8200    -2.8192 C.3     
  16 C16           -3.7101    -1.9207    -2.0607 C.3     
  17 C17           -3.1834    -1.6871    -0.6366 C.3     
  18 C18           -3.2618    -3.0827    -4.2051 C.ar    
  19 C19           -3.5243    -4.3803    -4.6075 C.ar    
  20 C20           -4.0104    -4.6279    -5.8745 C.ar    
  21 C21           -4.2374    -3.5654    -6.7516 C.ar    
  22 C22           -3.9703    -2.2585    -6.3390 C.ar    
  23 C23           -3.4894    -2.0248    -5.0673 C.ar    
  24 C24           -4.7415    -3.8151    -8.0685 C.1     
  25 N25           -5.1413    -4.0131    -9.1132 N.1     
  26 O26            2.1232    -2.2009     1.5411 O.2     
  27 C27            4.3746    -2.7861     1.3485 C.ar    
  28 C28            5.6252    -2.4815     0.8088 C.ar    
  29 N29            6.6666    -3.2471     1.0605 N.ar    
  30 C30            6.5687    -4.3244     1.8274 C.ar    
  31 C31            5.3506    -4.6884     2.3993 C.ar    
  32 C32            4.2435    -3.9178     2.1683 C.ar    
  33 N33            7.6920    -5.0990     2.0630 N.3     
  34 C34            8.8702    -4.5455     1.3706 C.3     
  35 C35            9.9524    -4.2922     2.4411 C.3     
  36 C36            9.5341    -5.2436     3.5929 C.3     
  37 C37            7.9888    -5.1757     3.5093 C.3     
  38 H38           -0.5758     2.5147    -0.4294 H       
  39 H39            0.1022    -1.3125    -1.5671 H       
  40 H40           -0.6180    -2.8518    -1.0294 H       
  41 H41            0.7638    -1.5071     0.2461 H       
  42 H42            4.2843     1.9006    -1.1183 H       
  43 H43            3.8920     2.9496     0.2652 H       
  44 H44            4.5166     1.3061     0.5433 H       
  45 H45            4.1951    -0.6598    -0.1522 H       
  46 H46           -1.4849    -1.1703    -3.4265 H       
  47 H47           -0.6804    -2.7579    -3.4777 H       
  48 H48           -2.6202    -3.7652    -2.2879 H       
  49 H49           -3.8027    -0.9659    -2.5782 H       
  50 H50           -4.6856    -2.4046    -2.0116 H       
  51 H51           -3.1774    -2.6301    -0.0899 H       
  52 H52           -3.8231    -0.9690    -0.1236 H       
  53 H53           -3.3479    -5.2011    -3.9281 H       
  54 H54           -4.2145    -5.6412    -6.1874 H       
  55 H55           -4.1434    -1.4322    -7.0125 H       
  56 H56           -3.2824    -1.0145    -4.7468 H       
  57 H57            5.7397    -1.6113     0.1795 H       
  58 H58            5.2821    -5.5681     3.0221 H       
  59 H59            3.2888    -4.1791     2.6003 H       
  60 H60            9.2372    -5.2603     0.6341 H       
  61 H61            8.6062    -3.6080     0.8811 H       
  62 H62           10.9393    -4.5570     2.0616 H       
  63 H63            9.9315    -3.2539     2.7721 H       
  64 H64            9.8908    -6.2574     3.4109 H       
  65 H65            9.8898    -4.8729     4.5542 H       
  66 H66            7.6199    -4.2862     4.0201 H       
  67 H67            7.5456    -6.0733     3.9406 H       
@<TRIPOS>BOND
   1    1    2 ar
   2    1   10 ar
   3    1   38 1
   4    2    3 1
   5    2    7 ar
   6    3    4 am
   7    3    5 2
   8    4    6 1
   9    4   17 1
  10    6   14 1
  11    6   39 1
  12    6   40 1
  13    7    8 ar
  14    7   41 1
  15    8    9 ar
  16    8   12 1
  17    9   10 ar
  18    9   11 1
  19   11   42 1
  20   11   43 1
  21   11   44 1
  22   12   13 am
  23   12   45 1
  24   13   26 2
  25   13   27 1
  26   14   15 1
  27   14   46 1
  28   14   47 1
  29   15   16 1
  30   15   18 1
  31   15   48 1
  32   16   17 1
  33   16   49 1
  34   16   50 1
  35   17   51 1
  36   17   52 1
  37   18   19 ar
  38   18   23 ar
  39   19   20 ar
  40   19   53 1
  41   20   21 ar
  42   20   54 1
  43   21   22 ar
  44   21   24 1
  45   22   23 ar
  46   22   55 1
  47   23   56 1
  48   24   25 3
  49   27   28 ar
  50   27   32 ar
  51   28   29 ar
  52   28   57 1
  53   29   30 ar
  54   30   31 ar
  55   30   33 1
  56   31   32 ar
  57   31   58 1
  58   32   59 1
  59   33   34 1
  60   33   37 1
  61   34   35 1
  62   34   60 1
  63   34   61 1
  64   35   36 1
  65   35   62 1
  66   35   63 1
  67   36   37 1
  68   36   64 1
  69   36   65 1
  70   37   66 1
  71   37   67 1

#	End of record

