#	Name: ASD01917260
#	Creating user name:	WinNT
#	Creation time:	15. 06. 2019 20:08

#	Modifying user name:	WinNT
#	Modification time:	15. 06. 2019 20:08

#	Program:	/corina/corina34_cracker 3.40 0067  02.08.2006

@<TRIPOS>MOLECULE
ASD01917260
  50   53    0    0    0
SMALL
NO_CHARGES


@<TRIPOS>ATOM
   1 C1            -0.0171     1.4080     0.0098 C.ar    
   2 C2             0.0021    -0.0041     0.0020 C.ar    
   3 C3            -1.1904    -0.7245     0.0101 C.ar    
   4 C4            -2.3846    -0.0615     0.0259 C.ar    
   5 C5            -2.4216     1.3381     0.0335 C.ar    
   6 C6            -1.2438     2.0750     0.0309 C.ar    
   7 N7             1.1581     2.0848     0.0022 N.2     
   8 C8             2.3042     1.4740    -0.0094 C.2     
   9 N9             2.4114     0.1107    -0.0137 N.am    
  10 C10            1.3144    -0.6734    -0.0137 C.2     
  11 O11            1.4049    -1.8870    -0.0265 O.2     
  12 C12           -3.7260     2.0384     0.0499 C.2     
  13 N13           -4.8718     1.3287     0.0574 N.am    
  14 O14           -3.7636     3.2530     0.0566 O.2     
  15 N15           -6.1061     1.9913     0.0730 N.am    
  16 C16           -7.2519     1.2816     0.0805 C.2     
  17 C17           -8.5573     1.9823     0.0969 C.ar    
  18 O18           -7.2143     0.0670     0.0738 O.2     
  19 N19           -8.5919     3.3090     0.1041 N.ar    
  20 C20           -9.7291     3.9695     0.1182 C.ar    
  21 C21          -10.9416     3.2988     0.1266 C.ar    
  22 C22          -10.9513     1.9126     0.1195 C.ar    
  23 C23           -9.7380     1.2431     0.0988 C.ar    
  24 C24            3.5847     2.2802    -0.0198 C.3     
  25 C25            4.2212     2.1898    -1.4043 C.3     
  26 C26            5.1368     0.9828    -1.5096 C.3     
  27 C27            4.3748    -0.3266    -1.3983 C.3     
  28 C28            3.7533    -0.4847    -0.0120 C.3     
  29 C29            5.8595     1.0238    -2.8576 C.3     
  30 H30           -1.1707    -1.8043     0.0036 H       
  31 H31           -3.3080    -0.6215     0.0322 H       
  32 H32           -1.2767     3.1544     0.0365 H       
  33 H33           -4.8418     0.3592     0.0521 H       
  34 H34           -6.1361     2.9608     0.0783 H       
  35 H35           -9.7178     5.0495     0.1237 H       
  36 H36          -11.8699     3.8506     0.1389 H       
  37 H37          -11.8833     1.3669     0.1257 H       
  38 H38           -9.7083     0.1635     0.0923 H       
  39 H39            3.3614     3.3218     0.2113 H       
  40 H40            4.2732     1.8802     0.7246 H       
  41 H41            3.4348     2.1082    -2.1546 H       
  42 H42            4.7997     3.0945    -1.5914 H       
  43 H43            5.8776     1.0300    -0.7114 H       
  44 H44            3.5845    -0.3454    -2.1488 H       
  45 H45            5.0591    -1.1553    -1.5801 H       
  46 H46            4.3755     0.0217     0.7259 H       
  47 H47            3.6815    -1.5436     0.2362 H       
  48 H48            6.4474     1.9390    -2.9270 H       
  49 H49            6.5196     0.1606    -2.9424 H       
  50 H50            5.1262     1.0010    -3.6638 H       
@<TRIPOS>BOND
   1    1    2 ar
   2    1    7 1
   3    1    6 ar
   4    2    3 ar
   5    2   10 1
   6    3    4 ar
   7    3   30 1
   8    4    5 ar
   9    4   31 1
  10    5    6 ar
  11    5   12 1
  12    6   32 1
  13    7    8 2
  14    8    9 1
  15    8   24 1
  16    9   10 am
  17    9   28 1
  18   10   11 2
  19   12   13 am
  20   12   14 2
  21   13   15 1
  22   13   33 1
  23   15   16 am
  24   15   34 1
  25   16   17 1
  26   16   18 2
  27   17   19 ar
  28   17   23 ar
  29   19   20 ar
  30   20   21 ar
  31   20   35 1
  32   21   22 ar
  33   21   36 1
  34   22   23 ar
  35   22   37 1
  36   23   38 1
  37   24   25 1
  38   24   39 1
  39   24   40 1
  40   25   26 1
  41   25   41 1
  42   25   42 1
  43   26   27 1
  44   26   29 1
  45   26   43 1
  46   27   28 1
  47   27   44 1
  48   27   45 1
  49   28   46 1
  50   28   47 1
  51   29   48 1
  52   29   49 1
  53   29   50 1

#	End of record

