#	Name: ASD07130014
#	Creating user name:	WinNT
#	Creation time:	15. 06. 2019 21:09

#	Modifying user name:	WinNT
#	Modification time:	15. 06. 2019 21:09

#	Program:	/corina/corina34_cracker 3.40 0067  02.08.2006

@<TRIPOS>MOLECULE
ASD07130014
  30   30    0    0    0
SMALL
NO_CHARGES


@<TRIPOS>ATOM
   1 S1            -0.0225     1.8057     0.0120 S.3     
   2 C2             0.0021    -0.0041     0.0020 C.3     
   3 C3            -5.4194    -2.0038     0.0430 C.3     
   4 S4            -6.5760    -0.6117     0.0629 S.3     
   5 C5            -8.1062    -1.4853     0.0726 C.2     
   6 N6            -9.2941    -0.7917     0.0884 N.pl3   
   7 N7            -8.1126    -2.7895     0.0647 N.2     
   8 C8             1.7084     2.1353    -0.0028 C.2     
   9 N9             2.1613     3.4343    -0.0001 N.pl3   
  10 N10            2.5602     1.1477    -0.0162 N.2     
  11 C11           -2.0716    -0.7585    -1.1794 C.ar    
  12 C12           -1.4117    -0.5257     0.0127 C.ar    
  13 C13           -2.0486    -0.7718     1.2147 C.ar    
  14 C14           -3.3454    -1.2503     1.2245 C.ar    
  15 C15           -4.0056    -1.4822     0.0323 C.ar    
  16 C16           -3.3691    -1.2353    -1.1696 C.ar    
  17 H17            0.5123    -0.3556    -0.8948 H       
  18 H18            0.5293    -0.3651     0.8851 H       
  19 H19           -5.5737    -2.6171     0.9309 H       
  20 H20           -5.5912    -2.6062    -0.8490 H       
  21 H21           -9.2894     0.1783     0.0943 H       
  22 H22          -10.1365    -1.2726     0.0938 H       
  23 H23           -8.9549    -3.2704     0.0700 H       
  24 H24            1.5278     4.1688     0.0099 H       
  25 H25            3.1141     3.6157    -0.0083 H       
  26 H26            3.5130     1.3291    -0.0243 H       
  27 H27           -1.5755    -0.5623    -2.1185 H       
  28 H28           -1.5328    -0.5906     2.1461 H       
  29 H29           -3.8428    -1.4432     2.1636 H       
  30 H30           -3.8848    -1.4168    -2.1010 H       
@<TRIPOS>BOND
   1    1    2 1
   2    1    8 1
   3    2   12 1
   4    2   17 1
   5    2   18 1
   6    3    4 1
   7    3   15 1
   8    3   19 1
   9    3   20 1
  10    4    5 1
  11    5    6 1
  12    5    7 2
  13    6   21 1
  14    6   22 1
  15    7   23 1
  16    8    9 1
  17    8   10 2
  18    9   24 1
  19    9   25 1
  20   10   26 1
  21   11   12 ar
  22   11   16 ar
  23   11   27 1
  24   12   13 ar
  25   13   14 ar
  26   13   28 1
  27   14   15 ar
  28   14   29 1
  29   15   16 ar
  30   16   30 1

#	End of record

