#	Name: ASD03731149
#	Creating user name:	WinNT
#	Creation time:	15. 06. 2019 20:45

#	Modifying user name:	WinNT
#	Modification time:	15. 06. 2019 20:45

#	Program:	/corina/corina34_cracker 3.40 0067  02.08.2006

@<TRIPOS>MOLECULE
ASD03731149
  50   54    0    0    0
SMALL
NO_CHARGES


@<TRIPOS>ATOM
   1 O1            -0.0175     1.4361     0.0099 O.3     
   2 C2             0.0021    -0.0041     0.0020 C.3     
   3 C3             1.3451    -0.3163    -0.6721 C.3     
   4 C4             2.1587     0.9226    -0.4098 C.ar    
   5 C5             1.2615     1.9062     0.0003 C.ar    
   6 C6             1.7486     3.1673     0.3277 C.ar    
   7 C7             3.1031     3.4386     0.2364 C.ar    
   8 C8             3.9847     2.4527    -0.1831 C.ar    
   9 C9             3.5059     1.1961    -0.5043 C.ar    
  10 N10            2.1574    -2.4046    -1.1246 N.am    
  11 C11            1.9841    -1.5482    -0.0982 C.2     
  12 C12            1.1866    -0.5961    -2.1370 C.ar    
  13 C13            0.6757     0.1246    -3.1937 C.ar    
  14 C14            0.6686    -0.4210    -4.4651 C.ar    
  15 C15            1.1757    -1.6909    -4.6725 C.ar    
  16 C16            1.6886    -2.4163    -3.6174 C.ar    
  17 C17            1.6999    -1.8755    -2.3339 C.ar    
  18 O18            2.2851    -1.7358     1.0617 O.2     
  19 O19            3.5704     4.6735     0.5581 O.3     
  20 C20            4.9788     4.8850     0.4413 C.3     
  21 F21            5.3751     4.6662    -0.8824 F       
  22 F22            5.2850     6.1997     0.8085 F       
  23 F23            5.6552     3.9960     1.2836 F       
  24 C24            2.7564    -3.7346    -0.9881 C.3     
  25 C25            1.6763    -4.7445    -0.6969 C.ar    
  26 C26            1.0382    -5.3922    -1.7385 C.ar    
  27 C27            0.0478    -6.3183    -1.4742 C.ar    
  28 C28           -0.3063    -6.5983    -0.1624 C.ar    
  29 C29            0.3355    -5.9470     0.8809 C.ar    
  30 C30            1.3292    -5.0258     0.6115 C.ar    
  31 O31           -1.2806    -7.5086     0.1002 O.3     
  32 C32           -1.5930    -7.7465     1.4742 C.3     
  33 H33           -0.0211    -0.3969     1.0185 H       
  34 H34           -0.8268    -0.3990    -0.5855 H       
  35 H35            1.0669     3.9386     0.6543 H       
  36 H36            5.0407     2.6661    -0.2586 H       
  37 H37            4.1899     0.4264    -0.8301 H       
  38 H38            0.2802     1.1161    -3.0296 H       
  39 H39            0.2674     0.1434    -5.2938 H       
  40 H40            1.1697    -2.1166    -5.6650 H       
  41 H41            2.0826    -3.4074    -3.7871 H       
  42 H42            3.2631    -4.0018    -1.9154 H       
  43 H43            3.4764    -3.7266    -0.1698 H       
  44 H44            1.3139    -5.1737    -2.7596 H       
  45 H45           -0.4506    -6.8238    -2.2882 H       
  46 H46            0.0616    -6.1632     1.9030 H       
  47 H47            1.8324    -4.5220     1.4235 H       
  48 H48           -0.7050    -8.1106     1.9909 H       
  49 H49           -1.9274    -6.8179     1.9368 H       
  50 H50           -2.3848    -8.4924     1.5429 H       
@<TRIPOS>BOND
   1    1    2 1
   2    1    5 1
   3    2    3 1
   4    2   33 1
   5    2   34 1
   6    3    4 1
   7    3   11 1
   8    3   12 1
   9    4    5 ar
  10    4    9 ar
  11    5    6 ar
  12    6    7 ar
  13    6   35 1
  14    7    8 ar
  15    7   19 1
  16    8    9 ar
  17    8   36 1
  18    9   37 1
  19   10   11 am
  20   10   17 1
  21   10   24 1
  22   11   18 2
  23   12   13 ar
  24   12   17 ar
  25   13   14 ar
  26   13   38 1
  27   14   15 ar
  28   14   39 1
  29   15   16 ar
  30   15   40 1
  31   16   17 ar
  32   16   41 1
  33   19   20 1
  34   20   21 1
  35   20   22 1
  36   20   23 1
  37   24   25 1
  38   24   42 1
  39   24   43 1
  40   25   26 ar
  41   25   30 ar
  42   26   27 ar
  43   26   44 1
  44   27   28 ar
  45   27   45 1
  46   28   29 ar
  47   28   31 1
  48   29   30 ar
  49   29   46 1
  50   30   47 1
  51   31   32 1
  52   32   48 1
  53   32   49 1
  54   32   50 1

#	End of record

