#	Name: ASD00190008
#	Creating user name:	WinNT
#	Creation time:	15. 06. 2019 18:33

#	Modifying user name:	WinNT
#	Modification time:	15. 06. 2019 18:33

#	Program:	/corina/corina34_cracker 3.40 0067  02.08.2006

@<TRIPOS>MOLECULE
ASD00190008
  44   49    0    0    0
SMALL
NO_CHARGES


@<TRIPOS>ATOM
   1 C1             0.1387     1.4617     1.1620 C.ar    
   2 C2             0.1857     0.0855     1.3527 C.ar    
   3 C3             1.3380    -0.6132     1.1455 C.ar    
   4 C4             2.4981     0.0605     0.7333 C.ar    
   5 C5             2.4439     1.4610     0.5409 C.ar    
   6 C6             1.2496     2.1480     0.7612 C.ar    
   7 N7             3.6433    -0.6054     0.5236 N.ar    
   8 C8             4.7515    -0.0104     0.1376 C.ar    
   9 C9             4.8119     1.3742    -0.0829 C.ar    
  10 C10            3.6624     2.1520     0.1104 C.ar    
  11 N11            5.8037     2.2469    -0.4786 N.pl3   
  12 C12            5.2474     3.4977    -0.5137 C.2     
  13 N13            3.9786     3.4219    -0.1620 N.2     
  14 N14            5.8936    -0.7739    -0.0569 N.pl3   
  15 C15            5.8283    -2.1662     0.0418 C.ar    
  16 C16            5.9514     4.7277    -0.8849 C.2     
  17 C17            4.6829    -2.8302    -0.3573 C.ar    
  18 C18            4.6207    -4.2167    -0.2585 C.ar    
  19 C19            5.7247    -4.9297     0.2469 C.ar    
  20 C20            6.8752    -4.2358     0.6457 C.ar    
  21 C21            6.9224    -2.8785     0.5374 C.ar    
  22 C22            7.2459     4.8375    -1.2499 C.2     
  23 C23            7.5745     6.2273    -1.5434 C.2     
  24 C24            6.5120     7.0111    -1.3728 C.2     
  25 C25            5.3678     6.1222    -0.9402 C.3     
  26 N26            3.6589    -5.1467    -0.5612 N.pl3   
  27 N27            4.1647    -6.4138    -0.2462 N.2     
  28 C28            5.3715    -6.3011     0.2271 C.2     
  29 H29           -0.7867     1.9930     1.3281 H       
  30 H30           -0.7040    -0.4381     1.6702 H       
  31 H31            1.3580    -1.6821     1.2984 H       
  32 H32            1.2036     3.2171     0.6152 H       
  33 H33            6.7220     2.0180    -0.6915 H       
  34 H34            6.7373    -0.3412    -0.2612 H       
  35 H35            3.8406    -2.2753    -0.7435 H       
  36 H36            7.7251    -4.7768     1.0345 H       
  37 H37            7.8111    -2.3478     0.8455 H       
  38 H38            7.9402     4.0128    -1.3148 H       
  39 H39            8.5482     6.5741    -1.8566 H       
  40 H40            6.4733     8.0803    -1.5201 H       
  41 H41            4.5558     6.1707    -1.6657 H       
  42 H42            5.0123     6.4165     0.0472 H       
  43 H43            2.7812    -4.9593    -0.9293 H       
  44 H44            5.9996    -7.1177     0.5511 H       
@<TRIPOS>BOND
   1    1    2 ar
   2    1    6 ar
   3    1   29 1
   4    2    3 ar
   5    2   30 1
   6    3    4 ar
   7    3   31 1
   8    4    5 ar
   9    4    7 ar
  10    5    6 ar
  11    5   10 ar
  12    6   32 1
  13    7    8 ar
  14    8    9 ar
  15    8   14 1
  16    9   10 ar
  17    9   11 1
  18   10   13 1
  19   11   12 1
  20   11   33 1
  21   12   13 2
  22   12   16 1
  23   14   15 1
  24   14   34 1
  25   15   17 ar
  26   15   21 ar
  27   16   22 2
  28   16   25 1
  29   17   18 ar
  30   17   35 1
  31   18   19 ar
  32   18   26 1
  33   19   20 ar
  34   19   28 1
  35   20   21 ar
  36   20   36 1
  37   21   37 1
  38   22   23 1
  39   22   38 1
  40   23   24 2
  41   23   39 1
  42   24   25 1
  43   24   40 1
  44   25   41 1
  45   25   42 1
  46   26   27 1
  47   26   43 1
  48   27   28 2
  49   28   44 1

#	End of record

