#	Name: ASD00170514
#	Creating user name:	WinNT
#	Creation time:	15. 06. 2019 18:32

#	Modifying user name:	WinNT
#	Modification time:	15. 06. 2019 18:32

#	Program:	/corina/corina34_cracker 3.40 0067  02.08.2006

@<TRIPOS>MOLECULE
ASD00170514
  52   55    0    0    0
SMALL
NO_CHARGES


@<TRIPOS>ATOM
   1 C1            -0.0923     1.3821     0.0300 C.2     
   2 N2            -0.0289     0.0400    -0.0768 N.am    
   3 C3            -1.2455    -0.7823     0.0074 C.3     
   4 C4            -1.2814    -1.7237    -1.2012 C.3     
   5 N5            -0.0237    -2.4800    -1.2662 N.3     
   6 C6             1.1242    -1.5881    -1.4779 C.3     
   7 C7             1.2579    -0.6406    -0.2868 C.3     
   8 C8            -0.0851    -3.5151    -2.3067 C.3     
   9 C9             1.2877    -4.1015    -2.5135 C.2     
  10 C10            2.0880    -3.7502    -3.5079 C.2     
  11 S11            3.6018    -4.6340    -3.4359 S.3     
  12 C12            3.1276    -5.4842    -2.0368 C.2     
  13 C13            1.8669    -5.1014    -1.6412 C.2     
  14 C14            1.1821    -5.6518    -0.4718 C.2     
  15 O15            1.2480    -5.0763     0.5993 O.2     
  16 C16            0.4096    -6.9073    -0.5902 C.ar    
  17 C17           -0.3314    -7.3792     0.4948 C.ar    
  18 C18           -1.0497    -8.5505     0.3784 C.ar    
  19 C19           -1.0370    -9.2585    -0.8120 C.ar    
  20 C20           -0.3037    -8.7953    -1.8920 C.ar    
  21 C21            0.4139    -7.6222    -1.7893 C.ar    
  22 Cl22          -1.9433   -10.7327    -0.9509 Cl      
  23 N23            3.9035    -6.4228    -1.3873 N.pl3   
  24 C24            1.1510     2.1803     0.0621 C.ar    
  25 O25           -1.1723     1.9363     0.0948 O.2     
  26 C26            1.2177     3.4011    -0.6119 C.ar    
  27 C27            2.3805     4.1415    -0.5783 C.ar    
  28 C28            3.4811     3.6762     0.1223 C.ar    
  29 C29            3.4211     2.4655     0.7926 C.ar    
  30 C30            2.2617     1.7192     0.7714 C.ar    
  31 Cl31           4.9416     4.6138     0.1601 Cl      
  32 H32           -1.2291    -1.3673     0.9269 H       
  33 H33           -2.1245    -0.1378    -0.0042 H       
  34 H34           -2.1171    -2.4158    -1.0984 H       
  35 H35           -1.4022    -1.1398    -2.1136 H       
  36 H36            2.0330    -2.1819    -1.5758 H       
  37 H37            0.9698    -1.0061    -2.3865 H       
  38 H38            2.0347     0.0963    -0.4905 H       
  39 H39            1.5144    -1.2097     0.6068 H       
  40 H40           -0.7732    -4.3016    -1.9967 H       
  41 H41           -0.4354    -3.0726    -3.2392 H       
  42 H42            1.8417    -3.0181    -4.2627 H       
  43 H43           -0.3417    -6.8281     1.4236 H       
  44 H44           -1.6230    -8.9167     1.2172 H       
  45 H45           -0.2976    -9.3516    -2.8177 H       
  46 H46            0.9851    -7.2618    -2.6321 H       
  47 H47            4.7560    -6.6918    -1.7639 H       
  48 H48            3.5963    -6.8134    -0.5543 H       
  49 H49            0.3603     3.7648    -1.1588 H       
  50 H50            2.4334     5.0859    -1.0996 H       
  51 H51            4.2826     2.1074     1.3366 H       
  52 H52            2.2161     0.7754     1.2943 H       
@<TRIPOS>BOND
   1    1    2 am
   2    1   24 1
   3    1   25 2
   4    2    3 1
   5    2    7 1
   6    3    4 1
   7    3   32 1
   8    3   33 1
   9    4    5 1
  10    4   34 1
  11    4   35 1
  12    5    6 1
  13    5    8 1
  14    6    7 1
  15    6   36 1
  16    6   37 1
  17    7   38 1
  18    7   39 1
  19    8    9 1
  20    8   40 1
  21    8   41 1
  22    9   10 2
  23    9   13 1
  24   10   11 1
  25   10   42 1
  26   11   12 1
  27   12   13 2
  28   12   23 1
  29   13   14 1
  30   14   15 2
  31   14   16 1
  32   16   17 ar
  33   16   21 ar
  34   17   18 ar
  35   17   43 1
  36   18   19 ar
  37   18   44 1
  38   19   20 ar
  39   19   22 1
  40   20   21 ar
  41   20   45 1
  42   21   46 1
  43   23   47 1
  44   23   48 1
  45   24   26 ar
  46   24   30 ar
  47   26   27 ar
  48   26   49 1
  49   27   28 ar
  50   27   50 1
  51   28   29 ar
  52   28   31 1
  53   29   30 ar
  54   29   51 1
  55   30   52 1

#	End of record

