#	Name: ASD01911842
#	Creating user name:	WinNT
#	Creation time:	15. 06. 2019 19:58

#	Modifying user name:	WinNT
#	Modification time:	15. 06. 2019 19:58

#	Program:	/corina/corina34_cracker 3.40 0067  02.08.2006

@<TRIPOS>MOLECULE
ASD01911842
  35   37    0    0    0
SMALL
NO_CHARGES


@<TRIPOS>ATOM
   1 C1            -1.0973    -1.0220     2.6618 C.ar    
   2 C2            -1.1725    -0.1944     1.5455 C.ar    
   3 C3            -1.3228     1.1725     1.7293 C.ar    
   4 N4            -1.3939     1.6844     2.9421 N.ar    
   5 C5            -1.3260     0.9283     4.0201 C.ar    
   6 C6            -1.1763    -0.4424     3.9175 C.ar    
   7 O7            -1.0992    -0.7175     0.2934 O.3     
   8 C8            -0.9523    -2.0629     0.1718 C.ar    
   9 C9             0.2897    -2.6008    -0.1375 C.ar    
  10 C10            0.4408    -3.9686    -0.2610 C.ar    
  11 C11           -0.6431    -4.8055    -0.0773 C.ar    
  12 C12           -1.8884    -4.2730     0.2319 C.ar    
  13 C13           -2.0409    -2.8994     0.3620 C.ar    
  14 N14           -2.9855    -5.1199     0.4169 N.am    
  15 C15           -4.2211    -4.7073     0.0711 C.2     
  16 C16           -5.3956    -5.5616     0.3621 C.ar    
  17 C17           -6.6691    -5.1294     0.0023 C.ar    
  18 C18           -7.7603    -5.9391     0.2806 C.ar    
  19 C19           -7.5398    -7.1529     0.9092 C.ar    
  20 N20           -5.2239    -6.7355     0.9592 N.ar    
  21 O21           -4.3716    -3.6344    -0.4795 O.2     
  22 C22           -6.2420    -7.5220     1.2404 C.ar    
  23 F23           -6.0210    -8.7052     1.8539 F       
  24 H24           -0.9847    -2.0904     2.5517 H       
  25 H25           -1.3819     1.8239     0.8699 H       
  26 H26           -1.3878     1.3858     4.9965 H       
  27 H27           -1.1219    -1.0540     4.8059 H       
  28 H28            1.1388    -1.9492    -0.2820 H       
  29 H29            1.4079    -4.3844    -0.5020 H       
  30 H30           -0.5223    -5.8743    -0.1745 H       
  31 H31           -3.0079    -2.4828     0.6024 H       
  32 H32           -2.8574    -6.0043     0.7941 H       
  33 H33           -6.8056    -4.1762    -0.4868 H       
  34 H34           -8.7598    -5.6295     0.0133 H       
  35 H35           -8.3683    -7.8061     1.1400 H       
@<TRIPOS>BOND
   1    1    2 ar
   2    1    6 ar
   3    1   24 1
   4    2    3 ar
   5    2    7 1
   6    3    4 ar
   7    3   25 1
   8    4    5 ar
   9    5    6 ar
  10    5   26 1
  11    6   27 1
  12    7    8 1
  13    8    9 ar
  14    8   13 ar
  15    9   10 ar
  16    9   28 1
  17   10   11 ar
  18   10   29 1
  19   11   12 ar
  20   11   30 1
  21   12   13 ar
  22   12   14 1
  23   13   31 1
  24   14   15 am
  25   14   32 1
  26   15   16 1
  27   15   21 2
  28   16   17 ar
  29   16   20 ar
  30   17   18 ar
  31   17   33 1
  32   18   19 ar
  33   18   34 1
  34   19   22 ar
  35   19   35 1
  36   20   22 ar
  37   22   23 1

#	End of record

