#	Name: ASD01911548
#	Creating user name:	WinNT
#	Creation time:	15. 06. 2019 19:58

#	Modifying user name:	WinNT
#	Modification time:	15. 06. 2019 19:58

#	Program:	/corina/corina34_cracker 3.40 0067  02.08.2006

@<TRIPOS>MOLECULE
ASD01911548
  43   45    0    0    0
SMALL
NO_CHARGES


@<TRIPOS>ATOM
   1 N1            -0.0172     1.4662    -0.0056 N.am    
   2 C2            -1.3259     2.1389    -0.0232 C.3     
   3 C3            -2.1662     1.5320    -1.1526 C.3     
   4 O4            -2.1855     0.1094    -1.0128 O.3     
   5 C5            -0.9010    -0.5075    -1.1288 C.3     
   6 C6             0.0042    -0.0052    -0.0039 C.3     
   7 C7             1.1280     2.1767     0.0030 C.2     
   8 C8             1.0833     3.6794    -0.1023 C.3     
   9 C9             2.2137     4.3142     0.7224 C.3     
  10 S10            1.4529     4.2156    -1.8039 S.3     
  11 C11            2.9027     5.1365    -1.3867 C.2     
  12 N12            3.1153     5.0703    -0.1180 N.2     
  13 C13            3.7199     5.8507    -2.3208 C.1     
  14 C14            4.3900     6.4361    -3.0867 C.1     
  15 C15            5.2073     7.1503    -4.0209 C.ar    
  16 C16            6.3352     7.8471    -3.5781 C.ar    
  17 C17            7.1174     8.5325    -4.4837 C.ar    
  18 C18            6.7881     8.5317    -5.8278 C.ar    
  19 C19            5.6729     7.8441    -6.2737 C.ar    
  20 C20            4.8843     7.1493    -5.3808 C.ar    
  21 O21            2.1946     1.6068     0.0954 O.2     
  22 C22           -3.5953     2.0727    -1.0734 C.3     
  23 C23           -1.0525    -2.0265    -1.0255 C.3     
  24 H24           -1.8295     1.9870     0.9314 H       
  25 H25           -1.1880     3.2055    -0.2006 H       
  26 H26           -1.7286     1.7974    -2.1150 H       
  27 H27           -0.4588    -0.2496    -2.0911 H       
  28 H28            1.0223    -0.3592    -0.1661 H       
  29 H29           -0.3639    -0.3710     0.9546 H       
  30 H30            0.1132     4.0574     0.2204 H       
  31 H31            1.7806     4.9787     1.4700 H       
  32 H32            2.7726     3.5268     1.2280 H       
  33 H33            6.5932     7.8489    -2.5293 H       
  34 H34            7.9890     9.0717    -4.1430 H       
  35 H35            7.4042     9.0706    -6.5323 H       
  36 H36            5.4221     7.8479    -7.3242 H       
  37 H37            4.0143     6.6131    -5.7302 H       
  38 H38           -3.5795     3.1578    -1.1755 H       
  39 H39           -4.1922     1.6408    -1.8767 H       
  40 H40           -4.0324     1.8047    -0.1115 H       
  41 H41           -1.6998    -2.3824    -1.8270 H       
  42 H42           -0.0728    -2.4961    -1.1141 H       
  43 H43           -1.4926    -2.2831    -0.0619 H       
@<TRIPOS>BOND
   1    1    2 1
   2    1    7 am
   3    1    6 1
   4    2    3 1
   5    2   24 1
   6    2   25 1
   7    3    4 1
   8    3   22 1
   9    3   26 1
  10    4    5 1
  11    5    6 1
  12    5   23 1
  13    5   27 1
  14    6   28 1
  15    6   29 1
  16    7    8 1
  17    7   21 2
  18    8    9 1
  19    8   10 1
  20    8   30 1
  21    9   12 1
  22    9   31 1
  23    9   32 1
  24   10   11 1
  25   11   12 2
  26   11   13 1
  27   13   14 3
  28   14   15 1
  29   15   16 ar
  30   15   20 ar
  31   16   17 ar
  32   16   33 1
  33   17   18 ar
  34   17   34 1
  35   18   19 ar
  36   18   35 1
  37   19   20 ar
  38   19   36 1
  39   20   37 1
  40   22   38 1
  41   22   39 1
  42   22   40 1
  43   23   41 1
  44   23   42 1
  45   23   43 1

#	End of record

