#	Name: ASD03091310
#	Creating user name:	WinNT
#	Creation time:	15. 06. 2019 20:30

#	Modifying user name:	WinNT
#	Modification time:	15. 06. 2019 20:30

#	Program:	/corina/corina34_cracker 3.40 0067  02.08.2006

@<TRIPOS>MOLECULE
ASD03091310
  64   68    0    0    0
SMALL
NO_CHARGES


@<TRIPOS>ATOM
   1 N1             0.4869     1.0995     0.1224 N.2     
   2 C2             0.2441    -0.1806     0.0062 C.2     
   3 N3             1.2196    -1.1055    -0.2526 N.am    
   4 C4             2.5078    -0.7182    -0.4024 C.2     
   5 C5             2.8041     0.7166    -0.2763 C.ar    
   6 C6             4.0982     1.2135    -0.4139 C.ar    
   7 C7             4.3202     2.5741    -0.2853 C.ar    
   8 C8             3.2596     3.4408    -0.0205 C.ar    
   9 C9             1.9862     2.9685     0.1173 C.ar    
  10 C10            1.7329     1.5989    -0.0075 C.ar    
  11 O11            3.3879    -1.5271    -0.6324 O.2     
  12 C12            0.8673    -2.5228    -0.3677 C.3     
  13 C13            0.6493    -2.8763    -1.8402 C.3     
  14 C14            0.2172    -4.3395    -1.9550 C.3     
  15 C15           -0.4403    -1.9754    -2.4251 C.3     
  16 C16            1.9531    -2.6674    -2.6133 C.3     
  17 O17            0.0136    -4.6696    -3.3303 O.3     
  18 C18           -1.1478    -0.6501     0.1619 C.ar    
  19 C19           -1.4681    -1.5815     1.1547 C.ar    
  20 C20           -2.7730    -2.0156     1.2944 C.ar    
  21 C21           -3.7594    -1.5310     0.4554 C.ar    
  22 C22           -3.4484    -0.6085    -0.5297 C.ar    
  23 C23           -2.1506    -0.1620    -0.6775 C.ar    
  24 F24           -0.5049    -2.0558     1.9747 F       
  25 Cl25          -4.6953    -0.0072    -1.5773 Cl      
  26 N26            8.2746     3.4594    -1.6682 N.3     
  27 C27            8.0227     2.4958    -0.5858 C.3     
  28 C28            6.5853     2.0012    -0.6306 C.3     
  29 N29            5.6151     3.0824    -0.4212 N.3     
  30 C30            5.6848     4.0602    -1.5161 C.3     
  31 C31            6.6117     5.2080    -1.1447 C.3     
  32 C32            8.0790     4.8306    -1.1759 C.3     
  33 C33            7.5944     3.2079    -2.9205 C.3     
  34 C34            6.0862     3.3478    -2.7948 C.3     
  35 H35            4.9205     0.5438    -0.6185 H       
  36 H36            3.4485     4.4996     0.0771 H       
  37 H37            1.1754     3.6518     0.3225 H       
  38 H38            1.6757    -3.1321     0.0364 H       
  39 H39           -0.0480    -2.7162     0.1917 H       
  40 H40            0.9935    -4.9813    -1.5383 H       
  41 H41           -0.7116    -4.4883    -1.4042 H       
  42 H42           -0.1238    -0.9343    -2.3614 H       
  43 H43           -0.6096    -2.2405    -3.4687 H       
  44 H44           -1.3637    -2.1095    -1.8617 H       
  45 H45            2.7293    -3.3092    -2.1966 H       
  46 H46            1.7978    -2.9192    -3.6623 H       
  47 H47            2.2609    -1.6249    -2.5315 H       
  48 H48           -0.2625    -5.5844    -3.4785 H       
  49 H49           -3.0225    -2.7351     2.0603 H       
  50 H50           -4.7773    -1.8737     0.5685 H       
  51 H51           -1.9109     0.5608    -1.4434 H       
  52 H52            8.6980     1.6473    -0.6960 H       
  53 H53            8.2067     2.9780     0.3743 H       
  54 H54            6.3996     1.5434    -1.6022 H       
  55 H55            6.4470     1.2477     0.1448 H       
  56 H56            4.6854     4.4678    -1.6683 H       
  57 H57            6.4473     6.0296    -1.8418 H       
  58 H58            6.3600     5.5494    -0.1406 H       
  59 H59            8.4881     4.9088    -0.1687 H       
  60 H60            8.6105     5.5224    -1.8293 H       
  61 H61            7.9541     3.9164    -3.6667 H       
  62 H62            7.8291     2.1969    -3.2535 H       
  63 H63            5.6364     2.3549    -2.8034 H       
  64 H64            5.7104     3.9126    -3.6480 H       
@<TRIPOS>BOND
   1    1    2 2
   2    1   10 1
   3    2    3 1
   4    2   18 1
   5    3    4 am
   6    3   12 1
   7    4    5 1
   8    4   11 2
   9    5    6 ar
  10    5   10 ar
  11    6    7 ar
  12    6   35 1
  13    7    8 ar
  14    7   29 1
  15    8    9 ar
  16    8   36 1
  17    9   10 ar
  18    9   37 1
  19   12   13 1
  20   12   38 1
  21   12   39 1
  22   13   14 1
  23   13   15 1
  24   13   16 1
  25   14   17 1
  26   14   40 1
  27   14   41 1
  28   15   42 1
  29   15   43 1
  30   15   44 1
  31   16   45 1
  32   16   46 1
  33   16   47 1
  34   17   48 1
  35   18   19 ar
  36   18   23 ar
  37   19   20 ar
  38   19   24 1
  39   20   21 ar
  40   20   49 1
  41   21   22 ar
  42   21   50 1
  43   22   23 ar
  44   22   25 1
  45   23   51 1
  46   26   27 1
  47   26   32 1
  48   26   33 1
  49   27   28 1
  50   27   52 1
  51   27   53 1
  52   28   29 1
  53   28   54 1
  54   28   55 1
  55   29   30 1
  56   30   31 1
  57   30   34 1
  58   30   56 1
  59   31   32 1
  60   31   57 1
  61   31   58 1
  62   32   59 1
  63   32   60 1
  64   33   34 1
  65   33   61 1
  66   33   62 1
  67   34   63 1
  68   34   64 1

#	End of record

