#	Name: ASD01913960
#	Creating user name:	WinNT
#	Creation time:	15. 06. 2019 20:02

#	Modifying user name:	WinNT
#	Modification time:	15. 06. 2019 20:02

#	Program:	/corina/corina34_cracker 3.40 0067  02.08.2006

@<TRIPOS>MOLECULE
ASD01913960
  39   42    0    0    0
SMALL
NO_CHARGES


@<TRIPOS>ATOM
   1 C1            -0.0016     1.4026    -0.1147 C.ar    
   2 C2             0.0099     0.0190    -0.1026 C.ar    
   3 C3             1.2129    -0.6630    -0.0759 C.ar    
   4 C4             2.4005     0.0486    -0.0619 C.ar    
   5 C5             2.3955     1.4562    -0.0918 C.ar    
   6 C6             1.1803     2.1197    -0.1097 C.ar    
   7 C7             3.7239    -0.6001     0.0098 C.2     
   8 C8             4.8373     0.1672     0.3006 C.2     
   9 C9             4.7178     1.6477     0.5502 C.3     
  10 O10            3.5613     2.1459    -0.1275 O.3     
  11 N11            4.1343    -1.8682    -0.1563 N.pl3   
  12 N12            5.5279    -1.8905     0.0309 N.2     
  13 C13            5.9346    -0.6705     0.3026 C.2     
  14 C14            7.3585    -0.2560     0.5707 C.3     
  15 C15            3.2848    -3.0188    -0.4737 C.3     
  16 N16            8.0043     0.1165    -0.6904 N.pl3   
  17 C17            9.3358     0.5382    -0.6953 C.ar    
  18 C18            9.9493     0.8917    -1.8899 C.ar    
  19 C19           11.2674     1.3086    -1.8909 C.ar    
  20 C20           11.9746     1.3736    -0.7032 C.ar    
  21 C21           11.3656     1.0220     0.4876 C.ar    
  22 C22           10.0475     0.6103     0.4959 C.ar    
  23 Cl23          12.0362     1.7503    -3.3834 Cl      
  24 H24           -0.9448     1.9283    -0.1326 H       
  25 H25           -0.9209    -0.5286    -0.1136 H       
  26 H26            1.2258    -1.7429    -0.0658 H       
  27 H27            1.1558     3.1994    -0.1202 H       
  28 H28            4.6194     1.8299     1.6203 H       
  29 H29            5.6069     2.1535     0.1738 H       
  30 H30            7.3670     0.5970     1.2491 H       
  31 H31            7.8993    -1.0865     1.0244 H       
  32 H32            3.1183    -3.0616    -1.5501 H       
  33 H33            3.7760    -3.9347    -0.1453 H       
  34 H34            2.3279    -2.9161     0.0381 H       
  35 H35            7.5071     0.0704    -1.5221 H       
  36 H36            9.3976     0.8407    -2.8169 H       
  37 H37           13.0043     1.6992    -0.7062 H       
  38 H38           11.9203     1.0735     1.4128 H       
  39 H39            9.5728     0.3364     1.4264 H       
@<TRIPOS>BOND
   1    1    2 ar
   2    1    6 ar
   3    1   24 1
   4    2    3 ar
   5    2   25 1
   6    3    4 ar
   7    3   26 1
   8    4    5 ar
   9    4    7 1
  10    5    6 ar
  11    5   10 1
  12    6   27 1
  13    7    8 2
  14    7   11 1
  15    8    9 1
  16    8   13 1
  17    9   10 1
  18    9   28 1
  19    9   29 1
  20   11   12 1
  21   11   15 1
  22   12   13 2
  23   13   14 1
  24   14   16 1
  25   14   30 1
  26   14   31 1
  27   15   32 1
  28   15   33 1
  29   15   34 1
  30   16   17 1
  31   16   35 1
  32   17   18 ar
  33   17   22 ar
  34   18   19 ar
  35   18   36 1
  36   19   20 ar
  37   19   23 1
  38   20   21 ar
  39   20   37 1
  40   21   22 ar
  41   21   38 1
  42   22   39 1

#	End of record

