#	Name: ASD01910376
#	Creating user name:	WinNT
#	Creation time:	15. 06. 2019 19:55

#	Modifying user name:	WinNT
#	Modification time:	15. 06. 2019 19:55

#	Program:	/corina/corina34_cracker 3.40 0067  02.08.2006

@<TRIPOS>MOLECULE
ASD01910376
  58   60    0    0    0
SMALL
NO_CHARGES


@<TRIPOS>ATOM
   1 C1             0.9836     1.7325    -0.5927 C.ar    
   2 C2             0.8840     0.3046    -0.5501 C.1     
   3 C3             0.8023    -0.8660    -0.5152 C.1     
   4 C4             0.7027    -2.2939    -0.4726 C.ar    
   5 C5             1.5176    -3.0774    -1.2974 C.ar    
   6 C6             1.4224    -4.4391    -1.2559 C.ar    
   7 C7             0.5108    -5.0504    -0.3900 C.ar    
   8 C8            -0.3040    -4.2683     0.4340 C.ar    
   9 C9            -0.2055    -2.9066     0.3980 C.ar    
  10 C10            0.4081    -6.5225    -0.3461 C.2     
  11 O11           -0.6834    -7.0540    -0.2794 O.2     
  12 N12            1.5242    -7.2771    -0.3798 N.am    
  13 C13            0.1712     2.5180     0.2297 C.ar    
  14 C14            0.2728     3.8926     0.1831 C.ar    
  15 C15            1.1759     4.4944    -0.6755 C.ar    
  16 C16            1.9836     3.7232    -1.4928 C.ar    
  17 C17            1.8978     2.3474    -1.4528 C.ar    
  18 C18            1.4443    -8.7382    -0.2471 C.3     
  19 C19            2.3763    -9.1822     0.8848 C.3     
  20 C20            3.7865    -8.6516     0.6167 C.3     
  21 C21            3.7603    -7.1218     0.5846 C.3     
  22 C22            2.8435    -6.6550    -0.5563 C.3     
  23 N23            4.6903    -9.1034     1.6830 N.3     
  24 C24            5.2132   -10.4459     1.3964 C.3     
  25 C25            6.4383   -10.3326     0.4869 C.3     
  26 C26            5.6119   -11.1284     2.7064 C.3     
  27 C27            4.3650   -11.3542     3.5638 C.3     
  28 C28            4.7638   -12.0367     4.8739 C.3     
  29 H29            2.2214    -2.6053    -1.9669 H       
  30 H30            2.0513    -5.0439    -1.8925 H       
  31 H31           -1.0085    -4.7411     1.1022 H       
  32 H32           -0.8349    -2.3025     1.0346 H       
  33 H33           -0.5345     2.0498     0.8998 H       
  34 H34           -0.3543     4.5009     0.8180 H       
  35 H35            1.2505     5.5713    -0.7082 H       
  36 H36            2.6859     4.1999    -2.1607 H       
  37 H37            2.5288     1.7468    -2.0912 H       
  38 H38            0.4202    -9.0283    -0.0122 H       
  39 H39            1.7541    -9.2075    -1.1808 H       
  40 H40            2.0123    -8.7854     1.8325 H       
  41 H41            2.3998   -10.2710     0.9307 H       
  42 H42            4.1401    -9.0290    -0.3428 H       
  43 H43            3.3833    -6.7444     1.5352 H       
  44 H44            4.7689    -6.7441     0.4169 H       
  45 H45            3.2698    -6.9548    -1.5136 H       
  46 H46            2.7420    -5.5702    -0.5228 H       
  47 H47            5.4418    -8.4449     1.8232 H       
  48 H48            4.4443   -11.0366     0.8983 H       
  49 H49            6.7749   -11.3301     0.2048 H       
  50 H50            6.1747    -9.7710    -0.4094 H       
  51 H51            7.2380    -9.8158     1.0174 H       
  52 H52            6.0814   -12.0876     2.4881 H       
  53 H53            6.3147   -10.4945     3.2470 H       
  54 H54            3.8955   -10.3951     3.7821 H       
  55 H55            3.6622   -11.9881     3.0232 H       
  56 H56            5.2332   -12.9959     4.6556 H       
  57 H57            5.4666   -11.4028     5.4145 H       
  58 H58            3.8755   -12.1976     5.4847 H       
@<TRIPOS>BOND
   1    1    2 1
   2    1   13 ar
   3    1   17 ar
   4    2    3 3
   5    3    4 1
   6    4    5 ar
   7    4    9 ar
   8    5    6 ar
   9    5   29 1
  10    6    7 ar
  11    6   30 1
  12    7    8 ar
  13    7   10 1
  14    8    9 ar
  15    8   31 1
  16    9   32 1
  17   10   11 2
  18   10   12 am
  19   12   18 1
  20   12   22 1
  21   13   14 ar
  22   13   33 1
  23   14   15 ar
  24   14   34 1
  25   15   16 ar
  26   15   35 1
  27   16   17 ar
  28   16   36 1
  29   17   37 1
  30   18   19 1
  31   18   38 1
  32   18   39 1
  33   19   20 1
  34   19   40 1
  35   19   41 1
  36   20   21 1
  37   20   23 1
  38   20   42 1
  39   21   22 1
  40   21   43 1
  41   21   44 1
  42   22   45 1
  43   22   46 1
  44   23   24 1
  45   23   47 1
  46   24   25 1
  47   24   26 1
  48   24   48 1
  49   25   49 1
  50   25   50 1
  51   25   51 1
  52   26   27 1
  53   26   52 1
  54   26   53 1
  55   27   28 1
  56   27   54 1
  57   27   55 1
  58   28   56 1
  59   28   57 1
  60   28   58 1

#	End of record

