#	Name: ASD01420031
#	Creating user name:	WinNT
#	Creation time:	15. 06. 2019 19:20

#	Modifying user name:	WinNT
#	Modification time:	15. 06. 2019 19:20

#	Program:	/corina/corina34_cracker 3.40 0067  02.08.2006

@<TRIPOS>MOLECULE
ASD01420031
  51   53    0    0    0
SMALL
NO_CHARGES


@<TRIPOS>ATOM
   1 C1            -0.0162     1.3411     0.0094 C.2     
   2 N2             0.0021    -0.0041     0.0020 N.am    
   3 C3             1.2636    -0.4708    -0.0125 C.2     
   4 C4             2.1903     0.6754    -0.0152 C.ar    
   5 C5             3.5758     0.8061    -0.0278 C.ar    
   6 C6             4.1465     2.0779    -0.0264 C.ar    
   7 C7             3.3469     3.2016    -0.0127 C.ar    
   8 C8             1.9641     3.0839     0.0003 C.ar    
   9 C9             1.3787     1.8294    -0.0013 C.ar    
  10 O10           -1.0115     2.0372     0.0181 O.2     
  11 O11            1.5856    -1.6423    -0.0213 O.2     
  12 O12            4.3653    -0.2963    -0.0408 O.3     
  13 C13            5.7782    -0.0823    -0.0531 C.3     
  14 C14            6.4983    -1.4322    -0.0667 C.3     
  15 O15            6.2085    -2.1143    -1.2885 O.3     
  16 C16            6.8360    -3.3931    -1.4031 C.3     
  17 C17            6.4578    -4.0285    -2.7425 C.3     
  18 O18            6.9965    -3.2461    -3.8100 O.3     
  19 C19            6.6993    -3.7556    -5.1116 C.3     
  20 C20           -1.1945    -0.8493     0.0097 C.3     
  21 C21           -1.6188    -1.1320    -1.4084 C.ar    
  22 C22           -1.1220    -2.2401    -2.0697 C.ar    
  23 C23           -1.5095    -2.5014    -3.3696 C.ar    
  24 C24           -2.3979    -1.6510    -4.0117 C.ar    
  25 C25           -2.8950    -0.5399    -3.3461 C.ar    
  26 C26           -2.5087    -0.2861    -2.0442 C.ar    
  27 O27           -2.7802    -1.9057    -5.2907 O.3     
  28 C28           -3.6975    -0.9875    -5.8886 C.3     
  29 H29            5.2213     2.1840    -0.0357 H       
  30 H30            3.8008     4.1816    -0.0118 H       
  31 H31            1.3459     3.9694     0.0117 H       
  32 H32            6.0520     0.4846    -0.9429 H       
  33 H33            6.0689     0.4757     0.8369 H       
  34 H34            7.5734    -1.2712     0.0134 H       
  35 H35            6.1573    -2.0344     0.7754 H       
  36 H36            7.9181    -3.2728    -1.3507 H       
  37 H37            6.5020    -4.0360    -0.5887 H       
  38 H38            6.8630    -5.0392    -2.7925 H       
  39 H39            5.3722    -4.0675    -2.8325 H       
  40 H40            7.1095    -4.7606    -5.2107 H       
  41 H41            5.6188    -3.7889    -5.2507 H       
  42 H42            7.1430    -3.1060    -5.8661 H       
  43 H43           -0.9727    -1.7884     0.5166 H       
  44 H44           -1.9995    -0.3347     0.5341 H       
  45 H45           -0.4301    -2.9016    -1.5695 H       
  46 H46           -1.1208    -3.3668    -3.8858 H       
  47 H47           -3.5867     0.1236    -3.8437 H       
  48 H48           -2.8991     0.5761    -1.5239 H       
  49 H49           -3.9191    -1.3067    -6.9070 H       
  50 H50           -4.6189    -0.9636    -5.3068 H       
  51 H51           -3.2542     0.0080    -5.9082 H       
@<TRIPOS>BOND
   1    1    2 am
   2    1    9 1
   3    1   10 2
   4    2    3 am
   5    2   20 1
   6    3    4 1
   7    3   11 2
   8    4    5 ar
   9    4    9 ar
  10    5    6 ar
  11    5   12 1
  12    6    7 ar
  13    6   29 1
  14    7    8 ar
  15    7   30 1
  16    8    9 ar
  17    8   31 1
  18   12   13 1
  19   13   14 1
  20   13   32 1
  21   13   33 1
  22   14   15 1
  23   14   34 1
  24   14   35 1
  25   15   16 1
  26   16   17 1
  27   16   36 1
  28   16   37 1
  29   17   18 1
  30   17   38 1
  31   17   39 1
  32   18   19 1
  33   19   40 1
  34   19   41 1
  35   19   42 1
  36   20   21 1
  37   20   43 1
  38   20   44 1
  39   21   22 ar
  40   21   26 ar
  41   22   23 ar
  42   22   45 1
  43   23   24 ar
  44   23   46 1
  45   24   25 ar
  46   24   27 1
  47   25   26 ar
  48   25   47 1
  49   26   48 1
  50   27   28 1
  51   28   49 1
  52   28   50 1
  53   28   51 1

#	End of record

