#	Name: ASD01530046
#	Creating user name:	WinNT
#	Creation time:	15. 06. 2019 19:22

#	Modifying user name:	WinNT
#	Modification time:	15. 06. 2019 19:22

#	Program:	/corina/corina34_cracker 3.40 0067  02.08.2006

@<TRIPOS>MOLECULE
ASD01530046
  31   30    0    0    0
SMALL
NO_CHARGES


@<TRIPOS>ATOM
   1 C1            -0.0167     1.3782     0.0096 C.ar    
   2 C2             0.0021    -0.0041     0.0020 C.ar    
   3 C3             1.1707     2.0862     0.0021 C.ar    
   4 C4             2.3773     1.4123    -0.0136 C.ar    
   5 C5             2.3967     0.0290    -0.0212 C.ar    
   6 C6             1.2081    -0.6790    -0.0132 C.ar    
   7 Cl7            3.9119    -0.8181    -0.0414 Cl      
   8 C8            -1.3320     2.1136     0.0199 C.3     
   9 C9            -1.7703     2.3546     1.4658 C.3     
  10 N10           -3.0525     3.0714     1.4758 N.3     
  11 C11           -3.5055     3.3209     2.8507 C.3     
  12 C12           -4.8407     4.0674     2.8203 C.3     
  13 Cl13          -6.0678     3.0693     1.9550 Cl      
  14 C14           -5.3125     4.3272     4.2524 C.3     
  15 H15           -0.9258    -0.5566     0.0083 H       
  16 H16            1.1554     3.1661     0.0081 H       
  17 H17            3.3048     1.9655    -0.0202 H       
  18 H18            1.2226    -1.7589    -0.0188 H       
  19 H19           -1.2173     3.0705    -0.4893 H       
  20 H20           -2.0859     1.5169    -0.4937 H       
  21 H21           -1.8851     1.3977     1.9750 H       
  22 H22           -1.0165     2.9513     1.9793 H       
  23 H23           -2.9893     3.9327     0.9540 H       
  24 H24           -3.6323     2.3707     3.3695 H       
  25 H25           -2.7637     3.9243     3.3738 H       
  26 H26           -4.7139     5.0176     2.3015 H       
  27 H27           -4.5706     4.9306     4.7755 H       
  28 H28           -6.2637     4.8591     4.2307 H       
  29 H29           -5.4392     3.3770     4.7711 H       
  30 Cl30           8.9119    10.0176     9.7755 Cl      
  31 H31            8.9119    11.3876     9.7755 H       
@<TRIPOS>BOND
   1    1    2 ar
   2    1    3 ar
   3    1    8 1
   4    2    6 ar
   5    2   15 1
   6    3    4 ar
   7    3   16 1
   8    4    5 ar
   9    4   17 1
  10    5    6 ar
  11    5    7 1
  12    6   18 1
  13    8    9 1
  14    8   19 1
  15    8   20 1
  16    9   10 1
  17    9   21 1
  18    9   22 1
  19   10   11 1
  20   10   23 1
  21   11   12 1
  22   11   24 1
  23   11   25 1
  24   12   13 1
  25   12   14 1
  26   12   26 1
  27   14   27 1
  28   14   28 1
  29   14   29 1
  30   30   31 1

#	End of record

