#	Name: ASD01910433
#	Creating user name:	WinNT
#	Creation time:	15. 06. 2019 19:55

#	Modifying user name:	WinNT
#	Modification time:	15. 06. 2019 19:55

#	Program:	/corina/corina34_cracker 3.40 0067  02.08.2006

@<TRIPOS>MOLECULE
ASD01910433
  50   53    0    0    0
SMALL
NO_CHARGES


@<TRIPOS>ATOM
   1 C1            -1.3561     3.6758     0.1861 C.ar    
   2 C2            -1.6764     2.3396     0.3655 C.ar    
   3 C3            -0.6730     1.4000     0.5402 C.ar    
   4 C4             0.6498     1.7917     0.5365 C.ar    
   5 C5             0.9763     3.1345     0.3563 C.ar    
   6 C6            -0.0359     4.0760     0.1806 C.ar    
   7 F7            -2.9705     1.9520     0.3707 F       
   8 C8             2.3976     3.5605     0.3522 C.2     
   9 N9             2.8572     4.8218     0.1891 N.2     
  10 C10            4.1622     4.7320     0.2553 C.2     
  11 O11            4.4586     3.4437     0.4531 O.3     
  12 N12            3.4403     2.7873     0.5112 N.2     
  13 C13            5.1449     5.8677     0.1312 C.3     
  14 C14            5.9737     5.9685     1.4138 C.3     
  15 C15            6.9495     7.1421     1.3018 C.3     
  16 C16            7.9030     6.8979     0.1279 C.3     
  17 N17            7.1086     6.6559    -1.0841 N.am    
  18 C18            6.0780     5.6091    -1.0559 C.3     
  19 C19            7.3213     7.3802    -2.2006 C.2     
  20 C20            6.5769     7.0474    -3.4680 C.3     
  21 O21            8.1117     8.2999    -2.1854 O.2     
  22 C22            6.5613     8.2708    -4.3865 C.3     
  23 C23            5.8055     7.9329    -5.6732 C.3     
  24 C24            6.5022     6.7707    -6.3836 C.3     
  25 C25            6.5179     5.5472    -5.4651 C.3     
  26 C26            7.2736     5.8851    -4.1784 C.3     
  27 H27           -2.1410     4.4043     0.0458 H       
  28 H28           -0.9269     0.3596     0.6797 H       
  29 H29            1.4311     1.0588     0.6734 H       
  30 H30            0.2128     5.1176     0.0403 H       
  31 H31            4.6043     6.8009    -0.0269 H       
  32 H32            5.3099     6.1280     2.2635 H       
  33 H33            6.5327     5.0440     1.5585 H       
  34 H34            6.3923     8.0635     1.1324 H       
  35 H35            7.5231     7.2277     2.2247 H       
  36 H36            8.5346     7.7742    -0.0181 H       
  37 H37            8.5248     6.0275     0.3372 H       
  38 H38            6.5509     4.6336    -0.9432 H       
  39 H39            5.5054     5.6350    -1.9831 H       
  40 H40            5.5533     6.7630    -3.2241 H       
  41 H41            6.0649     9.0988    -3.8804 H       
  42 H42            7.5849     8.5552    -4.6304 H       
  43 H43            4.7819     7.6486    -5.4294 H       
  44 H44            5.7944     8.8045    -6.3276 H       
  45 H45            5.9638     6.5299    -7.3003 H       
  46 H46            7.5258     7.0550    -6.6275 H       
  47 H47            5.4943     5.2628    -5.2212 H       
  48 H48            7.0142     4.7192    -5.9712 H       
  49 H49            8.2972     6.1695    -4.4222 H       
  50 H50            7.2848     5.0135    -3.5240 H       
@<TRIPOS>BOND
   1    1    2 ar
   2    1    6 ar
   3    1   27 1
   4    2    3 ar
   5    2    7 1
   6    3    4 ar
   7    3   28 1
   8    4    5 ar
   9    4   29 1
  10    5    6 ar
  11    5    8 1
  12    6   30 1
  13    8    9 1
  14    8   12 2
  15    9   10 2
  16   10   11 1
  17   10   13 1
  18   11   12 1
  19   13   14 1
  20   13   18 1
  21   13   31 1
  22   14   15 1
  23   14   32 1
  24   14   33 1
  25   15   16 1
  26   15   34 1
  27   15   35 1
  28   16   17 1
  29   16   36 1
  30   16   37 1
  31   17   18 1
  32   17   19 am
  33   18   38 1
  34   18   39 1
  35   19   20 1
  36   19   21 2
  37   20   22 1
  38   20   26 1
  39   20   40 1
  40   22   23 1
  41   22   41 1
  42   22   42 1
  43   23   24 1
  44   23   43 1
  45   23   44 1
  46   24   25 1
  47   24   45 1
  48   24   46 1
  49   25   26 1
  50   25   47 1
  51   25   48 1
  52   26   49 1
  53   26   50 1

#	End of record

