#	Name: ASD08178291
#	Creating user name:	WinNT
#	Creation time:	15. 06. 2019 21:18

#	Modifying user name:	WinNT
#	Modification time:	15. 06. 2019 21:18

#	Program:	/corina/corina34_cracker 3.40 0067  02.08.2006

@<TRIPOS>MOLECULE
ASD08178291
  80   84    0    0    0
SMALL
NO_CHARGES


@<TRIPOS>ATOM
   1 N1             1.6893     1.5322     2.7111 N.am    
   2 C2             1.6234     0.1552     2.5014 C.ar    
   3 C3             2.7932    -0.5856     2.3439 C.ar    
   4 N4             0.4488    -0.4555     2.4565 N.ar    
   5 N5             0.3450    -1.7205     2.2661 N.ar    
   6 C6             1.3984    -2.4966     2.1026 C.ar    
   7 C7             2.6737    -1.9516     2.1384 C.ar    
   8 C8             1.2173    -3.9765     1.8829 C.3     
   9 C9             0.3844    -4.5633     3.0243 C.3     
  10 C10            0.2005    -6.0658     2.8013 C.3     
  11 C11           -0.6325    -6.6526     3.9426 C.3     
  12 C12           -0.8136    -8.1325     3.7229 C.2     
  13 N13           -0.0310    -9.0702     4.1539 N.2     
  14 N14           -0.3560   -10.2551     3.8636 N.2     
  15 C15           -1.4368   -10.4299     3.1646 C.2     
  16 S16           -2.1337    -8.8992     2.8392 S.3     
  17 N17           -1.9467   -11.6567     2.7534 N.am    
  18 C18           -1.3058   -12.7965     3.0801 C.2     
  19 C19           -1.8583   -14.1258     2.6346 C.3     
  20 O20           -0.2844   -12.7522     3.7326 O.2     
  21 C21            0.5572     2.2621     2.7548 C.2     
  22 C22            0.6191     3.7290     3.0948 C.3     
  23 O23           -0.5113     1.7385     2.5204 O.2     
  24 C24           -0.7721     4.3080     3.0762 C.ar    
  25 C25           -1.5355     4.3098     4.2286 C.ar    
  26 C26           -2.8117     4.8409     4.2116 C.ar    
  27 C27           -3.3242     5.3707     3.0422 C.ar    
  28 C28           -2.5605     5.3698     1.8899 C.ar    
  29 C29           -1.2827     4.8426     1.9081 C.ar    
  30 C30           -0.9616   -15.2328     3.1262 C.ar    
  31 C31           -1.1931   -15.8113     4.3613 C.ar    
  32 C32           -0.3744   -16.8283     4.8201 C.ar    
  33 C33            0.6787   -17.2717     4.0475 C.ar    
  34 C34            0.9175   -16.6925     2.8001 C.ar    
  35 C35            0.0849   -15.6709     2.3410 C.ar    
  36 C36            2.0448   -17.1625     1.9668 C.2     
  37 O37            1.8810   -17.3610     0.7789 O.2     
  38 N38            3.2540   -17.3707     2.5245 N.am    
  39 C39            4.4108   -17.7494     1.6990 C.3     
  40 C40            5.5724   -16.8049     2.0261 C.3     
  41 N41            5.8136   -16.8143     3.4752 N.3     
  42 C42            4.6510   -16.3015     4.2122 C.3     
  43 C43            3.4531   -17.2194     3.9738 C.3     
  44 C44            7.0263   -16.0567     3.8118 C.3     
  45 H45            2.5498     1.9641     2.8295 H       
  46 H46            3.7624    -0.1105     2.3805 H       
  47 H47            3.5475    -2.5724     2.0061 H       
  48 H48            0.7042    -4.1431     0.9358 H       
  49 H49            2.1928    -4.4622     1.8580 H       
  50 H50            0.8975    -4.3967     3.9714 H       
  51 H51           -0.5911    -4.0776     3.0492 H       
  52 H52           -0.3126    -6.2323     1.8541 H       
  53 H53            1.1760    -6.5515     2.7764 H       
  54 H54           -0.1194    -6.4860     4.8898 H       
  55 H55           -1.6080    -6.1669     3.9675 H       
  56 H56           -2.7636   -11.6921     2.2316 H       
  57 H57           -2.8591   -14.2594     3.0453 H       
  58 H58           -1.9058   -14.1531     1.5459 H       
  59 H59            1.0513     3.8539     4.0876 H       
  60 H60            1.2377     4.2462     2.3614 H       
  61 H61           -1.1351     3.8958     5.1423 H       
  62 H62           -3.4084     4.8416     5.1117 H       
  63 H63           -4.3215     5.7850     3.0286 H       
  64 H64           -2.9610     5.7834     0.9762 H       
  65 H65           -0.6860     4.8419     1.0079 H       
  66 H66           -2.0161   -15.4675     4.9702 H       
  67 H67           -0.5603   -17.2755     5.7855 H       
  68 H68            1.3174   -18.0649     4.4071 H       
  69 H69            0.2643   -15.2186     1.3768 H       
  70 H70            4.6998   -18.7763     1.9226 H       
  71 H71            4.1526   -17.6603     0.6438 H       
  72 H72            6.4701   -17.1386     1.5058 H       
  73 H73            5.3204   -15.7940     1.7058 H       
  74 H74            4.8805   -16.2700     5.2773 H       
  75 H75            4.4118   -15.2975     3.8615 H       
  76 H76            2.5616   -16.7823     4.4238 H       
  77 H77            3.6475   -18.1971     4.4148 H       
  78 H78            6.9124   -15.0237     3.4831 H       
  79 H79            7.1814   -16.0797     4.8905 H       
  80 H80            7.8850   -16.5045     3.3117 H       
@<TRIPOS>BOND
   1    1    2 1
   2    1   21 am
   3    1   45 1
   4    2    3 ar
   5    2    4 ar
   6    3    7 ar
   7    3   46 1
   8    4    5 ar
   9    5    6 ar
  10    6    7 ar
  11    6    8 1
  12    7   47 1
  13    8    9 1
  14    8   48 1
  15    8   49 1
  16    9   10 1
  17    9   50 1
  18    9   51 1
  19   10   11 1
  20   10   52 1
  21   10   53 1
  22   11   12 1
  23   11   54 1
  24   11   55 1
  25   12   13 2
  26   12   16 1
  27   13   14 1
  28   14   15 2
  29   15   16 1
  30   15   17 1
  31   17   18 am
  32   17   56 1
  33   18   19 1
  34   18   20 2
  35   19   30 1
  36   19   57 1
  37   19   58 1
  38   21   22 1
  39   21   23 2
  40   22   24 1
  41   22   59 1
  42   22   60 1
  43   24   25 ar
  44   24   29 ar
  45   25   26 ar
  46   25   61 1
  47   26   27 ar
  48   26   62 1
  49   27   28 ar
  50   27   63 1
  51   28   29 ar
  52   28   64 1
  53   29   65 1
  54   30   31 ar
  55   30   35 ar
  56   31   32 ar
  57   31   66 1
  58   32   33 ar
  59   32   67 1
  60   33   34 ar
  61   33   68 1
  62   34   35 ar
  63   34   36 1
  64   35   69 1
  65   36   37 2
  66   36   38 am
  67   38   39 1
  68   38   43 1
  69   39   40 1
  70   39   70 1
  71   39   71 1
  72   40   41 1
  73   40   72 1
  74   40   73 1
  75   41   42 1
  76   41   44 1
  77   42   43 1
  78   42   74 1
  79   42   75 1
  80   43   76 1
  81   43   77 1
  82   44   78 1
  83   44   79 1
  84   44   80 1

#	End of record

