#	Name: ASD03180021
#	Creating user name:	WinNT
#	Creation time:	15. 06. 2019 20:33

#	Modifying user name:	WinNT
#	Modification time:	15. 06. 2019 20:33

#	Program:	/corina/corina34_cracker 3.40 0067  02.08.2006

@<TRIPOS>MOLECULE
ASD03180021
  57   59    0    0    0
SMALL
NO_CHARGES


@<TRIPOS>ATOM
   1 C1             7.4419     3.6355     1.7859 C.ar    
   2 C2             7.2007     4.9745     2.0307 C.ar    
   3 C3             5.9931     5.5377     1.6630 C.ar    
   4 C4             5.0268     4.7622     1.0501 C.ar    
   5 C5             5.2683     3.4234     0.8045 C.ar    
   6 C6             6.4753     2.8598     1.1735 C.ar    
   7 S7             4.0361     2.4346     0.0244 S.o2    
   8 O8             2.7833     3.0136     0.3628 O.2     
   9 N9             4.2145     2.6287    -1.6105 N.am    
  10 O10            4.3689     1.0823     0.3065 O.2     
  11 C11            3.4096     3.6247    -2.3221 C.3     
  12 C12            5.1772     1.8044    -2.3453 C.3     
  13 C13            4.4592     0.6456    -2.9876 C.ar    
  14 C14            4.1922     4.9064    -2.4475 C.2     
  15 N15            3.6476     5.9703    -3.0706 N.am    
  16 C16            4.4096     7.1281    -3.2748 C.ar    
  17 O17            5.3122     4.9806    -1.9878 O.2     
  18 C18            4.0093     0.7478    -4.2907 C.ar    
  19 C19            3.3506    -0.3152    -4.8799 C.ar    
  20 C20            3.1423    -1.4805    -4.1661 C.ar    
  21 C21            3.5930    -1.5831    -2.8633 C.ar    
  22 C22            4.2555    -0.5217    -2.2756 C.ar    
  23 C23            4.2334     7.8810    -4.4283 C.ar    
  24 C24            4.9842     9.0225    -4.6293 C.ar    
  25 C25            5.9147     9.4174    -3.6796 C.ar    
  26 C26            6.0920     8.6654    -2.5264 C.ar    
  27 C27            5.3368     7.5263    -2.3215 C.ar    
  28 Cl28           7.2573     9.1598    -1.3384 Cl      
  29 O29            6.6539    10.5414    -3.8786 O.3     
  30 C30            6.4197    11.2664    -5.0876 C.3     
  31 C31            2.4233    -2.6390    -4.8081 C.3     
  32 C32            8.2542     5.8199     2.6988 C.3     
  33 H33            8.3871     3.1965     2.0691 H       
  34 H34            5.8044     6.5837     1.8549 H       
  35 H35            4.0830     5.2021     0.7635 H       
  36 H36            6.6639     1.8138     0.9819 H       
  37 H37            3.1636     3.2504    -3.3158 H       
  38 H38            2.4906     3.8130    -1.7670 H       
  39 H39            5.6574     2.4068    -3.1164 H       
  40 H40            5.9328     1.4269    -1.6563 H       
  41 H41            2.7282     5.9343    -3.3775 H       
  42 H42            4.1721     1.6582    -4.8484 H       
  43 H43            2.9985    -0.2351    -5.8977 H       
  44 H44            3.4299    -2.4934    -2.3056 H       
  45 H45            4.6109    -0.6031    -1.2590 H       
  46 H46            3.5095     7.5735    -5.1684 H       
  47 H47            4.8469     9.6077    -5.5265 H       
  48 H48            5.4712     6.9437    -1.4221 H       
  49 H49            6.6281    10.6236    -5.9429 H       
  50 H50            5.3794    11.5901    -5.1213 H       
  51 H51            7.0729    12.1383    -5.1207 H       
  52 H52            3.1472    -3.2868    -5.3026 H       
  53 H53            1.8917    -3.2054    -4.0435 H       
  54 H54            1.7112    -2.2627    -5.5425 H       
  55 H55            8.8999     6.2625     1.9403 H       
  56 H56            7.7738     6.6116     3.2739 H       
  57 H57            8.8508     5.1973     3.3656 H       
@<TRIPOS>BOND
   1    1    2 ar
   2    1    6 ar
   3    1   33 1
   4    2    3 ar
   5    2   32 1
   6    3    4 ar
   7    3   34 1
   8    4    5 ar
   9    4   35 1
  10    5    6 ar
  11    5    7 1
  12    6   36 1
  13    7    8 2
  14    7    9 am
  15    7   10 2
  16    9   11 1
  17    9   12 1
  18   11   14 1
  19   11   37 1
  20   11   38 1
  21   12   13 1
  22   12   39 1
  23   12   40 1
  24   13   18 ar
  25   13   22 ar
  26   14   15 am
  27   14   17 2
  28   15   16 1
  29   15   41 1
  30   16   23 ar
  31   16   27 ar
  32   18   19 ar
  33   18   42 1
  34   19   20 ar
  35   19   43 1
  36   20   21 ar
  37   20   31 1
  38   21   22 ar
  39   21   44 1
  40   22   45 1
  41   23   24 ar
  42   23   46 1
  43   24   25 ar
  44   24   47 1
  45   25   26 ar
  46   25   29 1
  47   26   27 ar
  48   26   28 1
  49   27   48 1
  50   29   30 1
  51   30   49 1
  52   30   50 1
  53   30   51 1
  54   31   52 1
  55   31   53 1
  56   31   54 1
  57   32   55 1
  58   32   56 1
  59   32   57 1

#	End of record

