#	Name: ASD04880058
#	Creating user name:	WinNT
#	Creation time:	15. 06. 2019 20:52

#	Modifying user name:	WinNT
#	Modification time:	15. 06. 2019 20:52

#	Program:	/corina/corina34_cracker 3.40 0067  02.08.2006

@<TRIPOS>MOLECULE
ASD04880058
  52   55    0    0    0
SMALL
NO_CHARGES


@<TRIPOS>ATOM
   1 C1            -0.0194     1.4980    -0.0866 C.2     
   2 C2             0.0027    -0.0077    -0.1457 C.3     
   3 N3             1.1377     2.1879    -0.0471 N.am    
   4 C4             1.2420     3.6481     0.0116 C.3     
   5 C5             2.7503     3.9442     0.0393 C.3     
   6 C6             3.4050     2.5815    -0.0075 C.ar    
   7 C7             4.7341     2.2199    -0.0073 C.ar    
   8 C8             5.0915     0.8701    -0.0569 C.ar    
   9 C9             4.0916    -0.1055    -0.1059 C.ar    
  10 C10            2.7685     0.2639    -0.1058 C.ar    
  11 C11            2.4088     1.6152    -0.0502 C.ar    
  12 C12            6.5137     0.4774    -0.0578 C.2     
  13 O13            7.3793     1.3278    -0.1412 O.2     
  14 N14            6.8537    -0.8235     0.0336 N.am    
  15 N15            5.9694    -1.8793     0.2451 N.2     
  16 C16            6.5338    -3.0366     0.2955 C.2     
  17 C17            8.0253    -2.8799     0.1031 C.3     
  18 C18            8.2186    -1.3615    -0.0800 C.3     
  19 C19            5.8333    -4.3161     0.5084 C.ar    
  20 C20            4.4457    -4.3360     0.6746 C.ar    
  21 C21            3.7941    -5.5383     0.8733 C.ar    
  22 C22            4.5202    -6.7273     0.9077 C.ar    
  23 C23            5.8972    -6.7079     0.7433 C.ar    
  24 C24            6.5540    -5.5124     0.5387 C.ar    
  25 O25            3.8773    -7.9089     1.1034 O.3     
  26 C26            4.6824    -9.0893     1.1275 C.3     
  27 O27            2.4440    -5.5612     1.0358 O.3     
  28 C28            1.7636    -4.3055     0.9897 C.3     
  29 O29           -1.0783     2.0891    -0.0795 O.2     
  30 H30            0.5123    -0.3985     0.7350 H       
  31 H31           -1.0195    -0.3853    -0.1715 H       
  32 H32            0.5312    -0.3283    -1.0435 H       
  33 H33            0.7850     4.0955    -0.8710 H       
  34 H34            0.7661     4.0250     0.9169 H       
  35 H35            3.0381     4.5346    -0.8306 H       
  36 H36            3.0192     4.4640     0.9589 H       
  37 H37            5.5004     2.9800     0.0307 H       
  38 H38            4.3597    -1.1510    -0.1444 H       
  39 H39            2.0003    -0.4942    -0.1445 H       
  40 H40            8.5635    -3.2344     0.9822 H       
  41 H41            8.3539    -3.4137    -0.7886 H       
  42 H42            8.6370    -1.1419    -1.0622 H       
  43 H43            8.8559    -0.9602     0.7080 H       
  44 H44            3.8841    -3.4139     0.6480 H       
  45 H45            6.4561    -7.6317     0.7710 H       
  46 H46            7.6258    -5.5006     0.4065 H       
  47 H47            5.4114    -9.0154     1.9345 H       
  48 H48            4.0466    -9.9594     1.2908 H       
  49 H49            5.2033    -9.1933     0.1757 H       
  50 H50            2.1428    -3.6576     1.7800 H       
  51 H51            1.9341    -3.8352     0.0213 H       
  52 H52            0.6950    -4.4658     1.1327 H       
@<TRIPOS>BOND
   1    1    2 1
   2    1    3 am
   3    1   29 2
   4    2   30 1
   5    2   31 1
   6    2   32 1
   7    3    4 1
   8    3   11 1
   9    4    5 1
  10    4   33 1
  11    4   34 1
  12    5    6 1
  13    5   35 1
  14    5   36 1
  15    6    7 ar
  16    6   11 ar
  17    7    8 ar
  18    7   37 1
  19    8    9 ar
  20    8   12 1
  21    9   10 ar
  22    9   38 1
  23   10   11 ar
  24   10   39 1
  25   12   13 2
  26   12   14 am
  27   14   15 1
  28   14   18 1
  29   15   16 2
  30   16   17 1
  31   16   19 1
  32   17   18 1
  33   17   40 1
  34   17   41 1
  35   18   42 1
  36   18   43 1
  37   19   20 ar
  38   19   24 ar
  39   20   21 ar
  40   20   44 1
  41   21   22 ar
  42   21   27 1
  43   22   23 ar
  44   22   25 1
  45   23   24 ar
  46   23   45 1
  47   24   46 1
  48   25   26 1
  49   26   47 1
  50   26   48 1
  51   26   49 1
  52   27   28 1
  53   28   50 1
  54   28   51 1
  55   28   52 1

#	End of record

