#	Name: ASD01410156
#	Creating user name:	WinNT
#	Creation time:	15. 06. 2019 19:16

#	Modifying user name:	WinNT
#	Modification time:	15. 06. 2019 19:16

#	Program:	/corina/corina34_cracker 3.40 0067  02.08.2006

@<TRIPOS>MOLECULE
ASD01410156
  58   61    0    0    0
SMALL
NO_CHARGES


@<TRIPOS>ATOM
   1 C1            -0.0169     1.3986     0.0097 C.ar    
   2 C2             0.0021    -0.0041     0.0020 C.ar    
   3 C3            -1.1621    -0.7093     0.0093 C.ar    
   4 C4            -2.3912    -0.0347     0.0252 C.ar    
   5 C5            -2.4204     1.3751     0.0335 C.ar    
   6 C6            -1.2305     2.0850     0.0308 C.ar    
   7 C7            -3.7375    -0.4722     0.0362 C.2     
   8 C8            -4.5317     0.6283     0.0505 C.2     
   9 N9            -3.7465     1.7566     0.0490 N.pl3   
  10 C10           -3.6906    -2.6057    -1.2267 C.3     
  11 C11           -4.1657    -4.0601    -1.2310 C.3     
  12 C12           -3.6262    -4.7765     0.0086 C.3     
  13 C13           -4.1410    -4.0755     1.2673 C.3     
  14 C14           -3.6659    -2.6211     1.2716 C.3     
  15 C15           -4.2054    -1.9047     0.0320 C.3     
  16 C16           -6.0103     0.6155     0.0653 C.ar    
  17 C17           -6.7097     1.4580     0.9307 C.ar    
  18 C18           -8.0892     1.4412     0.9396 C.ar    
  19 C19           -8.7792     0.5916     0.0932 C.ar    
  20 C20           -8.0918    -0.2464    -0.7668 C.ar    
  21 C21           -6.7124    -0.2349    -0.7900 C.ar    
  22 C22           -4.2368     3.1371     0.0618 C.3     
  23 C23           -4.3906     3.6023     1.4870 C.2     
  24 O24           -4.1175     2.8544     2.4018 O.2     
  25 N25           -4.8316     4.8495     1.7448 N.am    
  26 C26           -4.9811     5.3018     3.1302 C.3     
  27 C27           -5.1615     5.7529     0.6397 C.3     
  28 C28            1.2513     2.1499     0.0017 C.2     
  29 O29            1.2377     3.3650     0.0083 O.2     
  30 O30            2.4258     1.4892    -0.0131 O.3     
  31 H31            0.9465    -0.5277    -0.0102 H       
  32 H32           -1.1391    -1.7891     0.0026 H       
  33 H33           -1.2430     3.1649     0.0375 H       
  34 H34           -2.6009    -2.5794    -1.2373 H       
  35 H35           -4.0749    -2.0953    -2.1098 H       
  36 H36           -5.2553    -4.0864    -1.2204 H       
  37 H37           -3.7989    -4.5595    -2.1277 H       
  38 H38           -3.9647    -5.8126     0.0055 H       
  39 H39           -2.5365    -4.7502    -0.0020 H       
  40 H40           -5.2307    -4.1018     1.2779 H       
  41 H41           -3.7567    -4.5859     2.1504 H       
  42 H42           -4.0327    -2.1217     2.1683 H       
  43 H43           -2.5763    -2.5948     1.2610 H       
  44 H44           -5.2951    -1.9310     0.0426 H       
  45 H45           -6.1723     2.1214     1.5921 H       
  46 H46           -8.6317     2.0923     1.6090 H       
  47 H47           -9.8591     0.5823     0.1040 H       
  48 H48           -8.6362    -0.9075    -1.4247 H       
  49 H49           -6.1769    -0.8892    -1.4619 H       
  50 H50           -3.5250     3.7803    -0.4555 H       
  51 H51           -5.2022     3.1844    -0.4420 H       
  52 H52           -4.0499     5.7579     3.4660 H       
  53 H53           -5.7862     6.0343     3.1884 H       
  54 H54           -5.2186     4.4496     3.7670 H       
  55 H55           -5.9545     5.3129     0.0351 H       
  56 H56           -5.4980     6.7092     1.0402 H       
  57 H57           -4.2773     5.9088     0.0216 H       
  58 H58            3.2308     2.0250    -0.0179 H       
@<TRIPOS>BOND
   1    1    2 ar
   2    1   28 1
   3    1    6 ar
   4    2    3 ar
   5    2   31 1
   6    3    4 ar
   7    3   32 1
   8    4    5 ar
   9    4    7 1
  10    5    6 ar
  11    5    9 1
  12    6   33 1
  13    7    8 2
  14    7   15 1
  15    8    9 1
  16    8   16 1
  17    9   22 1
  18   10   11 1
  19   10   15 1
  20   10   34 1
  21   10   35 1
  22   11   12 1
  23   11   36 1
  24   11   37 1
  25   12   13 1
  26   12   38 1
  27   12   39 1
  28   13   14 1
  29   13   40 1
  30   13   41 1
  31   14   15 1
  32   14   42 1
  33   14   43 1
  34   15   44 1
  35   16   17 ar
  36   16   21 ar
  37   17   18 ar
  38   17   45 1
  39   18   19 ar
  40   18   46 1
  41   19   20 ar
  42   19   47 1
  43   20   21 ar
  44   20   48 1
  45   21   49 1
  46   22   23 1
  47   22   50 1
  48   22   51 1
  49   23   24 2
  50   23   25 am
  51   25   26 1
  52   25   27 1
  53   26   52 1
  54   26   53 1
  55   26   54 1
  56   27   55 1
  57   27   56 1
  58   27   57 1
  59   28   29 2
  60   28   30 1
  61   30   58 1

#	End of record

