#	Name: ASD00171142
#	Creating user name:	WinNT
#	Creation time:	15. 06. 2019 18:33

#	Modifying user name:	WinNT
#	Modification time:	15. 06. 2019 18:33

#	Program:	/corina/corina34_cracker 3.40 0067  02.08.2006

@<TRIPOS>MOLECULE
ASD00171142
  54   57    0    0    0
SMALL
NO_CHARGES


@<TRIPOS>ATOM
   1 C1            -0.5461     1.4595    -0.0101 C.3     
   2 C2            -0.2425    -0.0166    -0.0038 C.2     
   3 C3            -0.1734    -0.7416     1.1018 C.2     
   4 S4             0.1977    -2.4158     0.7309 S.3     
   5 C5             0.2565    -2.1116    -0.9451 C.2     
   6 C6            -0.0030    -0.7862    -1.2065 C.2     
   7 N7             0.5228    -3.0645    -1.9074 N.pl3   
   8 C8            -0.0247    -0.2144    -2.5526 C.2     
   9 O9             1.0161     0.1211    -3.0884 O.2     
  10 C10           -1.3105    -0.0438    -3.2629 C.ar    
  11 C11           -1.3474     0.6027    -4.4997 C.ar    
  12 C12           -2.5493     0.7585    -5.1575 C.ar    
  13 C13           -3.7185     0.2753    -4.5933 C.ar    
  14 C14           -3.6881    -0.3666    -3.3663 C.ar    
  15 C15           -2.4913    -0.5337    -2.7020 C.ar    
  16 Cl16          -5.2279     0.4756    -5.4272 Cl      
  17 N17            0.7084     2.2179     0.0855 N.3     
  18 C18           -0.3845    -0.2011     2.4926 C.3     
  19 C19            0.4782     3.6492    -0.1551 C.3     
  20 C20            1.7914     4.4128     0.0314 C.3     
  21 N21            2.8000     3.8814    -0.8959 N.3     
  22 C22            3.0302     2.4501    -0.6554 C.3     
  23 C23            1.7170     1.6865    -0.8419 C.3     
  24 C24            3.9919     4.6020    -0.8051 C.ar    
  25 C25            5.0752     4.2547    -1.6045 C.ar    
  26 C26            6.2533     4.9647    -1.5173 C.ar    
  27 C27            6.3581     6.0331    -0.6255 C.ar    
  28 C28            5.2691     6.3794     0.1757 C.ar    
  29 C29            4.0918     5.6692     0.0804 C.ar    
  30 N30            7.5153     6.7326    -0.5373 N.1     
  31 C31            8.4854     7.3190    -0.4634 C.1     
  32 H32           -1.0591     1.7210    -0.9356 H       
  33 H33           -1.1835     1.7030     0.8399 H       
  34 H34            0.7649    -3.9659    -1.6434 H       
  35 H35            0.4679    -2.8327    -2.8477 H       
  36 H36           -0.4366     0.9805    -4.9402 H       
  37 H37           -2.5792     1.2584    -6.1143 H       
  38 H38           -4.6029    -0.7409    -2.9311 H       
  39 H39           -2.4688    -1.0346    -1.7454 H       
  40 H40           -1.4395    -0.2768     2.7556 H       
  41 H41            0.2089    -0.7792     3.2010 H       
  42 H42           -0.0754     0.8436     2.5272 H       
  43 H43            0.1152     3.7932    -1.1727 H       
  44 H44           -0.2629     4.0222     0.5519 H       
  45 H45            1.6293     5.4708    -0.1748 H       
  46 H46            2.1403     4.2911     1.0569 H       
  47 H47            3.7713     2.0771    -1.3624 H       
  48 H48            3.3932     2.3061     0.3622 H       
  49 H49            1.8790     0.6285    -0.6357 H       
  50 H50            1.3680     1.8082    -1.8674 H       
  51 H51            4.9936     3.4277    -2.2942 H       
  52 H52            7.0946     4.6944    -2.1382 H       
  53 H53            5.3476     7.2055     0.8669 H       
  54 H54            3.2487     5.9367     0.7001 H       
@<TRIPOS>BOND
   1    1    2 1
   2    1   17 1
   3    1   32 1
   4    1   33 1
   5    2    3 2
   6    2    6 1
   7    3    4 1
   8    3   18 1
   9    4    5 1
  10    5    6 2
  11    5    7 1
  12    6    8 1
  13    7   34 1
  14    7   35 1
  15    8    9 2
  16    8   10 1
  17   10   11 ar
  18   10   15 ar
  19   11   12 ar
  20   11   36 1
  21   12   13 ar
  22   12   37 1
  23   13   14 ar
  24   13   16 1
  25   14   15 ar
  26   14   38 1
  27   15   39 1
  28   17   19 1
  29   17   23 1
  30   18   40 1
  31   18   41 1
  32   18   42 1
  33   19   20 1
  34   19   43 1
  35   19   44 1
  36   20   21 1
  37   20   45 1
  38   20   46 1
  39   21   22 1
  40   21   24 1
  41   22   23 1
  42   22   47 1
  43   22   48 1
  44   23   49 1
  45   23   50 1
  46   24   25 ar
  47   24   29 ar
  48   25   26 ar
  49   25   51 1
  50   26   27 ar
  51   26   52 1
  52   27   28 ar
  53   27   30 1
  54   28   29 ar
  55   28   53 1
  56   29   54 1
  57   30   31 3

#	End of record

