#	Name: ASD00960128
#	Creating user name:	WinNT
#	Creation time:	15. 06. 2019 18:53

#	Modifying user name:	WinNT
#	Modification time:	15. 06. 2019 18:53

#	Program:	/corina/corina34_cracker 3.40 0067  02.08.2006

@<TRIPOS>MOLECULE
ASD00960128
  41   44    0    0    0
SMALL
NO_CHARGES


@<TRIPOS>ATOM
   1 C1             0.8175     2.2173    -0.4515 C.3     
   2 C2             0.4518     0.7654    -0.0713 C.3     
   3 O3             0.0416     0.1511    -1.3124 O.3     
   4 C4            -0.7407     1.1559    -1.9939 C.3     
   5 C5            -0.8070     0.8535    -3.4922 C.3     
   6 C6             1.6530     0.0529     0.4948 C.2     
   7 C7             2.0508     0.0974     1.7886 C.2     
   8 N8             2.4983    -0.7357    -0.2101 N.pl3   
   9 C9             3.4725    -1.2126     0.6410 C.2     
  10 C10            3.2086    -0.6975     1.9116 C.2     
  11 N11            2.5474    -1.1204    -1.5579 N.2     
  12 C12            3.4983    -1.9101    -1.9777 C.2     
  13 N13            4.4440    -2.3767    -1.1657 N.2     
  14 C14            4.4696    -2.0622     0.1200 C.2     
  15 N15            5.4625    -2.5597     0.9412 N.pl3   
  16 C16            0.0150     2.4801    -1.7454 C.3     
  17 O17            2.2201     2.3316    -0.7003 O.3     
  18 C18            3.9872    -0.9377     3.1400 C.2     
  19 O19           -1.4439    -0.4094    -3.6956 O.3     
  20 N20            5.2823    -0.8283     3.2489 N.2     
  21 C21            5.8045    -1.0825     4.4283 C.2     
  22 C22            4.9400    -1.4263     5.3868 C.2     
  23 S23            3.3174    -1.4112     4.6991 S.3     
  24 O24           -0.9074     3.5545    -1.5530 O.3     
  25 *25           -0.3907     4.8217    -1.8926 Du      
  26 N26           -2.0903     1.2222    -1.4277 N.2     
  27 N27           -2.7631     0.3229    -1.4719 N.1     
  28 N28           -3.4359    -0.5764    -1.5160 N.pl3   
  29 H29            0.5129     2.9066     0.3360 H       
  30 H30           -0.3688     0.7563     0.6461 H       
  31 H31           -1.3782     1.6337    -3.9954 H       
  32 H32            0.2027     0.8213    -3.9014 H       
  33 H33            1.5676     0.6450     2.5842 H       
  34 H34            3.5180    -2.1948    -3.0193 H       
  35 H35            6.2113    -3.0434     0.5586 H       
  36 H36            5.4111    -2.4254     1.9005 H       
  37 H37            0.6880     2.6972    -2.5748 H       
  38 H38            2.5050     3.2231    -0.9434 H       
  39 H39           -1.5206    -0.6662    -4.6247 H       
  40 H40            6.8670    -1.0176     4.6109 H       
  41 H41            5.1918    -1.6679     6.4088 H       
@<TRIPOS>BOND
   1    1    2 1
   2    1   17 1
   3    1   16 1
   4    1   29 1
   5    2    3 1
   6    2    6 1
   7    2   30 1
   8    3    4 1
   9    4    5 1
  10    4   26 1
  11    4   16 1
  12    5   19 1
  13    5   31 1
  14    5   32 1
  15    6    7 2
  16    6    8 1
  17    7   10 1
  18    7   33 1
  19    8    9 1
  20    8   11 1
  21    9   10 2
  22    9   14 1
  23   10   18 1
  24   11   12 2
  25   12   13 1
  26   12   34 1
  27   13   14 2
  28   14   15 1
  29   15   35 1
  30   15   36 1
  31   16   24 1
  32   16   37 1
  33   17   38 1
  34   18   20 2
  35   18   23 1
  36   19   39 1
  37   20   21 1
  38   21   22 2
  39   21   40 1
  40   22   23 1
  41   22   41 1
  42   24   25 1
  43   26   27 2
  44   27   28 2

#	End of record

