#	Name: ASD03331132
#	Creating user name:	WinNT
#	Creation time:	15. 06. 2019 20:38

#	Modifying user name:	WinNT
#	Modification time:	15. 06. 2019 20:38

#	Program:	/corina/corina34_cracker 3.40 0067  02.08.2006

@<TRIPOS>MOLECULE
ASD03331132
  44   45    0    0    0
SMALL
NO_CHARGES


@<TRIPOS>ATOM
   1 N1            -0.0179     1.4666     0.0101 N.am    
   2 C2             0.0021    -0.0041     0.0020 C.3     
   3 C3             0.9085    -0.4723    -1.1414 C.3     
   4 N4             2.2251     0.1660    -1.0110 N.3     
   5 C5             2.1249     1.6258    -1.1417 C.3     
   6 C6             1.2683     2.1800     0.0017 C.3     
   7 C7            -1.1838     2.1425     0.0194 C.2     
   8 O8            -2.2372     1.5369     0.0211 O.2     
   9 O9            -1.1814     3.4889     0.0267 O.3     
  10 C10            3.1764    -0.3856    -1.9851 C.3     
  11 C11            4.4298     0.4510    -1.9923 C.ar    
  12 C12            5.4743     0.1381    -1.1424 C.ar    
  13 C13            6.6248     0.9053    -1.1491 C.ar    
  14 C14            6.7300     1.9865    -2.0072 C.ar    
  15 C15            5.6845     2.2984    -2.8569 C.ar    
  16 C16            4.5369     1.5274    -2.8528 C.ar    
  17 Br17           8.3024     3.0368    -2.0170 Br      
  18 Br18           8.0535     0.4780     0.0137 Br      
  19 C19           -2.4739     4.1504     0.0364 C.3     
  20 C20           -3.2505     3.7339     1.2872 C.3     
  21 C21           -2.2707     5.6668     0.0437 C.3     
  22 C22           -3.2625     3.7475    -1.2112 C.3     
  23 H23            0.3920    -0.3702     0.9518 H       
  24 H24           -1.0081    -0.3831    -0.1529 H       
  25 H25            1.0231    -1.5553    -1.0945 H       
  26 H26            0.4625    -0.1944    -2.0963 H       
  27 H27            3.1216     2.0644    -1.0951 H       
  28 H28            1.6619     1.8745    -2.0966 H       
  29 H29            1.0953     3.2449    -0.1535 H       
  30 H30            1.7799     2.0238     0.9514 H       
  31 H31            3.4252    -1.4105    -1.7096 H       
  32 H32            2.7268    -0.3752    -2.9780 H       
  33 H33            5.3916    -0.7053    -0.4729 H       
  34 H34            5.7659     3.1420    -3.5263 H       
  35 H35            3.7223     1.7685    -3.5197 H       
  36 H36           -2.6887     4.0209     2.1760 H       
  37 H37           -4.2208     4.2305     1.2945 H       
  38 H38           -3.3953     2.6536     1.2820 H       
  39 H39           -1.7174     5.9635    -0.8473 H       
  40 H40           -3.2410     6.1634     0.0511 H       
  41 H41           -1.7089     5.9538     0.9326 H       
  42 H42           -3.4073     2.6671    -1.2164 H       
  43 H43           -4.2328     4.2440    -1.2039 H       
  44 H44           -2.7092     4.0442    -2.1023 H       
@<TRIPOS>BOND
   1    1    2 1
   2    1    6 1
   3    1    7 am
   4    2    3 1
   5    2   23 1
   6    2   24 1
   7    3    4 1
   8    3   25 1
   9    3   26 1
  10    4    5 1
  11    4   10 1
  12    5    6 1
  13    5   27 1
  14    5   28 1
  15    6   29 1
  16    6   30 1
  17    7    8 2
  18    7    9 1
  19    9   19 1
  20   10   11 1
  21   10   31 1
  22   10   32 1
  23   11   12 ar
  24   11   16 ar
  25   12   13 ar
  26   12   33 1
  27   13   14 ar
  28   13   18 1
  29   14   15 ar
  30   14   17 1
  31   15   16 ar
  32   15   34 1
  33   16   35 1
  34   19   20 1
  35   19   22 1
  36   19   21 1
  37   20   36 1
  38   20   37 1
  39   20   38 1
  40   21   39 1
  41   21   40 1
  42   21   41 1
  43   22   42 1
  44   22   43 1
  45   22   44 1

#	End of record

