#	Name: ASD03240835
#	Creating user name:	WinNT
#	Creation time:	15. 06. 2019 20:35

#	Modifying user name:	WinNT
#	Modification time:	15. 06. 2019 20:35

#	Program:	/corina/corina34_cracker 3.40 0067  02.08.2006

@<TRIPOS>MOLECULE
ASD03240835
  62   68    0    0    0
SMALL
NO_CHARGES


@<TRIPOS>ATOM
   1 C1            -2.6117     2.9837    -0.1765 C.3     
   2 C2            -3.1628     1.6433    -0.6910 C.3     
   3 C3            -2.6430     2.0524    -2.0793 C.3     
   4 C4            -1.6173     2.9348    -1.3485 C.3     
   5 O5            -3.5482     4.0594    -0.2649 O.3     
   6 C6            -1.9453     2.8855     1.1972 C.3     
   7 C7            -0.6743     2.0410     1.3071 C.3     
   8 C8            -0.5869     3.5671     1.3738 C.3     
   9 C9            -0.0078     4.2836     0.1813 C.ar    
  10 C10           -0.5220     5.5093    -0.2025 C.ar    
  11 C11            0.0043     6.1706    -1.2932 C.ar    
  12 C12            1.0570     5.6007    -2.0093 C.ar    
  13 C13            1.5711     4.3647    -1.6174 C.ar    
  14 C14            1.0397     3.7157    -0.5218 C.ar    
  15 N15            0.4513     8.4001    -5.8343 N.pl3   
  16 C16            0.9575     9.0584    -6.9230 C.2     
  17 N17            2.2637     9.0137    -7.2389 N.2     
  18 C18            3.1274     8.3388    -6.5251 C.2     
  19 C19            2.6605     7.6102    -5.3474 C.ar    
  20 C20            3.5360     6.8706    -4.5452 C.ar    
  21 C21            3.0066     6.2068    -3.4434 C.ar    
  22 C22            1.6261     6.3049    -3.1811 C.ar    
  23 N23            0.8277     7.0151    -3.9638 N.ar    
  24 C24            1.2887     7.6609    -5.0208 C.ar    
  25 C25           -0.1110     9.7024    -7.5332 C.2     
  26 C26           -1.2534     9.4184    -6.7947 C.2     
  27 N27           -0.9270     8.6420    -5.7892 N.2     
  28 C28            3.8843     5.4065    -2.5561 C.ar    
  29 C29            4.7578     4.4659    -3.0996 C.ar    
  30 C30            5.5724     3.7238    -2.2688 C.ar    
  31 C31            5.5232     3.9119    -0.8992 C.ar    
  32 C32            4.6583     4.8439    -0.3543 C.ar    
  33 C33            3.8432     5.5958    -1.1757 C.ar    
  34 C34           -2.6419     9.9168    -7.1023 C.3     
  35 Br35          -0.0262    10.7741    -9.0889 Br      
  36 N36           -0.2970     4.1734     2.6800 N.3     
  37 H37           -2.6555     0.7736    -0.2737 H       
  38 H38           -4.2488     1.5679    -0.6362 H       
  39 H39           -2.1935     1.2306    -2.6367 H       
  40 H40           -3.3659     2.6183    -2.6669 H       
  41 H41           -1.4556     3.9020    -1.8245 H       
  42 H42           -0.6874     2.4181    -1.1109 H       
  43 H43           -3.9612     4.1510    -1.1344 H       
  44 H44           -2.6240     2.8868     2.0502 H       
  45 H45           -0.5165     1.4870     2.2325 H       
  46 H46           -0.3128     1.5553     0.4007 H       
  47 H47           -1.3373     5.9493     0.3525 H       
  48 H48           -0.3982     7.1272    -1.5920 H       
  49 H49            2.3859     3.9183    -2.1681 H       
  50 H50            1.4396     2.7606    -0.2149 H       
  51 H51            4.1710     8.3200    -6.8024 H       
  52 H52            4.5900     6.8161    -4.7746 H       
  53 H53            4.7968     4.3179    -4.1687 H       
  54 H54            6.2494     2.9945    -2.6886 H       
  55 H55            6.1623     3.3287    -0.2528 H       
  56 H56            4.6239     4.9863     0.7158 H       
  57 H57            3.1715     6.3263    -0.7495 H       
  58 H58           -3.1460     9.2066    -7.7577 H       
  59 H59           -3.2053    10.0182    -6.1747 H       
  60 H60           -2.5788    10.8861    -7.5969 H       
  61 H61            0.6205     4.5933     2.6880 H       
  62 H62           -1.0051     4.8469     2.9312 H       
@<TRIPOS>BOND
   1    1    2 1
   2    1    4 1
   3    1    5 1
   4    1    6 1
   5    2    3 1
   6    2   37 1
   7    2   38 1
   8    3    4 1
   9    3   39 1
  10    3   40 1
  11    4   41 1
  12    4   42 1
  13    5   43 1
  14    6    7 1
  15    6    8 1
  16    6   44 1
  17    7    8 1
  18    7   45 1
  19    7   46 1
  20    8    9 1
  21    8   36 1
  22    9   10 ar
  23    9   14 ar
  24   10   11 ar
  25   10   47 1
  26   11   12 ar
  27   11   48 1
  28   12   13 ar
  29   12   22 1
  30   13   14 ar
  31   13   49 1
  32   14   50 1
  33   15   16 1
  34   15   24 1
  35   15   27 1
  36   16   17 1
  37   16   25 2
  38   17   18 2
  39   18   19 1
  40   18   51 1
  41   19   20 ar
  42   19   24 ar
  43   20   21 ar
  44   20   52 1
  45   21   22 ar
  46   21   28 1
  47   22   23 ar
  48   23   24 ar
  49   25   26 1
  50   25   35 1
  51   26   27 2
  52   26   34 1
  53   28   29 ar
  54   28   33 ar
  55   29   30 ar
  56   29   53 1
  57   30   31 ar
  58   30   54 1
  59   31   32 ar
  60   31   55 1
  61   32   33 ar
  62   32   56 1
  63   33   57 1
  64   34   58 1
  65   34   59 1
  66   34   60 1
  67   36   61 1
  68   36   62 1

#	End of record

