#	Name: ASD00431009
#	Creating user name:	WinNT
#	Creation time:	15. 06. 2019 18:35

#	Modifying user name:	WinNT
#	Modification time:	15. 06. 2019 18:35

#	Program:	/corina/corina34_cracker 3.40 0067  02.08.2006

@<TRIPOS>MOLECULE
ASD00431009
  17   17    0    0    0
SMALL
NO_CHARGES


@<TRIPOS>ATOM
   1 C1            -0.0167     1.3781     0.0096 C.ar    
   2 C2             0.0021    -0.0041     0.0020 C.ar    
   3 C3             1.2084    -0.6789    -0.0132 C.ar    
   4 C4             2.3960     0.0285    -0.0212 C.ar    
   5 C5             2.3773     1.4107    -0.0145 C.ar    
   6 C6             3.6720     2.1819    -0.0228 C.3     
   7 C7             1.1710     2.0855     0.0021 C.ar    
   8 N8             4.0799     2.4390    -1.4104 N.3     
   9 H9            -0.9592     1.9054     0.0170 H       
  10 H10           -0.9258    -0.5567     0.0083 H       
  11 H11            1.2231    -1.7588    -0.0184 H       
  12 H12            3.3386    -0.4987    -0.0324 H       
  13 H13            3.5335     3.1300     0.4968 H       
  14 H14            4.4443     1.6008     0.4812 H       
  15 H15            1.1563     3.1654     0.0069 H       
  16 H16            4.9462     2.9553    -1.4429 H       
  17 H17            4.1524     1.5780    -1.9314 H       
@<TRIPOS>BOND
   1    1    2 ar
   2    1    7 ar
   3    1    9 1
   4    2    3 ar
   5    2   10 1
   6    3    4 ar
   7    3   11 1
   8    4    5 ar
   9    4   12 1
  10    5    6 1
  11    5    7 ar
  12    6    8 1
  13    6   13 1
  14    6   14 1
  15    7   15 1
  16    8   16 1
  17    8   17 1

#	End of record

