#	Name: ASD06350022
#	Creating user name:	WinNT
#	Creation time:	15. 06. 2019 21:06

#	Modifying user name:	WinNT
#	Modification time:	15. 06. 2019 21:06

#	Program:	/corina/corina34_cracker 3.40 0067  02.08.2006

@<TRIPOS>MOLECULE
ASD06350022
  64   68    0    0    0
SMALL
NO_CHARGES


@<TRIPOS>ATOM
   1 C1             5.9429     3.9065    -0.3993 C.3     
   2 O2             5.0096     4.0255    -1.4748 O.3     
   3 C3             5.0065     3.0317    -2.4018 C.ar    
   4 C4             4.1261     3.0833    -3.4727 C.ar    
   5 C5             4.1248     2.0718    -4.4136 C.ar    
   6 C6             5.0000     1.0087    -4.2887 C.ar    
   7 C7             5.8780     0.9547    -3.2220 C.ar    
   8 C8             5.8875     1.9668    -2.2818 C.ar    
   9 C9             4.9964    -0.0934    -5.3165 C.3     
  10 N10            5.9366     0.2373    -6.3903 N.pl3   
  11 C11            6.1060    -0.6331    -7.4556 C.ar    
  12 N12            6.9577    -0.3425    -8.4366 N.ar    
  13 C13            7.1239    -1.1650    -9.4525 C.ar    
  14 N14            6.4627    -2.3007    -9.5440 N.ar    
  15 C15            5.5933    -2.6631    -8.6041 C.ar    
  16 C16            5.3920    -1.8276    -7.5128 C.ar    
  17 O17            4.9175    -3.8334    -8.7075 O.3     
  18 C18            5.0795    -4.5662    -9.8419 C.ar    
  19 C19            4.1186    -4.5197   -10.8401 C.ar    
  20 C20            4.2821    -5.2636   -11.9927 C.ar    
  21 C21            5.4093    -6.0582   -12.1525 C.ar    
  22 C22            6.3729    -6.1052   -11.1532 C.ar    
  23 C23            6.2109    -5.3569   -10.0024 C.ar    
  24 F24            7.1477    -5.4015    -9.0300 F       
  25 N25            5.5745    -6.8124   -13.3205 N.am    
  26 C26            6.8114    -7.0485   -13.8010 C.2     
  27 O27            7.7881    -6.7463   -13.1414 O.2     
  28 C28            6.9805    -7.6713   -15.1223 C.2     
  29 C29            8.2353    -8.1056   -15.5462 C.2     
  30 C30            8.3574    -8.6916   -16.8058 C.2     
  31 C31            7.2657    -8.8326   -17.6005 C.2     
  32 N32            6.0421    -8.4124   -17.1945 N.am    
  33 C33            5.8684    -7.8459   -15.9854 C.2     
  34 O34            4.7607    -7.4743   -15.6378 O.2     
  35 C35            4.9405    -8.5753   -18.0441 C.ar    
  36 C36            4.8306    -7.8063   -19.1949 C.ar    
  37 C37            3.7437    -7.9676   -20.0322 C.ar    
  38 C38            2.7635    -8.8953   -19.7254 C.ar    
  39 C39            2.8702    -9.6649   -18.5760 C.ar    
  40 C40            3.9598    -9.5102   -17.7391 C.ar    
  41 F41            1.9121   -10.5694   -18.2774 F       
  42 F42            1.7015    -9.0513   -20.5457 F       
  43 H43            5.7433     2.9895     0.1552 H       
  44 H44            6.9564     3.8759    -0.7993 H       
  45 H45            5.8409     4.7633     0.2668 H       
  46 H46            3.4421     3.9133    -3.5706 H       
  47 H47            3.4394     2.1113    -5.2473 H       
  48 H48            6.5602     0.1229    -3.1262 H       
  49 H49            6.5736     1.9242    -1.4488 H       
  50 H50            5.2967    -1.0298    -4.8463 H       
  51 H51            3.9941    -0.2001    -5.7313 H       
  52 H52            6.4405     1.0654    -6.3557 H       
  53 H53            7.8222    -0.9003   -10.2327 H       
  54 H54            4.6936    -2.0934    -6.7330 H       
  55 H55            3.2415    -3.9018   -10.7165 H       
  56 H56            3.5327    -5.2273   -12.7695 H       
  57 H57            7.2497    -6.7235   -11.2768 H       
  58 H58            4.7987    -7.1650   -13.7839 H       
  59 H59            9.0997    -7.9897   -14.9092 H       
  60 H60            9.3223    -9.0337   -17.1499 H       
  61 H61            7.3739    -9.2874   -18.5741 H       
  62 H62            5.5947    -7.0819   -19.4352 H       
  63 H63            3.6586    -7.3690   -20.9271 H       
  64 H64            4.0434   -10.1090   -16.8442 H       
@<TRIPOS>BOND
   1    1    2 1
   2    1   43 1
   3    1   44 1
   4    1   45 1
   5    2    3 1
   6    3    4 ar
   7    3    8 ar
   8    4    5 ar
   9    4   46 1
  10    5    6 ar
  11    5   47 1
  12    6    7 ar
  13    6    9 1
  14    7    8 ar
  15    7   48 1
  16    8   49 1
  17    9   10 1
  18    9   50 1
  19    9   51 1
  20   10   11 1
  21   10   52 1
  22   11   12 ar
  23   11   16 ar
  24   12   13 ar
  25   13   14 ar
  26   13   53 1
  27   14   15 ar
  28   15   16 ar
  29   15   17 1
  30   16   54 1
  31   17   18 1
  32   18   19 ar
  33   18   23 ar
  34   19   20 ar
  35   19   55 1
  36   20   21 ar
  37   20   56 1
  38   21   22 ar
  39   21   25 1
  40   22   23 ar
  41   22   57 1
  42   23   24 1
  43   25   26 am
  44   25   58 1
  45   26   27 2
  46   26   28 1
  47   28   29 2
  48   28   33 1
  49   29   30 1
  50   29   59 1
  51   30   31 2
  52   30   60 1
  53   31   32 1
  54   31   61 1
  55   32   33 am
  56   32   35 1
  57   33   34 2
  58   35   36 ar
  59   35   40 ar
  60   36   37 ar
  61   36   62 1
  62   37   38 ar
  63   37   63 1
  64   38   39 ar
  65   38   42 1
  66   39   40 ar
  67   39   41 1
  68   40   64 1

#	End of record

