#	Name: ASD01916032
#	Creating user name:	WinNT
#	Creation time:	15. 06. 2019 20:06

#	Modifying user name:	WinNT
#	Modification time:	15. 06. 2019 20:06

#	Program:	/corina/corina34_cracker 3.40 0067  02.08.2006

@<TRIPOS>MOLECULE
ASD01916032
  39   40    0    0    0
SMALL
NO_CHARGES


@<TRIPOS>ATOM
   1 C1             0.0975     1.2870    -0.1536 C.ar    
   2 C2             0.0972    -0.1053     0.0015 C.ar    
   3 C3            -1.1218    -0.7580     0.0749 C.ar    
   4 C4            -2.3008    -0.0108    -0.0077 C.ar    
   5 C5            -3.6067    -0.6979     0.0701 C.2     
   6 N6            -4.7451     0.0220     0.1169 N.am    
   7 O7            -3.6541    -1.9124     0.0918 O.2     
   8 C8             1.3320     2.0081    -0.2351 C.1     
   9 C9             2.3441     2.5992    -0.3019 C.1     
  10 C10            3.5786     3.3203    -0.3834 C.ar    
  11 C11            3.5717     4.7094    -0.5381 C.ar    
  12 C12            5.9813     3.3403    -0.3822 C.ar    
  13 C13            4.7647     5.3970    -0.6159 C.ar    
  14 N14           -2.2619     1.3098    -0.1548 N.ar    
  15 C15           -1.1277     1.9641    -0.2337 C.ar    
  16 C16            4.7964     2.6391    -0.3029 C.ar    
  17 C17            5.9665     4.7149    -0.5416 C.ar    
  18 C18           -6.0429    -0.6558     0.0664 C.3     
  19 C19           -4.6849     1.4822     0.2184 C.3     
  20 C20           -6.8648    -0.2765     1.2999 C.3     
  21 F21           -1.1713    -2.0998     0.2240 F       
  22 C22           -6.7926    -0.2285    -1.1971 C.3     
  23 F23           -7.1903     1.0829     1.2434 F       
  24 F24           -8.0391    -1.0364     1.3296 F       
  25 F25           -6.1165    -0.5293     2.4546 F       
  26 H26            1.0244    -0.6557     0.0620 H       
  27 H27            2.6345     5.2429    -0.5970 H       
  28 H28            6.9231     2.8148    -0.3246 H       
  29 H29            4.7609     6.4703    -0.7355 H       
  30 H30           -1.1377     3.0374    -0.3527 H       
  31 H31            4.8095     1.5664    -0.1785 H       
  32 H32            6.8976     5.2587    -0.6030 H       
  33 H33           -5.8890    -1.7348     0.0501 H       
  34 H34           -4.5635     1.9108    -0.7764 H       
  35 H35           -5.6076     1.8539     0.6640 H       
  36 H36           -3.8387     1.7684     0.8431 H       
  37 H37           -6.2071    -0.4987    -2.0759 H       
  38 H38           -7.7582    -0.7328    -1.2347 H       
  39 H39           -6.9466     0.8504    -1.1808 H       
@<TRIPOS>BOND
   1    1    2 ar
   2    1    8 1
   3    1   15 ar
   4    2    3 ar
   5    2   26 1
   6    3    4 ar
   7    3   21 1
   8    4   14 ar
   9    4    5 1
  10    5    6 am
  11    5    7 2
  12    6   19 1
  13    6   18 1
  14    8    9 3
  15    9   10 1
  16   10   11 ar
  17   10   16 ar
  18   11   13 ar
  19   11   27 1
  20   12   17 ar
  21   12   16 ar
  22   12   28 1
  23   13   17 ar
  24   13   29 1
  25   14   15 ar
  26   15   30 1
  27   16   31 1
  28   17   32 1
  29   18   22 1
  30   18   20 1
  31   18   33 1
  32   19   34 1
  33   19   35 1
  34   19   36 1
  35   20   23 1
  36   20   24 1
  37   20   25 1
  38   22   37 1
  39   22   38 1
  40   22   39 1

#	End of record

