#	Name: ASD07301074
#	Creating user name:	WinNT
#	Creation time:	15. 06. 2019 21:10

#	Modifying user name:	WinNT
#	Modification time:	15. 06. 2019 21:10

#	Program:	/corina/corina34_cracker 3.40 0067  02.08.2006

@<TRIPOS>MOLECULE
ASD07301074
  33   33    0    0    0
SMALL
NO_CHARGES


@<TRIPOS>ATOM
   1 C1            -0.0188     1.3434    -0.0160 C.2     
   2 N2             0.0021    -0.0041     0.0020 N.am    
   3 O3             1.0240     1.9671    -0.0306 O.2     
   4 O4            -1.1953     1.9985    -0.0233 O.3     
   5 C5             1.2206    -0.6883    -0.1192 C.ar    
   6 C6             1.4105    -1.8944     0.5465 C.ar    
   7 C7             2.6120    -2.5674     0.4260 C.ar    
   8 C8             3.6271    -2.0393    -0.3586 C.ar    
   9 C9             3.4373    -0.8365    -1.0223 C.ar    
  10 C10            2.2351    -0.1651    -0.9077 C.ar    
  11 O11            4.8089    -2.7013    -0.4766 O.3     
  12 C12            5.8098    -2.1000    -1.3004 C.3     
  13 F13            6.1351    -0.8376    -0.7928 F       
  14 F14            6.9524    -2.9072    -1.3103 F       
  15 F15            5.3219    -1.9665    -2.6048 F       
  16 F16            0.4218    -2.4078     1.3106 F       
  17 C17           -1.1418     3.4494    -0.0428 C.3     
  18 C18           -0.4037     3.9157    -1.2993 C.3     
  19 C19           -2.5645     4.0122    -0.0486 C.3     
  20 C20           -0.4007     3.9491     1.1990 C.3     
  21 H21           -0.8255    -0.5007     0.0988 H       
  22 H22            2.7606    -3.5040     0.9428 H       
  23 H23            4.2284    -0.4262    -1.6325 H       
  24 H24            2.0867     0.7693    -1.4285 H       
  25 H25           -0.9316     3.5597    -2.1839 H       
  26 H26           -0.3635     5.0049    -1.3139 H       
  27 H27            0.6099     3.5148    -1.2951 H       
  28 H28           -3.0903     3.6800     0.8465 H       
  29 H29           -2.5243     5.1013    -0.0632 H       
  30 H30           -3.0924     3.6562    -0.9333 H       
  31 H31            0.6129     3.5482     1.2031 H       
  32 H32           -0.3605     5.0383     1.1844 H       
  33 H33           -0.9265     3.6169     2.0941 H       
@<TRIPOS>BOND
   1    1    2 am
   2    1    3 2
   3    1    4 1
   4    2    5 1
   5    2   21 1
   6    4   17 1
   7    5    6 ar
   8    5   10 ar
   9    6    7 ar
  10    6   16 1
  11    7    8 ar
  12    7   22 1
  13    8    9 ar
  14    8   11 1
  15    9   10 ar
  16    9   23 1
  17   10   24 1
  18   11   12 1
  19   12   13 1
  20   12   14 1
  21   12   15 1
  22   17   18 1
  23   17   20 1
  24   17   19 1
  25   18   25 1
  26   18   26 1
  27   18   27 1
  28   19   28 1
  29   19   29 1
  30   19   30 1
  31   20   31 1
  32   20   32 1
  33   20   33 1

#	End of record

