#	Name: ASD02030289
#	Creating user name:	WinNT
#	Creation time:	15. 06. 2019 20:15

#	Modifying user name:	WinNT
#	Modification time:	15. 06. 2019 20:15

#	Program:	/corina/corina34_cracker 3.40 0067  02.08.2006

@<TRIPOS>MOLECULE
ASD02030289
  58   62    0    0    0
SMALL
NO_CHARGES


@<TRIPOS>ATOM
   1 N1            -0.2103     1.4210    -0.1415 N.am    
   2 C2            -0.0211    -0.0126     0.1210 C.3     
   3 C3            -0.9180    -0.4180     1.2972 C.3     
   4 N4            -2.2767     0.0829     1.0462 N.am    
   5 C5            -2.4658     1.5164     0.7837 C.3     
   6 C6            -1.5696     1.9228    -0.3870 C.3     
   7 C7             0.8433     2.2614    -0.1513 C.2     
   8 C8             2.1855     1.7686     0.2246 C.2     
   9 N9             3.2648     2.5049     0.3791 N.2     
  10 N10            2.5172     0.4887     0.4746 N.2     
  11 C11            3.7916     0.4680     0.7716 C.2     
  12 N12            4.2456     1.7366     0.7078 N.pl3   
  13 O13            0.6900     3.4247    -0.4692 O.2     
  14 C14           -3.3302    -0.7576     1.0560 C.2     
  15 C15           -4.7022    -0.2250     0.9122 C.ar    
  16 O16           -3.1527    -1.9533     1.1832 O.2     
  17 C17           -1.5418     3.4478    -0.5071 C.3     
  18 C18           -2.1083     1.3119    -1.6822 C.3     
  19 C19            5.5616     2.1491     0.9564 C.ar    
  20 C20            5.9002     3.4916     0.8562 C.ar    
  21 C21            7.1993     3.8954     1.1026 C.ar    
  22 C22            8.1610     2.9624     1.4483 C.ar    
  23 C23            7.8256     1.6246     1.5487 C.ar    
  24 C24            6.5282     1.2164     1.3093 C.ar    
  25 C25           -5.6714    -0.9653     0.2388 C.ar    
  26 C26           -6.9619    -0.4562     0.1081 C.ar    
  27 C27           -7.2755     0.7911     0.6522 C.ar    
  28 C28           -6.3098     1.5199     1.3181 C.ar    
  29 C29           -5.0308     1.0189     1.4561 C.ar    
  30 O30           -7.8391    -2.4477    -1.1791 O.3     
  31 Cl31           7.6244     5.5739     0.9776 Cl      
  32 C32           -7.9967    -1.2347    -0.6053 C.2     
  33 C33           -9.0147    -2.8002    -1.7170 C.2     
  34 N34           -9.8839    -1.8541    -1.4963 N.2     
  35 C35           -9.2878    -0.8679    -0.8097 C.2     
  36 H36           -0.2969    -0.5860    -0.7640 H       
  37 H37            1.0219    -0.2038     0.3734 H       
  38 H38           -0.9388    -1.5043     1.3840 H       
  39 H39           -0.5319     0.0177     2.2188 H       
  40 H40           -3.5088     1.7076     0.5313 H       
  41 H41           -2.1900     2.0899     1.6687 H       
  42 H42            4.3735    -0.4058     1.0250 H       
  43 H43           -1.0452     3.8720     0.3656 H       
  44 H44           -0.9980     3.7314    -1.4082 H       
  45 H45           -2.5623     3.8265    -0.5643 H       
  46 H46           -3.1216     1.6722    -1.8598 H       
  47 H47           -1.4680     1.6029    -2.5149 H       
  48 H48           -2.1191     0.2255    -1.5945 H       
  49 H49            5.1498     4.2197     0.5856 H       
  50 H50            9.1754     3.2796     1.6398 H       
  51 H51            8.5783     0.8986     1.8184 H       
  52 H52            6.2672     0.1714     1.3883 H       
  53 H53           -5.4235    -1.9292    -0.1804 H       
  54 H54           -8.2753     1.1868     0.5516 H       
  55 H55           -6.5574     2.4843     1.7364 H       
  56 H56           -4.2804     1.5938     1.9783 H       
  57 H57           -9.2104    -3.7198    -2.2484 H       
  58 H58           -9.7506     0.0503    -0.4793 H       
@<TRIPOS>BOND
   1    1    2 1
   2    1    7 am
   3    1    6 1
   4    2    3 1
   5    2   36 1
   6    2   37 1
   7    3    4 1
   8    3   38 1
   9    3   39 1
  10    4    5 1
  11    4   14 am
  12    5    6 1
  13    5   40 1
  14    5   41 1
  15    6   17 1
  16    6   18 1
  17    7    8 1
  18    7   13 2
  19    8    9 2
  20    8   10 1
  21    9   12 1
  22   10   11 2
  23   11   12 1
  24   11   42 1
  25   12   19 1
  26   14   15 1
  27   14   16 2
  28   15   25 ar
  29   15   29 ar
  30   17   43 1
  31   17   44 1
  32   17   45 1
  33   18   46 1
  34   18   47 1
  35   18   48 1
  36   19   20 ar
  37   19   24 ar
  38   20   21 ar
  39   20   49 1
  40   21   22 ar
  41   21   31 1
  42   22   23 ar
  43   22   50 1
  44   23   24 ar
  45   23   51 1
  46   24   52 1
  47   25   26 ar
  48   25   53 1
  49   26   27 ar
  50   26   32 1
  51   27   28 ar
  52   27   54 1
  53   28   29 ar
  54   28   55 1
  55   29   56 1
  56   30   33 1
  57   30   32 1
  58   32   35 2
  59   33   34 2
  60   33   57 1
  61   34   35 1
  62   35   58 1

#	End of record

