#	Name: ASD01230112
#	Creating user name:	WinNT
#	Creation time:	15. 06. 2019 19:11

#	Modifying user name:	WinNT
#	Modification time:	15. 06. 2019 19:11

#	Program:	/corina/corina34_cracker 3.40 0067  02.08.2006

@<TRIPOS>MOLECULE
ASD01230112
  52   55    0    0    0
SMALL
NO_CHARGES


@<TRIPOS>ATOM
   1 C1            -0.0183     1.3345     0.1410 C.2     
   2 C2             0.0040     0.0063    -0.1324 C.2     
   3 C3            -1.1803    -0.8650    -0.3238 C.ar    
   4 C4            -1.1560    -1.9183    -1.2432 C.ar    
   5 N5             1.2825     1.7502     0.2162 N.pl3   
   6 C6             2.0690     0.6577     0.0155 C.2     
   7 N7             1.2931    -0.3814    -0.1997 N.2     
   8 C8            -2.3500    -0.6595     0.4143 C.ar    
   9 C9            -3.4283    -1.4936     0.2051 C.ar    
  10 N10           -3.3654    -2.4738    -0.6762 N.ar    
  11 C11           -2.2795    -2.7047    -1.3895 C.ar    
  12 C12            3.5479     0.6423     0.0357 C.ar    
  13 C13            4.2300    -0.4990     0.4581 C.ar    
  14 C14           -4.6950    -1.2831     0.9939 C.3     
  15 C15            4.2651     1.7671    -0.3731 C.ar    
  16 C16            5.6450     1.7499    -0.3532 C.ar    
  17 C17            6.3205     0.6197     0.0712 C.ar    
  18 C18            5.6139    -0.5069     0.4746 C.ar    
  19 C19           -1.2250     2.2099     0.3512 C.3     
  20 C20           -0.8636     3.6523    -0.0169 C.3     
  21 O21           -0.2945     4.3064     1.1166 O.3     
  22 C22            0.9078     3.7178     1.6107 C.3     
  23 C23            1.7134     3.1307     0.4482 C.3     
  24 C24            1.7428     4.7858     2.3200 C.3     
  25 Cl25           8.0563     0.6063     0.0932 Cl      
  26 C26           -2.2687    -3.8394    -2.3812 C.3     
  27 O27            6.2821    -1.6149     0.8913 O.3     
  28 C28            5.4924    -2.7365     1.2916 C.3     
  29 H29           -0.2706    -2.1129    -1.8303 H       
  30 H30           -2.4082     0.1404     1.1377 H       
  31 H31            3.6797    -1.3738     0.7716 H       
  32 H32           -5.3494    -0.5984     0.4545 H       
  33 H33           -5.2015    -2.2387     1.1295 H       
  34 H34           -4.4503    -0.8601     1.9682 H       
  35 H35            3.7407     2.6508    -0.7053 H       
  36 H36            6.1990     2.6211    -0.6702 H       
  37 H37           -2.0411     1.8648    -0.2836 H       
  38 H38           -1.5302     2.1657     1.3967 H       
  39 H39           -0.1422     3.6486    -0.8340 H       
  40 H40           -1.7627     4.1835    -0.3292 H       
  41 H41            0.6598     2.9251     2.3165 H       
  42 H42            2.7747     3.1445     0.6965 H       
  43 H43            1.5405     3.7225    -0.4507 H       
  44 H44            1.1724     5.2002     3.1512 H       
  45 H45            2.6616     4.3370     2.6978 H       
  46 H46            1.9894     5.5809     1.6164 H       
  47 H47           -2.6110    -3.4778    -3.3508 H       
  48 H48           -1.2553    -4.2295    -2.4759 H       
  49 H49           -2.9320    -4.6316    -2.0340 H       
  50 H50            4.8512    -2.4504     2.1253 H       
  51 H51            4.8757    -3.0639     0.4546 H       
  52 H52            6.1480    -3.5508     1.6003 H       
@<TRIPOS>BOND
   1    1    2 2
   2    1    5 1
   3    1   19 1
   4    2    3 1
   5    2    7 1
   6    3    4 ar
   7    3    8 ar
   8    4   11 ar
   9    4   29 1
  10    5    6 1
  11    5   23 1
  12    6    7 2
  13    6   12 1
  14    8    9 ar
  15    8   30 1
  16    9   10 ar
  17    9   14 1
  18   10   11 ar
  19   11   26 1
  20   12   15 ar
  21   12   13 ar
  22   13   18 ar
  23   13   31 1
  24   14   32 1
  25   14   33 1
  26   14   34 1
  27   15   16 ar
  28   15   35 1
  29   16   17 ar
  30   16   36 1
  31   17   18 ar
  32   17   25 1
  33   18   27 1
  34   19   20 1
  35   19   37 1
  36   19   38 1
  37   20   21 1
  38   20   39 1
  39   20   40 1
  40   21   22 1
  41   22   23 1
  42   22   24 1
  43   22   41 1
  44   23   42 1
  45   23   43 1
  46   24   44 1
  47   24   45 1
  48   24   46 1
  49   26   47 1
  50   26   48 1
  51   26   49 1
  52   27   28 1
  53   28   50 1
  54   28   51 1
  55   28   52 1

#	End of record

