#	Name: ASD03430047
#	Creating user name:	WinNT
#	Creation time:	15. 06. 2019 20:40

#	Modifying user name:	WinNT
#	Modification time:	15. 06. 2019 20:40

#	Program:	/corina/corina34_cracker 3.40 0067  02.08.2006

@<TRIPOS>MOLECULE
ASD03430047
  48   53    0    0    0
SMALL
NO_CHARGES


@<TRIPOS>ATOM
   1 C1            -0.0166     1.3737     0.0096 C.ar    
   2 C2             0.0021    -0.0041     0.0020 C.ar    
   3 C3             1.2040    -0.6791    -0.0055 C.ar    
   4 C4             2.4066     0.0237     0.0042 C.ar    
   5 C5             2.3789     1.4127     0.0033 C.ar    
   6 C6             1.1692     2.0977     0.0022 C.ar    
   7 O7             3.4725    -0.8263     0.0251 O.3     
   8 C8             1.5599    -2.1407    -0.0378 C.3     
   9 C9             3.0486    -2.1319    -0.4120 C.3     
  10 C10            0.4333    -3.8606     1.0082 C.ar    
  11 C11            1.3177    -2.8186     1.2778 C.ar    
  12 C12            0.7380    -2.9043    -1.0363 C.2     
  13 N13            0.1139    -3.8833    -0.3516 N.am    
  14 O14            0.6525    -2.6833    -2.2258 O.2     
  15 C15            1.7762    -2.6030     2.5578 C.ar    
  16 C16            1.3585    -3.4233     3.5913 C.ar    
  17 C17            0.4797    -4.4594     3.3353 C.ar    
  18 C18            0.0179    -4.6804     2.0541 C.ar    
  19 C19           -0.7933    -4.8580    -0.9624 C.3     
  20 C20           -2.2019    -4.3232    -0.9286 C.ar    
  21 C21           -2.6779    -3.5655    -1.9826 C.ar    
  22 C22           -3.9687    -3.0741    -1.9539 C.ar    
  23 C23           -4.7875    -3.3415    -0.8664 C.ar    
  24 C24           -4.3075    -4.1021     0.1899 C.ar    
  25 C25           -3.0178    -4.5959     0.1539 C.ar    
  26 O26           -6.0575    -2.8589    -0.8357 O.3     
  27 C27           -1.1522     2.3780     0.0354 C.3     
  28 C28           -0.4182     3.6805     0.4331 C.3     
  29 O29            0.9259     3.4378    -0.0160 O.3     
  30 H30           -0.9263    -0.5559     0.0023 H       
  31 H31            3.3065     1.9659     0.0035 H       
  32 H32            3.1777    -2.2404    -1.4888 H       
  33 H33            3.5870    -2.9133     0.1242 H       
  34 H34            2.4628    -1.7932     2.7556 H       
  35 H35            1.7186    -3.2546     4.5954 H       
  36 H36            0.1533    -5.0990     4.1420 H       
  37 H37           -0.6683    -5.4919     1.8619 H       
  38 H38           -0.4959    -5.0331    -1.9963 H       
  39 H39           -0.7470    -5.7950    -0.4074 H       
  40 H40           -2.0399    -3.3573    -2.8288 H       
  41 H41           -4.3399    -2.4819    -2.7773 H       
  42 H42           -4.9430    -4.3117     1.0376 H       
  43 H43           -2.6436    -5.1880     0.9759 H       
  44 H44           -6.7137    -3.4533    -1.2246 H       
  45 H45           -1.6098     2.4739    -0.9493 H       
  46 H46           -1.8960     2.1058     0.7842 H       
  47 H47           -0.8486     4.5391    -0.0824 H       
  48 H48           -0.4445     3.8241     1.5133 H       
@<TRIPOS>BOND
   1    1    2 ar
   2    1    6 ar
   3    1   27 1
   4    2    3 ar
   5    2   30 1
   6    3    4 ar
   7    3    8 1
   8    4    5 ar
   9    4    7 1
  10    5    6 ar
  11    5   31 1
  12    6   29 1
  13    7    9 1
  14    8    9 1
  15    8   11 1
  16    8   12 1
  17    9   32 1
  18    9   33 1
  19   10   11 ar
  20   10   13 1
  21   10   18 ar
  22   11   15 ar
  23   12   13 am
  24   12   14 2
  25   13   19 1
  26   15   16 ar
  27   15   34 1
  28   16   17 ar
  29   16   35 1
  30   17   18 ar
  31   17   36 1
  32   18   37 1
  33   19   20 1
  34   19   38 1
  35   19   39 1
  36   20   21 ar
  37   20   25 ar
  38   21   22 ar
  39   21   40 1
  40   22   23 ar
  41   22   41 1
  42   23   24 ar
  43   23   26 1
  44   24   25 ar
  45   24   42 1
  46   25   43 1
  47   26   44 1
  48   27   28 1
  49   27   45 1
  50   27   46 1
  51   28   29 1
  52   28   47 1
  53   28   48 1

#	End of record

