#	Name: ASD01816779
#	Creating user name:	WinNT
#	Creation time:	15. 06. 2019 19:35

#	Modifying user name:	WinNT
#	Modification time:	15. 06. 2019 19:35

#	Program:	/corina/corina34_cracker 3.40 0067  02.08.2006

@<TRIPOS>MOLECULE
ASD01816779
  62   66    0    0    0
SMALL
NO_CHARGES


@<TRIPOS>ATOM
   1 C1            -0.0168     1.3897     0.0097 C.ar    
   2 C2             0.0021    -0.0041     0.0020 C.ar    
   3 C3             1.1796    -0.6877    -0.0124 C.ar    
   4 C4             2.3927     0.0187    -0.0202 C.ar    
   5 C5             2.3768     1.4381    -0.0129 C.ar    
   6 C6             1.1385     2.1078     0.0025 C.ar    
   7 C7             3.6297    -0.6529    -0.0346 C.ar    
   8 C8             4.7711     0.0956    -0.0411 C.ar    
   9 C9             4.6871     1.4959    -0.0333 C.ar    
  10 N10            3.5238     2.1168    -0.0202 N.ar    
  11 C11            3.6922    -2.1586    -0.0422 C.3     
  12 C12            5.9353     2.2963    -0.0400 C.2     
  13 O13            7.0146     1.7386    -0.0521 O.2     
  14 N14            5.8725     3.6426    -0.0327 N.am    
  15 C15            7.1057     4.4335    -0.0393 C.3     
  16 C16            7.5905     4.6102    -1.4796 C.3     
  17 C17            6.8345     5.8062     0.5796 C.3     
  18 C18            8.1224     6.6321     0.5727 C.3     
  19 C19            8.6072     6.8088    -0.8677 C.3     
  20 C20            8.8784     5.4361    -1.4865 C.3     
  21 C21            3.5763    -2.6591    -1.4590 C.ar    
  22 C22            4.7099    -2.8410    -2.2299 C.ar    
  23 C23            2.3318    -2.9470    -2.0005 C.ar    
  24 C24            2.2689    -3.4045    -3.3056 C.ar    
  25 C25            3.4508    -3.5590    -4.0264 C.ar    
  26 N26            4.6218    -3.2774    -3.4697 N.ar    
  27 O27            6.3817     5.6411     1.9249 O.3     
  28 C28            3.4003    -4.0486    -5.4258 C.ar    
  29 C29            4.5755    -4.2100    -6.1645 C.ar    
  30 C30            4.4748    -4.6698    -7.4666 C.ar    
  31 C31            3.2262    -4.9521    -7.9895 C.ar    
  32 N32            2.1340    -4.7895    -7.2678 N.ar    
  33 C33            2.1805    -4.3607    -6.0233 C.ar    
  34 C34            3.1114    -5.4529    -9.4062 C.3     
  35 H35           -0.9643     1.9080     0.0170 H       
  36 H36           -0.9302    -0.5493     0.0080 H       
  37 H37            1.1803    -1.7677    -0.0175 H       
  38 H38            1.1059     3.1873     0.0079 H       
  39 H39            5.7363    -0.3889    -0.0518 H       
  40 H40            4.6417    -2.4850     0.3819 H       
  41 H41            2.8716    -2.5593     0.5529 H       
  42 H42            5.0108     4.0879    -0.0231 H       
  43 H43            7.8710     3.9180     0.5410 H       
  44 H44            7.7837     3.6322    -1.9206 H       
  45 H45            6.8252     5.1256    -2.0600 H       
  46 H46            6.0692     6.3216    -0.0007 H       
  47 H47            7.9292     7.6101     1.0136 H       
  48 H48            8.8877     6.1167     1.1530 H       
  49 H49            7.8419     7.3243    -1.4480 H       
  50 H50            9.5247     7.3973    -0.8726 H       
  51 H51            9.6437     4.9207    -0.9062 H       
  52 H52            9.2238     5.5620    -2.5127 H       
  53 H53            5.6805    -2.6220    -1.8100 H       
  54 H54            1.4324    -2.8176    -1.4168 H       
  55 H55            1.3167    -3.6385    -3.7585 H       
  56 H56            6.1900     6.4724     2.3801 H       
  57 H57            5.5379    -3.9814    -5.7309 H       
  58 H58            5.3618    -4.8062    -8.0674 H       
  59 H59            1.2644    -4.2401    -5.4642 H       
  60 H60            3.1619    -6.5417    -9.4119 H       
  61 H61            2.1598    -5.1311    -9.8293 H       
  62 H62            3.9294    -5.0480   -10.0021 H       
@<TRIPOS>BOND
   1    1    2 ar
   2    1    6 ar
   3    1   35 1
   4    2    3 ar
   5    2   36 1
   6    3    4 ar
   7    3   37 1
   8    4    5 ar
   9    4    7 ar
  10    5    6 ar
  11    5   10 ar
  12    6   38 1
  13    7    8 ar
  14    7   11 1
  15    8    9 ar
  16    8   39 1
  17    9   10 ar
  18    9   12 1
  19   11   21 1
  20   11   40 1
  21   11   41 1
  22   12   13 2
  23   12   14 am
  24   14   15 1
  25   14   42 1
  26   15   16 1
  27   15   17 1
  28   15   43 1
  29   16   20 1
  30   16   44 1
  31   16   45 1
  32   17   18 1
  33   17   27 1
  34   17   46 1
  35   18   19 1
  36   18   47 1
  37   18   48 1
  38   19   20 1
  39   19   49 1
  40   19   50 1
  41   20   51 1
  42   20   52 1
  43   21   22 ar
  44   21   23 ar
  45   22   26 ar
  46   22   53 1
  47   23   24 ar
  48   23   54 1
  49   24   25 ar
  50   24   55 1
  51   25   26 ar
  52   25   28 1
  53   27   56 1
  54   28   29 ar
  55   28   33 ar
  56   29   30 ar
  57   29   57 1
  58   30   31 ar
  59   30   58 1
  60   31   32 ar
  61   31   34 1
  62   32   33 ar
  63   33   59 1
  64   34   60 1
  65   34   61 1
  66   34   62 1

#	End of record

