#	Name: ASD03330551
#	Creating user name:	WinNT
#	Creation time:	15. 06. 2019 20:37

#	Modifying user name:	WinNT
#	Modification time:	15. 06. 2019 20:37

#	Program:	/corina/corina34_cracker 3.40 0067  02.08.2006

@<TRIPOS>MOLECULE
ASD03330551
  64   66    0    0    0
SMALL
NO_CHARGES


@<TRIPOS>ATOM
   1 C1            -0.3246     1.1700     0.8468 C.2     
   2 N2            -0.3542    -0.1692     1.0806 N.pl3   
   3 C3             0.9804     1.5558     0.8935 C.2     
   4 N4             1.7272     0.4559     1.1356 N.2     
   5 C5             0.9349    -0.5850     1.2436 C.2     
   6 C6             1.3673    -1.9758     1.5000 C.ar    
   7 C7             1.4877     2.9272     0.7116 C.2     
   8 O8             0.7120     3.8391     0.4971 O.2     
   9 C9             3.3156     4.5347     0.6024 C.3     
  10 N10            2.8113     3.1712     0.7831 N.am    
  11 C11            3.4926     4.8193    -0.8905 C.3     
  12 C12            2.1259     4.8044    -1.5780 C.3     
  13 C13            4.1411     6.1928    -1.0745 C.3     
  14 C14            4.3878     3.7452    -1.5118 C.3     
  15 C15            4.6431     4.6761     1.3015 C.2     
  16 N16            5.1799     5.8982     1.4878 N.am    
  17 O17            5.2285     3.6901     1.6965 O.2     
  18 C18            6.5030     6.0312     2.1024 C.3     
  19 C19           -1.5644    -0.9924     1.1543 C.3     
  20 C20           -2.4703    -0.6613    -0.0359 C.3     
  21 C21           -3.3818     0.5089     0.3196 C.3     
  22 N22           -2.7055     1.4511     1.2133 N.3     
  23 C23           -1.5221     2.0418     0.5707 C.3     
  24 C24           -3.6301     2.4951     1.6749 C.3     
  25 C25            0.5219    -2.8582     2.1745 C.ar    
  26 C26            0.9281    -4.1538     2.4112 C.ar    
  27 C27            2.1769    -4.5817     1.9796 C.ar    
  28 C28            3.0209    -3.7066     1.3082 C.ar    
  29 C29            2.6194    -2.4110     1.0631 C.ar    
  30 O30            2.5741    -5.8592     2.2151 O.3     
  31 C31            3.8704    -6.2328     1.7440 C.3     
  32 F32            4.8375    -5.4214     2.3469 F       
  33 F33            4.1166    -7.5712     2.0685 F       
  34 F34            3.9263    -6.0717     0.3554 F       
  35 H35            2.6047     5.2442     1.0257 H       
  36 H36            3.4299     2.4439     0.9543 H       
  37 H37            1.4881     5.5695    -1.1354 H       
  38 H38            2.2520     5.0071    -2.6416 H       
  39 H39            1.6639     3.8259    -1.4470 H       
  40 H40            5.1000     6.2141    -0.5566 H       
  41 H41            4.2975     6.3814    -2.1366 H       
  42 H42            3.4879     6.9613    -0.6613 H       
  43 H43            3.9258     2.7668    -1.3807 H       
  44 H44            4.5139     3.9480    -2.5753 H       
  45 H45            5.3615     3.7559    -1.0220 H       
  46 H46            4.6900     6.6898     1.2150 H       
  47 H47            6.4848     5.5965     3.1018 H       
  48 H48            7.2409     5.5098     1.4928 H       
  49 H49            6.7679     7.0864     2.1700 H       
  50 H50           -1.2903    -2.0469     1.1212 H       
  51 H51           -2.0927    -0.7812     2.0840 H       
  52 H52           -1.8560    -0.3940    -0.8957 H       
  53 H53           -3.0779    -1.5321    -0.2822 H       
  54 H54           -3.6709     1.0276    -0.5944 H       
  55 H55           -4.2767     0.1284     0.8121 H       
  56 H56           -1.3478     3.0391     0.9744 H       
  57 H57           -1.6857     2.1063    -0.5051 H       
  58 H58           -4.4580     2.0348     2.2141 H       
  59 H59           -3.1021     3.1814     2.3369 H       
  60 H60           -4.0164     3.0439     0.8160 H       
  61 H61           -0.4492    -2.5261     2.5107 H       
  62 H62            0.2747    -4.8371     2.9333 H       
  63 H63            3.9914    -4.0427     0.9744 H       
  64 H64            3.2762    -1.7310     0.5410 H       
@<TRIPOS>BOND
   1    1    2 1
   2    1    3 2
   3    1   23 1
   4    2   19 1
   5    2    5 1
   6    3    4 1
   7    3    7 1
   8    4    5 2
   9    5    6 1
  10    6   25 ar
  11    6   29 ar
  12    7    8 2
  13    7   10 am
  14    9   10 1
  15    9   11 1
  16    9   15 1
  17    9   35 1
  18   10   36 1
  19   11   12 1
  20   11   13 1
  21   11   14 1
  22   12   37 1
  23   12   38 1
  24   12   39 1
  25   13   40 1
  26   13   41 1
  27   13   42 1
  28   14   43 1
  29   14   44 1
  30   14   45 1
  31   15   16 am
  32   15   17 2
  33   16   18 1
  34   16   46 1
  35   18   47 1
  36   18   48 1
  37   18   49 1
  38   19   20 1
  39   19   50 1
  40   19   51 1
  41   20   21 1
  42   20   52 1
  43   20   53 1
  44   21   22 1
  45   21   54 1
  46   21   55 1
  47   22   23 1
  48   22   24 1
  49   23   56 1
  50   23   57 1
  51   24   58 1
  52   24   59 1
  53   24   60 1
  54   25   26 ar
  55   25   61 1
  56   26   27 ar
  57   26   62 1
  58   27   28 ar
  59   27   30 1
  60   28   29 ar
  61   28   63 1
  62   29   64 1
  63   30   31 1
  64   31   32 1
  65   31   33 1
  66   31   34 1

#	End of record

