#	Name: ASD03090188
#	Creating user name:	WinNT
#	Creation time:	15. 06. 2019 20:28

#	Modifying user name:	WinNT
#	Modification time:	15. 06. 2019 20:28

#	Program:	/corina/corina34_cracker 3.40 0067  02.08.2006

@<TRIPOS>MOLECULE
ASD03090188
  44   46    0    0    0
SMALL
NO_CHARGES


@<TRIPOS>ATOM
   1 C1            -0.6858     2.0996    -1.9009 C.ar    
   2 C2            -1.8805     2.7100    -1.5113 C.ar    
   3 C3            -2.9152     1.9252    -1.0379 C.ar    
   4 C4            -2.7219     0.5409    -0.9678 C.ar    
   5 C5            -1.4963     0.0027    -1.3766 C.ar    
   6 N6            -0.5389     0.7799    -1.8254 N.ar    
   7 C7            -3.7979    -0.3413    -0.4682 C.2     
   8 N8            -5.0424    -3.3277     0.9054 N.pl3   
   9 C9            -3.9542    -4.1487     1.2183 C.ar    
  10 C10           -4.0705    -5.5283     1.1106 C.ar    
  11 C11           -2.9948    -6.3385     1.4195 C.ar    
  12 C12           -1.8009    -5.7767     1.8369 C.ar    
  13 C13           -1.6814    -4.3991     1.9461 C.ar    
  14 C14           -2.7540    -3.5849     1.6318 C.ar    
  15 N15           -3.6429    -1.5620     0.0056 N.2     
  16 C16           -4.8268    -2.0593     0.3637 C.2     
  17 N17           -5.7582    -1.1638     0.1243 N.2     
  18 N18           -5.1142    -0.0366    -0.4110 N.pl3   
  19 C19           -5.7443     1.2169    -0.8327 C.3     
  20 C20           -5.9577     2.1160     0.3867 C.3     
  21 F21           -0.5153    -3.8525     2.3541 F       
  22 O22           -4.6931     2.4333     0.9717 O.3     
  23 C23            0.4233     2.9277    -2.4075 C.2     
  24 O24            0.2956     4.1308    -2.4841 O.2     
  25 C25            1.7160     2.2787    -2.8303 C.3     
  26 F26           -0.7507    -6.5711     2.1388 F       
  27 C27           -6.6570     3.4060    -0.0469 C.3     
  28 H28           -1.9942     3.7819    -1.5788 H       
  29 H29           -3.8499     2.3695    -0.7293 H       
  30 H30           -1.3383    -1.0645    -1.3261 H       
  31 H31           -5.9469    -3.6397     1.0647 H       
  32 H32           -5.0019    -5.9680     0.7857 H       
  33 H33           -3.0858    -7.4114     1.3356 H       
  34 H34           -2.6615    -2.5122     1.7163 H       
  35 H35           -5.0994     1.7245    -1.5500 H       
  36 H36           -6.7062     1.0014    -1.2980 H       
  37 H37           -6.5761     1.5957     1.1180 H       
  38 H38           -4.7521     3.0019     1.7516 H       
  39 H39            1.6651     2.0229    -3.8886 H       
  40 H40            2.5416     2.9706    -2.6631 H       
  41 H41            1.8766     1.3734    -2.2450 H       
  42 H42           -6.0386     3.9263    -0.7783 H       
  43 H43           -7.6216     3.1640    -0.4931 H       
  44 H44           -6.8090     4.0465     0.8218 H       
@<TRIPOS>BOND
   1    1    2 ar
   2    1   23 1
   3    1    6 ar
   4    2    3 ar
   5    2   28 1
   6    3    4 ar
   7    3   29 1
   8    4    5 ar
   9    4    7 1
  10    5    6 ar
  11    5   30 1
  12    7   15 2
  13    7   18 1
  14    8    9 1
  15    8   16 1
  16    8   31 1
  17    9   10 ar
  18    9   14 ar
  19   10   11 ar
  20   10   32 1
  21   11   12 ar
  22   11   33 1
  23   12   13 ar
  24   12   26 1
  25   13   14 ar
  26   13   21 1
  27   14   34 1
  28   15   16 1
  29   16   17 2
  30   17   18 1
  31   18   19 1
  32   19   20 1
  33   19   35 1
  34   19   36 1
  35   20   22 1
  36   20   27 1
  37   20   37 1
  38   22   38 1
  39   23   24 2
  40   23   25 1
  41   25   39 1
  42   25   40 1
  43   25   41 1
  44   27   42 1
  45   27   43 1
  46   27   44 1

#	End of record

