#	Name: ASD01903189
#	Creating user name:	WinNT
#	Creation time:	15. 06. 2019 19:54

#	Modifying user name:	WinNT
#	Modification time:	15. 06. 2019 19:54

#	Program:	/corina/corina34_cracker 3.40 0067  02.08.2006

@<TRIPOS>MOLECULE
ASD01903189
  29   31    0    0    0
SMALL
NO_CHARGES


@<TRIPOS>ATOM
   1 S1            -0.0218     1.7569     0.0117 S.3     
   2 C2             0.0021    -0.0041     0.0020 C.2     
   3 N3             1.2324    -0.4171    -0.0119 N.2     
   4 C4             2.1781     0.5116    -0.0160 C.2     
   5 C5             1.7401     1.7811    -0.0050 C.2     
   6 N6            -1.1185    -0.8215     0.0090 N.pl3   
   7 C7            -2.3908    -0.2580     0.0245 C.ar    
   8 N8            -2.5250     1.0591     0.0324 N.ar    
   9 C9            -3.7128     1.6337     0.0466 C.ar    
  10 C10           -4.8663     0.8754     0.0543 C.ar    
  11 C11           -4.7698    -0.5100     0.0463 C.ar    
  12 C12           -3.5110    -1.0839     0.0256 C.ar    
  13 C13            3.6241     0.1714    -0.0312 C.2     
  14 C14            4.6409     0.8907    -0.6878 C.2     
  15 N15            5.7765     0.2818    -0.4685 N.2     
  16 N16            5.5315    -0.8416     0.3307 N.pl3   
  17 C17            4.2083    -0.8909     0.5933 C.2     
  18 I18           -3.2941    -3.1676     0.0127 I       
  19 C19            2.6064     3.0143    -0.0071 C.3     
  20 H20           -1.0153    -1.7860     0.0032 H       
  21 H21           -3.7835     2.7114     0.0528 H       
  22 H22           -5.8341     1.3547     0.0666 H       
  23 H23           -5.6573    -1.1254     0.0520 H       
  24 H24            4.5059     1.7891    -1.2718 H       
  25 H25            6.1977    -1.4729     0.6443 H       
  26 H26            3.7030    -1.6394     1.1857 H       
  27 H27            2.8051     3.3170    -1.0352 H       
  28 H28            2.0921     3.8204     0.5161 H       
  29 H29            3.5485     2.7973     0.4963 H       
@<TRIPOS>BOND
   1    1    2 1
   2    1    5 1
   3    2    3 2
   4    2    6 1
   5    3    4 1
   6    4    5 2
   7    4   13 1
   8    5   19 1
   9    6    7 1
  10    6   20 1
  11    7    8 ar
  12    7   12 ar
  13    8    9 ar
  14    9   10 ar
  15    9   21 1
  16   10   11 ar
  17   10   22 1
  18   11   12 ar
  19   11   23 1
  20   12   18 1
  21   13   14 1
  22   13   17 2
  23   14   15 2
  24   14   24 1
  25   15   16 1
  26   16   17 1
  27   16   25 1
  28   17   26 1
  29   19   27 1
  30   19   28 1
  31   19   29 1

#	End of record

