#	Name: ASD03200026
#	Creating user name:	WinNT
#	Creation time:	15. 06. 2019 20:34

#	Modifying user name:	WinNT
#	Modification time:	15. 06. 2019 20:34

#	Program:	/corina/corina34_cracker 3.40 0067  02.08.2006

@<TRIPOS>MOLECULE
ASD03200026
  30   32    0    0    0
SMALL
NO_CHARGES


@<TRIPOS>ATOM
   1 C1            -0.0167     1.3946     0.0237 C.ar    
   2 C2             0.0024    -0.0041     0.0298 C.ar    
   3 C3             1.1965    -0.6626     0.0277 C.ar    
   4 C4             2.3993     0.0392     0.0199 C.ar    
   5 C5             2.4183     1.4022     0.0136 C.ar    
   6 C6             1.2030     2.1169     0.0151 C.ar    
   7 N7             1.1886     3.4501     0.0095 N.ar    
   8 C8             0.0693     4.1423     0.0117 C.ar    
   9 C9            -1.1921     3.5279     0.0200 C.ar    
  10 C10           -1.2748     2.1423     0.0318 C.ar    
  11 C11            0.1438     5.6233     0.0055 C.ar    
  12 C12            1.3834     6.2614    -0.0023 C.ar    
  13 C13            1.4473     7.6398    -0.0079 C.ar    
  14 C14            0.2843     8.3890    -0.0053 C.ar    
  15 C15           -0.9492     7.7615     0.0029 C.ar    
  16 C16           -1.0249     6.3824     0.0018 C.ar    
  17 C17           -2.5803     1.4502     0.0466 C.2     
  18 F18            3.5956     2.0648     0.0065 F       
  19 Br19          -2.5335     8.7939     0.0070 Br      
  20 O20           -2.6272     0.2400    -0.0466 O.2     
  21 O21           -3.7185     2.1614     0.1634 O.3     
  22 H22           -0.9238    -0.5596     0.0367 H       
  23 H23            1.2096    -1.7425     0.0325 H       
  24 H24            3.3321    -0.5051     0.0190 H       
  25 H25           -2.0904     4.1276     0.0215 H       
  26 H26            2.2922     5.6779    -0.0036 H       
  27 H27            2.4071     8.1348    -0.0140 H       
  28 H28            0.3392     9.4676    -0.0094 H       
  29 H29           -1.9878     5.8933     0.0031 H       
  30 H30           -4.5481     1.6646     0.1683 H       
@<TRIPOS>BOND
   1    1    2 ar
   2    1    6 ar
   3    1   10 ar
   4    2    3 ar
   5    2   22 1
   6    3    4 ar
   7    3   23 1
   8    4    5 ar
   9    4   24 1
  10    5    6 ar
  11    5   18 1
  12    6    7 ar
  13    7    8 ar
  14    8    9 ar
  15    8   11 1
  16    9   10 ar
  17    9   25 1
  18   10   17 1
  19   11   12 ar
  20   11   16 ar
  21   12   13 ar
  22   12   26 1
  23   13   14 ar
  24   13   27 1
  25   14   15 ar
  26   14   28 1
  27   15   16 ar
  28   15   19 1
  29   16   29 1
  30   17   20 2
  31   17   21 1
  32   21   30 1

#	End of record

