#	Name: ASD05740189
#	Creating user name:	WinNT
#	Creation time:	15. 06. 2019 21:03

#	Modifying user name:	WinNT
#	Modification time:	15. 06. 2019 21:03

#	Program:	/corina/corina34_cracker 3.40 0067  02.08.2006

@<TRIPOS>MOLECULE
ASD05740189
  62   66    0    0    0
SMALL
NO_CHARGES


@<TRIPOS>ATOM
   1 C1             0.9531    -0.8271    -0.0440 C.3     
   2 N2             0.0371    -0.1445     0.8805 N.3     
   3 C3            -1.2685    -0.6286     0.7416 C.ar    
   4 C4            -2.2886    -0.1107     1.5289 C.ar    
   5 C5            -3.5768    -0.5884     1.3918 C.ar    
   6 C6            -3.8523    -1.5871     0.4670 C.ar    
   7 C7            -2.8322    -2.1053    -0.3199 C.ar    
   8 C8            -1.5452    -1.6230    -0.1876 C.ar    
   9 N9            -5.1590    -2.0720     0.3283 N.pl3   
  10 C10           -6.2334    -1.2225     0.5064 C.ar    
  11 N11           -6.0003     0.0714     0.6975 N.ar    
  12 N12           -7.4577    -1.7281     0.4747 N.ar    
  13 C13           -8.5129    -0.9414     0.6420 C.ar    
  14 C14           -8.3033     0.4392     0.8533 C.ar    
  15 C15           -6.9916     0.9266     0.8729 C.ar    
  16 N16           -9.7918    -1.4348     0.6140 N.am    
  17 C17          -10.8502    -0.6228     0.7850 C.2     
  18 C18          -10.6974     0.7620     0.9988 C.2     
  19 C19           -9.4567     1.3145     1.0386 C.2     
  20 C20          -10.0085    -2.8669     0.3943 C.3     
  21 O21          -11.9723    -1.0974     0.7538 O.2     
  22 C22            0.5017    -0.2735     2.2687 C.3     
  23 C23            1.8991     0.3378     2.3951 C.3     
  24 N24            2.8151    -0.3448     1.4706 N.3     
  25 C25            2.3504    -0.2158     0.0824 C.3     
  26 C26          -10.0273    -3.5816     1.7209 C.ar    
  27 C27          -11.1852    -4.2172     3.7266 C.ar    
  28 C28          -10.0605    -4.8937     4.1582 C.ar    
  29 C29           -8.9203    -4.9107     3.3766 C.ar    
  30 C30           -8.9037    -4.2548     2.1593 C.ar    
  31 C31            4.1856     0.1634     1.6164 C.3     
  32 C32          -11.1713    -3.5589     2.5057 C.ar    
  33 O33          -12.2762    -2.8925     2.0792 O.3     
  34 C34          -13.4176    -2.9116     2.9388 C.3     
  35 F35          -13.8295    -4.2337     3.1377 F       
  36 F36          -13.0839    -2.3369     4.1699 F       
  37 H37            0.9963    -1.8877     0.2039 H       
  38 H38            0.5945    -0.7067    -1.0663 H       
  39 H39           -2.0742     0.6655     2.2486 H       
  40 H40           -4.3701    -0.1857     2.0041 H       
  41 H41           -3.0464    -2.8825    -1.0386 H       
  42 H42           -0.7519    -2.0260    -0.7996 H       
  43 H43           -5.3094    -3.0044     0.1073 H       
  44 H44           -6.7944     1.9765     1.0322 H       
  45 H45          -11.5691     1.3857     1.1317 H       
  46 H46           -9.3272     2.3741     1.2021 H       
  47 H47          -10.9619    -3.0166    -0.1125 H       
  48 H48           -9.2029    -3.2660    -0.2220 H       
  49 H49           -0.1859     0.2505     2.9325 H       
  50 H50            0.5399    -1.3278     2.5429 H       
  51 H51            1.8558     1.3984     2.1471 H       
  52 H52            2.2577     0.2174     3.4173 H       
  53 H53            3.0381    -0.7398    -0.5814 H       
  54 H54            2.3123     0.8385    -0.1918 H       
  55 H55          -12.0757    -4.2042     4.3375 H       
  56 H56          -10.0708    -5.4064     5.1087 H       
  57 H57           -8.0421    -5.4400     3.7158 H       
  58 H58           -8.0117    -4.2693     1.5507 H       
  59 H59            4.5291    -0.0055     2.6370 H       
  60 H60            4.8426    -0.3587     0.9208 H       
  61 H61            4.2021     1.2315     1.3996 H       
  62 H62          -14.2273    -2.3439     2.4804 H       
@<TRIPOS>BOND
   1    1    2 1
   2    1   25 1
   3    1   37 1
   4    1   38 1
   5    2    3 1
   6    2   22 1
   7    3    4 ar
   8    3    8 ar
   9    4    5 ar
  10    4   39 1
  11    5    6 ar
  12    5   40 1
  13    6    7 ar
  14    6    9 1
  15    7    8 ar
  16    7   41 1
  17    8   42 1
  18    9   10 1
  19    9   43 1
  20   10   11 ar
  21   10   12 ar
  22   11   15 ar
  23   12   13 ar
  24   13   14 ar
  25   13   16 1
  26   14   15 ar
  27   14   19 1
  28   15   44 1
  29   16   17 am
  30   16   20 1
  31   17   18 1
  32   17   21 2
  33   18   19 2
  34   18   45 1
  35   19   46 1
  36   20   26 1
  37   20   47 1
  38   20   48 1
  39   22   23 1
  40   22   49 1
  41   22   50 1
  42   23   24 1
  43   23   51 1
  44   23   52 1
  45   24   25 1
  46   24   31 1
  47   25   53 1
  48   25   54 1
  49   26   30 ar
  50   26   32 ar
  51   27   28 ar
  52   27   32 ar
  53   27   55 1
  54   28   29 ar
  55   28   56 1
  56   29   30 ar
  57   29   57 1
  58   30   58 1
  59   31   59 1
  60   31   60 1
  61   31   61 1
  62   32   33 1
  63   33   34 1
  64   34   35 1
  65   34   36 1
  66   34   62 1

#	End of record

