#	Name: ASD03092457
#	Creating user name:	WinNT
#	Creation time:	15. 06. 2019 20:32

#	Modifying user name:	WinNT
#	Modification time:	15. 06. 2019 20:32

#	Program:	/corina/corina34_cracker 3.40 0067  02.08.2006

@<TRIPOS>MOLECULE
ASD03092457
  61   64    0    0    0
SMALL
NO_CHARGES


@<TRIPOS>ATOM
   1 O1            -0.0247     1.6675     0.1091 O.3     
   2 N2            -0.1126     0.4645     0.1408 N.2     
   3 C3             1.0506    -0.1159     0.1218 C.2     
   4 C4             2.0309     0.9795     0.0674 C.2     
   5 C5             1.2372     2.1005     0.0627 C.2     
   6 C6             3.5020     0.8950     0.0280 C.2     
   7 O7             4.0792     0.8344    -1.0406 O.2     
   8 N8             4.2073     0.8850     1.1764 N.am    
   9 C9             1.6990     3.5342     0.0148 C.3     
  10 F10            1.8039     3.9460    -1.3181 F       
  11 F11            0.7741     4.3446     0.6818 F       
  12 F12            2.9477     3.6429     0.6361 F       
  13 C13            1.3342    -1.5957     0.1501 C.3     
  14 C14            5.6694     0.8011     1.1374 C.3     
  15 S15            7.1248     1.4961     4.7975 S.3     
  16 C16            6.8743    -0.1571     4.4419 C.2     
  17 N17            6.4024    -0.2929     3.2391 N.2     
  18 C18            6.2107     0.8071     2.5438 C.2     
  19 C19            6.5398     1.9414     3.1965 C.2     
  20 C20            5.6922     5.5839     2.8525 C.ar    
  21 C21            5.7715     4.3166     3.3880 C.ar    
  22 C22            6.4287     3.3132     2.6634 C.ar    
  23 C23            6.9778     3.6489     1.4186 C.ar    
  24 C24            6.8510     4.9421     0.9598 C.ar    
  25 N25            6.2238     5.8573     1.6754 N.ar    
  26 C26            7.4368     5.3170    -0.3772 C.3     
  27 C27            4.9829     6.6710     3.6181 C.3     
  28 N28            7.1369    -1.2009     5.3103 N.3     
  29 C29            7.6629    -0.7024     6.5894 C.3     
  30 C30            7.9951    -1.8905     7.4962 C.3     
  31 O31            6.8248    -2.6942     7.6684 O.3     
  32 C32            6.2861    -3.1969     6.4427 C.3     
  33 C33            5.9365    -2.0221     5.5253 C.3     
  34 C34            5.0234    -4.0100     6.7350 C.3     
  35 C35            8.4675    -1.3774     8.8580 C.3     
  36 H36            3.7469     0.9334     2.0288 H       
  37 H37            1.3737    -1.9777    -0.8700 H       
  38 H38            2.2908    -1.7730     0.6417 H       
  39 H39            0.5434    -2.1068     0.6991 H       
  40 H40            5.9672    -0.1206     0.6374 H       
  41 H41            6.0679     1.6559     0.5910 H       
  42 H42            5.3346     4.1003     4.3516 H       
  43 H43            7.4928     2.9056     0.8281 H       
  44 H44            6.6924     5.1581    -1.1574 H       
  45 H45            7.7306     6.3666    -0.3637 H       
  46 H46            8.3110     4.6975    -0.5774 H       
  47 H47            5.6949     7.1837     4.2648 H       
  48 H48            4.5489     7.3847     2.9178 H       
  49 H49            4.1919     6.2310     4.2253 H       
  50 H50            8.5656    -0.1187     6.4090 H       
  51 H51            6.9132    -0.0751     7.0716 H       
  52 H52            8.7832    -2.4885     7.0385 H       
  53 H53            7.0244    -3.8329     5.9544 H       
  54 H54            5.1593    -1.4158     5.9904 H       
  55 H55            5.5790    -2.4016     4.5681 H       
  56 H56            4.2852    -3.3725     7.2216 H       
  57 H57            4.6134    -4.3929     5.8005 H       
  58 H58            5.2722    -4.8440     7.3913 H       
  59 H59            7.6780    -0.7812     9.3154 H       
  60 H60            8.7039    -2.2236     9.5030 H       
  61 H61            9.3573    -0.7618     8.7256 H       
@<TRIPOS>BOND
   1    1    2 1
   2    1    5 1
   3    2    3 2
   4    3    4 1
   5    3   13 1
   6    4    5 2
   7    4    6 1
   8    5    9 1
   9    6    7 2
  10    6    8 am
  11    8   14 1
  12    8   36 1
  13    9   10 1
  14    9   11 1
  15    9   12 1
  16   13   37 1
  17   13   38 1
  18   13   39 1
  19   14   18 1
  20   14   40 1
  21   14   41 1
  22   15   16 1
  23   15   19 1
  24   16   17 2
  25   16   28 1
  26   17   18 1
  27   18   19 2
  28   19   22 1
  29   20   21 ar
  30   20   25 ar
  31   20   27 1
  32   21   22 ar
  33   21   42 1
  34   22   23 ar
  35   23   24 ar
  36   23   43 1
  37   24   25 ar
  38   24   26 1
  39   26   44 1
  40   26   45 1
  41   26   46 1
  42   27   47 1
  43   27   48 1
  44   27   49 1
  45   28   29 1
  46   28   33 1
  47   29   30 1
  48   29   50 1
  49   29   51 1
  50   30   31 1
  51   30   35 1
  52   30   52 1
  53   31   32 1
  54   32   33 1
  55   32   34 1
  56   32   53 1
  57   33   54 1
  58   33   55 1
  59   34   56 1
  60   34   57 1
  61   34   58 1
  62   35   59 1
  63   35   60 1
  64   35   61 1

#	End of record

