#	Name: ASD05060102
#	Creating user name:	WinNT
#	Creation time:	15. 06. 2019 20:56

#	Modifying user name:	WinNT
#	Modification time:	15. 06. 2019 20:56

#	Program:	/corina/corina34_cracker 3.40 0067  02.08.2006

@<TRIPOS>MOLECULE
ASD05060102
  48   50    0    0    0
SMALL
NO_CHARGES


@<TRIPOS>ATOM
   1 C1            -0.0168     1.3900     0.0097 C.ar    
   2 C2             0.0021    -0.0041     0.0020 C.ar    
   3 C3             1.1975    -0.6668    -0.0130 C.ar    
   4 C4             2.3932     0.0379    -0.0201 C.ar    
   5 C5             2.3964     1.4154    -0.0128 C.ar    
   6 C6            -1.0897     2.3973     0.0195 C.2     
   7 C7             1.1903     2.1094     0.0020 C.ar    
   8 N8             0.8709     3.4497     0.0123 N.pl3   
   9 C9            -0.4848     3.6102     0.0237 C.2     
  10 C10           -1.2008     4.9362     0.0337 C.3     
  11 O11           -0.5852     5.8028     0.9887 O.3     
  12 C12           -1.4810     6.7461     1.5799 C.3     
  13 C13           -1.1214     5.5604    -1.3356 C.2     
  14 C14           -2.6024     5.9993     2.3050 C.3     
  15 C15           -0.7178     7.6164     2.5804 C.3     
  16 C16           -2.0821     7.6326     0.4874 C.3     
  17 O17           -1.7258     4.9697    -2.3785 O.3     
  18 O18           -0.5137     6.5925    -1.4948 O.2     
  19 C19           -2.5487     2.1362     0.0238 C.ar    
  20 C20           -3.1436     1.5057     1.1159 C.ar    
  21 C21           -4.5025     1.2656     1.1145 C.ar    
  22 C22           -5.2742     1.6487     0.0323 C.ar    
  23 C23           -4.6895     2.2742    -1.0543 C.ar    
  24 C24           -3.3326     2.5252    -1.0616 C.ar    
  25 C25            1.8450     4.5440     0.0089 C.3     
  26 H26           -0.9247    -0.5585     0.0083 H       
  27 H27            1.2116    -1.7467    -0.0189 H       
  28 H28            3.3302    -0.4990    -0.0313 H       
  29 H29            3.3319     1.9550    -0.0181 H       
  30 H30           -2.2458     4.7827     0.3030 H       
  31 H31           -2.1741     5.3677     3.0834 H       
  32 H32           -3.2857     6.7189     2.7560 H       
  33 H33           -3.1461     5.3793     1.5923 H       
  34 H34            0.0811     8.1484     2.0638 H       
  35 H35           -1.4011     8.3360     3.0314 H       
  36 H36           -0.2896     6.9848     3.3588 H       
  37 H37           -2.6258     7.0126    -0.2254 H       
  38 H38           -2.7654     8.3522     0.9384 H       
  39 H39           -1.2832     8.1647    -0.0292 H       
  40 H40           -1.6470     5.4075    -3.2372 H       
  41 H41           -2.5419     1.2055     1.9611 H       
  42 H42           -4.9643     0.7773     1.9599 H       
  43 H43           -6.3373     1.4585     0.0355 H       
  44 H44           -5.2969     2.5705    -1.8968 H       
  45 H45           -2.8780     3.0179    -1.9083 H       
  46 H46            2.0764     4.8212    -1.0196 H       
  47 H47            1.4269     5.4042     0.5317 H       
  48 H48            2.7564     4.2208     0.5119 H       
@<TRIPOS>BOND
   1    1    2 ar
   2    1    7 ar
   3    1    6 1
   4    2    3 ar
   5    2   26 1
   6    3    4 ar
   7    3   27 1
   8    4    5 ar
   9    4   28 1
  10    5    7 ar
  11    5   29 1
  12    6    9 2
  13    6   19 1
  14    7    8 1
  15    8    9 1
  16    8   25 1
  17    9   10 1
  18   10   11 1
  19   10   13 1
  20   10   30 1
  21   11   12 1
  22   12   14 1
  23   12   15 1
  24   12   16 1
  25   13   17 1
  26   13   18 2
  27   14   31 1
  28   14   32 1
  29   14   33 1
  30   15   34 1
  31   15   35 1
  32   15   36 1
  33   16   37 1
  34   16   38 1
  35   16   39 1
  36   17   40 1
  37   19   20 ar
  38   19   24 ar
  39   20   21 ar
  40   20   41 1
  41   21   22 ar
  42   21   42 1
  43   22   23 ar
  44   22   43 1
  45   23   24 ar
  46   23   44 1
  47   24   45 1
  48   25   46 1
  49   25   47 1
  50   25   48 1

#	End of record

