#	Name: ASD01208923
#	Creating user name:	WinNT
#	Creation time:	15. 06. 2019 19:10

#	Modifying user name:	WinNT
#	Modification time:	15. 06. 2019 19:10

#	Program:	/corina/corina34_cracker 3.40 0067  02.08.2006

@<TRIPOS>MOLECULE
ASD01208923
  59   62    0    0    0
SMALL
NO_CHARGES


@<TRIPOS>ATOM
   1 S1             0.3752     1.7087    -0.9111 S.3     
   2 C2             0.3063    -0.0307    -1.1735 C.2     
   3 N3             1.4538    -0.4536    -1.5941 N.2     
   4 C4             2.4187     0.4589    -1.7411 C.2     
   5 C5             2.0604     1.7252    -1.4249 C.2     
   6 C6             3.7684     0.1132    -2.2106 C.2     
   7 O7             4.6127     0.9814    -2.3274 O.2     
   8 N8             4.0704    -1.1653    -2.5115 N.am    
   9 C9            -1.9576    -0.2758    -0.5185 C.2     
  10 C10           -3.1465    -1.1244    -0.2916 C.ar    
  11 C11           -4.3357    -0.5550     0.1659 C.ar    
  12 C12           -5.4474    -1.3535     0.3768 C.ar    
  13 C13           -5.3802    -2.7179     0.1338 C.ar    
  14 C14           -4.2000    -3.2883    -0.3211 C.ar    
  15 C15           -3.0847    -2.4959    -0.5397 C.ar    
  16 O16           -2.0149     0.9198    -0.3065 O.2     
  17 N17           -0.8102    -0.8276    -0.9604 N.am    
  18 O18           -4.1395    -4.6251    -0.5576 O.3     
  19 C19           -3.5169    -5.4076     0.3615 C.ar    
  20 C20           -3.3870    -6.7721     0.1355 C.ar    
  21 C21           -2.7559    -7.5694     1.0657 C.ar    
  22 C22           -2.2464    -7.0039     2.2363 C.ar    
  23 C23           -2.3785    -5.6320     2.4596 C.ar    
  24 C24           -3.0066    -4.8405     1.5225 C.ar    
  25 O25           -1.0334    -7.4460     4.4037 O.3     
  26 C26           -1.5694    -7.8554     3.2364 C.2     
  27 N27           -1.3783    -9.1516     3.1542 N.2     
  28 N28           -0.7560    -9.5561     4.2051 N.2     
  29 C29           -0.5272    -8.5433     4.9932 C.2     
  30 C30            0.1775    -8.5933     6.3243 C.3     
  31 O31           -6.6057    -0.8000     0.8227 O.3     
  32 C32           -8.6069    -1.0421     2.1559 C.3     
  33 C33           -7.6753    -1.6954     1.1329 C.3     
  34 C34           -8.4601    -2.0134    -0.1414 C.3     
  35 O35           -9.2300     0.1026     1.5698 O.3     
  36 C36          -10.1253     0.7896     2.4465 C.3     
  37 Cl37           3.0845     3.1243    -1.5113 Cl      
  38 H38            3.3973    -1.8575    -2.4184 H       
  39 H39            4.9609    -1.3933    -2.8213 H       
  40 H40           -4.3889     0.5069     0.3557 H       
  41 H41           -6.2489    -3.3378     0.2996 H       
  42 H42           -2.1677    -2.9398    -0.8981 H       
  43 H43           -0.7645    -1.7817    -1.1295 H       
  44 H44           -3.7814    -7.2087    -0.7702 H       
  45 H45           -2.6559    -8.6302     0.8896 H       
  46 H46           -1.9861    -5.1911     3.3640 H       
  47 H47           -3.1060    -3.7786     1.6927 H       
  48 H48           -0.5520    -8.7678     7.1153 H       
  49 H49            0.9078    -9.4024     6.3187 H       
  50 H50            0.6863    -7.6458     6.5019 H       
  51 H51           -9.3719    -1.7569     2.4591 H       
  52 H52           -8.0302    -0.7351     3.0284 H       
  53 H53           -7.2685    -2.6172     1.5487 H       
  54 H54           -7.7964    -2.4788    -0.8702 H       
  55 H55           -9.2759    -2.6964     0.0952 H       
  56 H56           -8.8669    -1.0916    -0.5572 H       
  57 H57           -9.5801     1.1347     3.3250 H       
  58 H58          -10.5568     1.6454     1.9274 H       
  59 H59          -10.9218     0.1129     2.7558 H       
@<TRIPOS>BOND
   1    1    2 1
   2    1    5 1
   3    2    3 2
   4    2   17 1
   5    3    4 1
   6    4    5 2
   7    4    6 1
   8    5   37 1
   9    6    7 2
  10    6    8 am
  11    8   38 1
  12    8   39 1
  13    9   10 1
  14    9   16 2
  15    9   17 am
  16   10   11 ar
  17   10   15 ar
  18   11   12 ar
  19   11   40 1
  20   12   13 ar
  21   12   31 1
  22   13   14 ar
  23   13   41 1
  24   14   15 ar
  25   14   18 1
  26   15   42 1
  27   17   43 1
  28   18   19 1
  29   19   20 ar
  30   19   24 ar
  31   20   21 ar
  32   20   44 1
  33   21   22 ar
  34   21   45 1
  35   22   23 ar
  36   22   26 1
  37   23   24 ar
  38   23   46 1
  39   24   47 1
  40   25   26 1
  41   25   29 1
  42   26   27 2
  43   27   28 1
  44   28   29 2
  45   29   30 1
  46   30   48 1
  47   30   49 1
  48   30   50 1
  49   31   33 1
  50   32   33 1
  51   32   35 1
  52   32   51 1
  53   32   52 1
  54   33   34 1
  55   33   53 1
  56   34   54 1
  57   34   55 1
  58   34   56 1
  59   35   36 1
  60   36   57 1
  61   36   58 1
  62   36   59 1

#	End of record

