#	Name: ASD00170089
#	Creating user name:	WinNT
#	Creation time:	15. 06. 2019 18:31

#	Modifying user name:	WinNT
#	Modification time:	15. 06. 2019 18:31

#	Program:	/corina/corina34_cracker 3.40 0067  02.08.2006

@<TRIPOS>MOLECULE
ASD00170089
  49   53    0    0    0
SMALL
NO_CHARGES


@<TRIPOS>ATOM
   1 C1            -0.0189     1.3903    -0.3805 C.2     
   2 C2             0.0254     0.0469    -0.1592 C.2     
   3 C3            -1.2828    -0.5078     0.1367 C.2     
   4 C4            -2.2792     0.4387     0.1297 C.2     
   5 S5            -1.6611     1.9863    -0.2212 S.3     
   6 N6            -3.6077     0.1706     0.3793 N.pl3   
   7 C7             1.1519     2.2282    -0.7028 C.ar    
   8 C8             2.0575     1.8206    -1.6856 C.ar    
   9 C9             3.1495     2.6093    -1.9819 C.ar    
  10 C10            3.3493     3.8016    -1.3086 C.ar    
  11 C11            2.4564     4.2117    -0.3340 C.ar    
  12 C12            1.3571     3.4359    -0.0308 C.ar    
  13 C13           -1.5162    -1.9251     0.4129 C.2     
  14 O14           -1.8599    -2.6723    -0.4859 O.2     
  15 C15            1.2671    -0.7564    -0.2148 C.ar    
  16 C16            2.2792    -0.5476     0.7229 C.ar    
  17 C17            3.4341    -1.3001     0.6659 C.ar    
  18 C18            3.5901    -2.2600    -0.3182 C.ar    
  19 C19            2.5903    -2.4718    -1.2509 C.ar    
  20 C20            1.4284    -1.7297    -1.2016 C.ar    
  21 C21           -1.3352    -2.4499     1.7801 C.ar    
  22 C22           -1.0546    -1.5886     2.8307 C.ar    
  23 C23           -0.8831    -2.0765     4.1198 C.ar    
  24 C24           -0.9845    -3.4087     4.3894 C.ar    
  25 C25           -1.2675    -4.3180     3.3556 C.ar    
  26 C26           -1.4518    -3.8391     2.0358 C.ar    
  27 C27           -1.3769    -5.6965     3.6088 C.ar    
  28 C28           -1.6520    -6.5498     2.5843 C.ar    
  29 C29           -1.8272    -6.0771     1.2858 C.ar    
  30 C30           -1.7343    -4.7467     1.0061 C.ar    
  31 H31           -3.8805    -0.7207     0.6482 H       
  32 H32           -4.2701     0.8730     0.2862 H       
  33 H33            1.9031     0.8901    -2.2116 H       
  34 H34            3.8506     2.2953    -2.7411 H       
  35 H35            4.2063     4.4150    -1.5446 H       
  36 H36            2.6186     5.1434     0.1874 H       
  37 H37            0.6609     3.7573     0.7297 H       
  38 H38            2.1588     0.2016     1.4914 H       
  39 H39            4.2183    -1.1393     1.3909 H       
  40 H40            4.4962    -2.8462    -0.3588 H       
  41 H41            2.7182    -3.2224    -2.0169 H       
  42 H42            0.6487    -1.8960    -1.9302 H       
  43 H43           -0.9683    -0.5283     2.6443 H       
  44 H44           -0.6653    -1.3879     4.9228 H       
  45 H45           -0.8467    -3.7663     5.3991 H       
  46 H46           -1.2431    -6.0766     4.6108 H       
  47 H47           -1.7353    -7.6084     2.7811 H       
  48 H48           -2.0443    -6.7745     0.4902 H       
  49 H49           -1.8727    -4.3939    -0.0052 H       
@<TRIPOS>BOND
   1    1    2 2
   2    1    7 1
   3    1    5 1
   4    2    3 1
   5    2   15 1
   6    3    4 2
   7    3   13 1
   8    4    5 1
   9    4    6 1
  10    6   31 1
  11    6   32 1
  12    7    8 ar
  13    7   12 ar
  14    8    9 ar
  15    8   33 1
  16    9   10 ar
  17    9   34 1
  18   10   11 ar
  19   10   35 1
  20   11   12 ar
  21   11   36 1
  22   12   37 1
  23   13   14 2
  24   13   21 1
  25   15   16 ar
  26   15   20 ar
  27   16   17 ar
  28   16   38 1
  29   17   18 ar
  30   17   39 1
  31   18   19 ar
  32   18   40 1
  33   19   20 ar
  34   19   41 1
  35   20   42 1
  36   21   22 ar
  37   21   26 ar
  38   22   23 ar
  39   22   43 1
  40   23   24 ar
  41   23   44 1
  42   24   25 ar
  43   24   45 1
  44   25   26 ar
  45   25   27 ar
  46   26   30 ar
  47   27   28 ar
  48   27   46 1
  49   28   29 ar
  50   28   47 1
  51   29   30 ar
  52   29   48 1
  53   30   49 1

#	End of record

