#	Name: ASD08710098
#	Creating user name:	WinNT
#	Creation time:	15. 06. 2019 21:19

#	Modifying user name:	WinNT
#	Modification time:	15. 06. 2019 21:19

#	Program:	/corina/corina34_cracker 3.40 0067  02.08.2006

@<TRIPOS>MOLECULE
ASD08710098
  47   49    0    0    0
SMALL
NO_CHARGES


@<TRIPOS>ATOM
   1 C1             0.0082     1.4065     0.4491 C.ar    
   2 C2             0.0291     0.1206    -0.0917 C.ar    
   3 C3             1.2382    -0.5378    -0.2189 C.ar    
   4 C4             2.4008     0.1181     0.2035 C.ar    
   5 C5             2.2992     1.4061     0.7352 C.ar    
   6 N6             1.1310     1.9991     0.8398 N.ar    
   7 C7            -1.2387     2.0985     0.5793 C.1     
   8 N8            -2.2279     2.6475     0.6825 N.1     
   9 C9             3.7183    -0.5436     0.0890 C.2     
  10 O10            3.7963    -1.7555     0.1408 O.2     
  11 N11            4.8326     0.1970    -0.0728 N.am    
  12 C12            6.1598    -0.4339    -0.0514 C.3     
  13 C13            6.8953    -0.0723    -1.3478 C.3     
  14 N14            6.8050     1.3807    -1.5493 N.am    
  15 C15            5.4778     2.0116    -1.5707 C.3     
  16 C16            4.7420     1.6492    -0.2800 C.3     
  17 S17            8.1741     2.2908    -1.7481 S.o2    
  18 O18            7.8331     3.6169    -1.3683 O.2     
  19 O19            9.2335     1.5584    -1.1476 O.2     
  20 C20            8.5206     2.3413    -3.4750 C.ar    
  21 C21            7.9858     3.3471    -4.2581 C.ar    
  22 C22            8.2575     3.3867    -5.6129 C.ar    
  23 C23            9.0645     2.4208    -6.1845 C.ar    
  24 C24            9.6000     1.4155    -5.4012 C.ar    
  25 C25            9.3318     1.3784    -4.0457 C.ar    
  26 C26            9.3600     2.4634    -7.6616 C.3     
  27 F27           10.5123     3.2246    -7.8849 F       
  28 F28            9.5616     1.1623    -8.1346 F       
  29 F29            8.2803     3.0429    -8.3367 F       
  30 C30            6.0047    -1.9530     0.0443 C.3     
  31 H31           -0.8880    -0.3548    -0.4068 H       
  32 H32            1.2848    -1.5339    -0.6337 H       
  33 H33            3.1904     1.9201     1.0637 H       
  34 H34            6.7256    -0.0668     0.8048 H       
  35 H35            7.9420    -0.3662    -1.2687 H       
  36 H36            6.4304    -0.5877    -2.1882 H       
  37 H37            5.5883     3.0939    -1.6389 H       
  38 H38            4.9120     1.6445    -2.4270 H       
  39 H39            3.6954     1.9423    -0.3627 H       
  40 H40            5.2046     2.1680     0.5596 H       
  41 H41            7.3553     4.1017    -3.8115 H       
  42 H42            7.8391     4.1721    -6.2248 H       
  43 H43           10.2302     0.6607    -5.8479 H       
  44 H44            9.7532     0.5951    -3.4331 H       
  45 H45            5.4141    -2.3118    -0.7987 H       
  46 H46            6.9890    -2.4207     0.0235 H       
  47 H47            5.5005    -2.2087     0.9762 H       
@<TRIPOS>BOND
   1    1    2 ar
   2    1    6 ar
   3    1    7 1
   4    2    3 ar
   5    2   31 1
   6    3    4 ar
   7    3   32 1
   8    4    5 ar
   9    4    9 1
  10    5    6 ar
  11    5   33 1
  12    7    8 3
  13    9   10 2
  14    9   11 am
  15   11   12 1
  16   11   16 1
  17   12   13 1
  18   12   30 1
  19   12   34 1
  20   13   14 1
  21   13   35 1
  22   13   36 1
  23   14   15 1
  24   14   17 am
  25   15   16 1
  26   15   37 1
  27   15   38 1
  28   16   39 1
  29   16   40 1
  30   17   18 2
  31   17   19 2
  32   17   20 1
  33   20   21 ar
  34   20   25 ar
  35   21   22 ar
  36   21   41 1
  37   22   23 ar
  38   22   42 1
  39   23   24 ar
  40   23   26 1
  41   24   25 ar
  42   24   43 1
  43   25   44 1
  44   26   27 1
  45   26   28 1
  46   26   29 1
  47   30   45 1
  48   30   46 1
  49   30   47 1

#	End of record

