#	Name: ASD05430395
#	Creating user name:	WinNT
#	Creation time:	15. 06. 2019 21:00

#	Modifying user name:	WinNT
#	Modification time:	15. 06. 2019 21:00

#	Program:	/corina/corina34_cracker 3.40 0067  02.08.2006

@<TRIPOS>MOLECULE
ASD05430395
  61   64    0    0    0
SMALL
NO_CHARGES


@<TRIPOS>ATOM
   1 C1             0.0622     0.8603     0.1448 C.ar    
   2 C2            -0.0383    -0.5301     0.2052 C.ar    
   3 C3            -1.2869    -1.1398     0.2342 C.ar    
   4 C4            -2.4314    -0.3748     0.2032 C.ar    
   5 C5            -2.3388     1.0211     0.1425 C.ar    
   6 C6            -1.0809     1.6350     0.1190 C.ar    
   7 C7            -4.7731     1.2444     0.1364 C.2     
   8 C8            -3.5584     1.8394     0.1089 C.2     
   9 C9            -5.9480     2.0326     0.1039 C.2     
  10 O10            1.2855     1.4527     0.1169 O.3     
  11 C11            1.3138     2.8801     0.0551 C.3     
  12 C12            1.4026    -2.3192     1.1243 C.2     
  13 N13            1.1217    -1.3130     0.2361 N.pl3   
  14 C14            2.6152    -2.8029     0.7947 C.2     
  15 N15            3.0671    -2.1151    -0.2646 N.2     
  16 C16            2.1818    -1.2200    -0.6087 C.2     
  17 C17            3.3397    -3.9236     1.4950 C.3     
  18 N18           -5.9493     3.3512     0.0411 N.2     
  19 C19           -8.9826     2.6279    -1.1584 C.ar    
  20 C20           -9.9072     3.6275    -1.3975 C.ar    
  21 C21          -10.5504     2.5441    -3.4350 C.ar    
  22 C22           -9.6234     1.5440    -3.1950 C.ar    
  23 C23           -8.8410     1.5866    -2.0566 C.ar    
  24 C24          -10.6914     3.5865    -2.5347 C.ar    
  25 F25          -11.3155     2.5037    -4.5477 F       
  26 N26           -7.2159     1.5162     0.1281 N.pl3   
  27 C27           -8.1241     2.6767     0.0792 C.3     
  28 C28           -7.1772     3.8590     0.0223 C.2     
  29 O29           -7.4802     5.0351    -0.0293 O.2     
  30 C30           -8.9921     2.7361     1.3377 C.3     
  31 C31           -7.5926     0.1018     0.1895 C.3     
  32 C32           -7.5792    -0.3668     1.6459 C.3     
  33 O33           -8.6023     0.3143     2.3749 O.3     
  34 C34           -8.6759    -0.0527     3.7540 C.3     
  35 H35           -1.3597    -2.2163     0.2810 H       
  36 H36           -3.4003    -0.8514     0.2252 H       
  37 H37           -1.0045     2.7113     0.0727 H       
  38 H38           -4.8462     0.1679     0.1831 H       
  39 H39           -3.4854     2.9159     0.0621 H       
  40 H40            2.3485     3.2226     0.0384 H       
  41 H41            0.8057     3.2147    -0.8493 H       
  42 H42            0.8089     3.2918     0.9290 H       
  43 H43            0.7740    -2.6559     1.9353 H       
  44 H44            2.2762    -0.5220    -1.4274 H       
  45 H45            3.0717    -4.8739     1.0334 H       
  46 H46            4.4154    -3.7693     1.4108 H       
  47 H47            3.0559    -3.9380     2.5473 H       
  48 H48          -10.0170     4.4405    -0.6951 H       
  49 H49           -9.5119     0.7309    -3.8970 H       
  50 H50           -8.1183     0.8062    -1.8688 H       
  51 H51          -11.4141     4.3671    -2.7209 H       
  52 H52           -8.3540     2.7056     2.2209 H       
  53 H53           -9.5689     3.6610     1.3380 H       
  54 H54           -9.6717     1.8840     1.3509 H       
  55 H55           -8.5929    -0.0261    -0.2241 H       
  56 H56           -6.8821    -0.4888    -0.3887 H       
  57 H57           -7.7600    -1.4410     1.6836 H       
  58 H58           -6.6085    -0.1459     2.0898 H       
  59 H59           -8.8794    -1.1205     3.8354 H       
  60 H60           -7.7279     0.1747     4.2415 H       
  61 H61           -9.4765     0.5076     4.2369 H       
@<TRIPOS>BOND
   1    1    2 ar
   2    1   10 1
   3    1    6 ar
   4    2    3 ar
   5    2   13 1
   6    3    4 ar
   7    3   35 1
   8    4    5 ar
   9    4   36 1
  10    5    6 ar
  11    5    8 1
  12    6   37 1
  13    7    8 2
  14    7    9 1
  15    7   38 1
  16    8   39 1
  17    9   26 1
  18    9   18 2
  19   10   11 1
  20   11   40 1
  21   11   41 1
  22   11   42 1
  23   12   13 1
  24   12   14 2
  25   12   43 1
  26   13   16 1
  27   14   15 1
  28   14   17 1
  29   15   16 2
  30   16   44 1
  31   17   45 1
  32   17   46 1
  33   17   47 1
  34   18   28 1
  35   19   20 ar
  36   19   23 ar
  37   19   27 1
  38   20   24 ar
  39   20   48 1
  40   21   22 ar
  41   21   25 1
  42   21   24 ar
  43   22   23 ar
  44   22   49 1
  45   23   50 1
  46   24   51 1
  47   26   27 1
  48   26   31 1
  49   27   28 1
  50   27   30 1
  51   28   29 2
  52   30   52 1
  53   30   53 1
  54   30   54 1
  55   31   32 1
  56   31   55 1
  57   31   56 1
  58   32   33 1
  59   32   57 1
  60   32   58 1
  61   33   34 1
  62   34   59 1
  63   34   60 1
  64   34   61 1

#	End of record

