#	Name: ASD03331785
#	Creating user name:	WinNT
#	Creation time:	15. 06. 2019 20:39

#	Modifying user name:	WinNT
#	Modification time:	15. 06. 2019 20:39

#	Program:	/corina/corina34_cracker 3.40 0067  02.08.2006

@<TRIPOS>MOLECULE
ASD03331785
  50   52    0    0    0
SMALL
NO_CHARGES


@<TRIPOS>ATOM
   1 C1            -0.0187     1.5258     0.0104 C.3     
   2 C2             0.0021    -0.0041     0.0020 C.3     
   3 N3            -1.3723    -0.5112     0.0124 N.pl3   
   4 C4            -2.0716    -0.7579    -1.2510 C.3     
   5 C5            -1.8159    -2.1971    -1.7029 C.3     
   6 C6            -2.0160    -0.7594     1.2269 C.ar    
   7 C7            -1.3563    -0.5205     2.4259 C.ar    
   8 C8            -1.9958    -0.7666     3.6249 C.ar    
   9 C9            -3.2912    -1.2506     3.6329 C.ar    
  10 C10           -3.9858    -1.5180     4.9433 C.3     
  11 C11           -4.7258    -0.2572     5.3948 C.3     
  12 N12           -5.4010    -0.5171     6.6686 N.am    
  13 C13           -6.1202     0.4567     7.2611 C.2     
  14 O14           -6.2085     1.5515     6.7381 O.2     
  15 C15           -6.7980     0.1959     8.5398 C.2     
  16 C16           -7.5533     1.0915     9.2278 C.2     
  17 C17           -8.0233     0.4496    10.3991 C.ar    
  18 C18           -8.8289     0.8659    11.4667 C.ar    
  19 C19           -9.1168    -0.0038    12.4796 C.ar    
  20 Cl20         -10.1154     0.5153    13.8013 Cl      
  21 C21           -8.6178    -1.3010    12.4614 C.ar    
  22 C22           -7.8235    -1.7327    11.4227 C.ar    
  23 C23           -7.5162    -0.8646    10.3790 C.ar    
  24 N24           -6.7731    -1.0006     9.2298 N.pl3   
  25 H25           -6.3067    -1.8040     8.9506 H       
  26 C26           -3.9508    -1.4895     2.4412 C.ar    
  27 C27           -3.3192    -1.2402     1.2386 C.ar    
  28 H28            1.0039     1.9031     0.0027 H       
  29 H29           -0.5459     1.8868    -0.8726 H       
  30 H30           -0.5289     1.8773     0.9072 H       
  31 H31            0.5123    -0.3556    -0.8948 H       
  32 H32            0.5293    -0.3651     0.8851 H       
  33 H33           -3.1417    -0.6062    -1.1097 H       
  34 H34           -1.7041    -0.0678    -2.0105 H       
  35 H35           -2.3362    -2.3807    -2.6429 H       
  36 H36           -0.7458    -2.3488    -1.8443 H       
  37 H37           -2.1835    -2.8871    -0.9434 H       
  38 H38           -0.3444    -0.1432     2.4203 H       
  39 H39           -1.4836    -0.5811     4.5575 H       
  40 H40           -4.6992    -2.3323     4.8168 H       
  41 H41           -3.2477    -1.7952     5.6959 H       
  42 H42           -4.0124     0.5571     5.5212 H       
  43 H43           -5.4639     0.0200     4.6422 H       
  44 H44           -5.3306    -1.3900     7.0857 H       
  45 H45           -7.7582     2.1104     8.9342 H       
  46 H46           -9.2209     1.8720    11.4891 H       
  47 H47           -8.8550    -1.9766    13.2698 H       
  48 H48           -7.4402    -2.7424    11.4177 H       
  49 H49           -4.9624    -1.8676     2.4509 H       
  50 H50           -3.8364    -1.4227     0.3082 H       
@<TRIPOS>BOND
   1    1    2 1
   2    1   28 1
   3    1   29 1
   4    1   30 1
   5    2    3 1
   6    2   31 1
   7    2   32 1
   8    3    4 1
   9    3    6 1
  10    4    5 1
  11    4   33 1
  12    4   34 1
  13    5   35 1
  14    5   36 1
  15    5   37 1
  16    6   27 ar
  17    6    7 ar
  18    7    8 ar
  19    7   38 1
  20    8    9 ar
  21    8   39 1
  22    9   10 1
  23    9   26 ar
  24   10   11 1
  25   10   40 1
  26   10   41 1
  27   11   12 1
  28   11   42 1
  29   11   43 1
  30   12   13 am
  31   12   44 1
  32   13   14 2
  33   13   15 1
  34   15   24 1
  35   15   16 2
  36   16   17 1
  37   16   45 1
  38   17   23 ar
  39   17   18 ar
  40   18   19 ar
  41   18   46 1
  42   19   20 1
  43   19   21 ar
  44   21   22 ar
  45   21   47 1
  46   22   23 ar
  47   22   48 1
  48   23   24 1
  49   24   25 1
  50   26   27 ar
  51   26   49 1
  52   27   50 1

#	End of record

