#	Name: ASD04590669
#	Creating user name:	WinNT
#	Creation time:	15. 06. 2019 20:51

#	Modifying user name:	WinNT
#	Modification time:	15. 06. 2019 20:51

#	Program:	/corina/corina34_cracker 3.40 0067  02.08.2006

@<TRIPOS>MOLECULE
ASD04590669
  85   90    0    0    0
SMALL
NO_CHARGES


@<TRIPOS>ATOM
   1 N1            -2.8466    -3.4372    -1.3098 N.ar    
   2 C2            -1.6362    -2.8982    -1.2375 C.ar    
   3 N3            -0.5336    -3.6117    -1.3974 N.ar    
   4 C4            -0.6014    -4.9174    -1.6404 C.ar    
   5 C5            -1.8729    -5.5201    -1.7231 C.ar    
   6 C6            -3.0038    -4.7289    -1.5480 C.ar    
   7 N7             0.3508    -5.8847    -1.8439 N.pl3   
   8 C8            -0.2481    -7.1148    -2.0598 C.ar    
   9 C9            -1.6413    -6.9445    -1.9950 C.ar    
  10 N10           -1.5232    -1.5407    -0.9864 N.pl3   
  11 C11           -2.6679    -0.7466    -0.9170 C.ar    
  12 C12            1.7967    -5.6491    -1.8347 C.3     
  13 C13            2.1722    -4.6333    -2.9279 C.3     
  14 N14           -3.8476    -1.2731    -1.2042 N.ar    
  15 C15           -4.9564    -0.5600    -1.1519 C.ar    
  16 C16           -4.9220     0.7790    -0.7910 C.ar    
  17 C17           -3.6974     1.3680    -0.4815 C.ar    
  18 C18           -2.5570     0.5873    -0.5415 C.ar    
  19 N19           -6.1027     1.5294    -0.7387 N.3     
  20 C20           -7.2654     0.7078    -1.1029 C.3     
  21 C21           -8.5411     1.5407    -0.9568 C.3     
  22 N22           -8.4488     2.7284    -1.8173 N.3     
  23 C23           -7.2861     3.5500    -1.4532 C.3     
  24 C24           -6.0104     2.7171    -1.5993 C.3     
  25 C25            0.2535    -8.3886    -2.3095 C.ar    
  26 N26           -0.5646    -9.4091    -2.4811 N.ar    
  27 C27           -1.8791    -9.2803    -2.4260 C.ar    
  28 C28           -2.4633    -8.0561    -2.1835 C.ar    
  29 F29            1.5889    -8.5816    -2.3771 F       
  30 C30           -9.6878     3.5158    -1.7625 C.3     
  31 C31           -9.5228     4.7852    -2.6004 C.3     
  32 C32            2.8127    -3.4283    -2.2084 C.3     
  33 C33            3.3318    -4.0155    -0.8725 C.3     
  34 C34            2.2221    -5.0259    -0.4892 C.3     
  35 O35           -9.2909     4.4286    -3.9647 O.3     
  36 Si36          -9.0983     5.7058    -4.9606 Si      
  37 C37           -8.8053     5.0999    -6.6978 C.3     
  38 C38          -10.6333     6.7608    -4.9215 C.3     
  39 C39           -7.6363     6.7154    -4.4002 C.3     
  40 C40          -10.0060     4.2708    -7.1581 C.3     
  41 C41           -8.6247     6.2980    -7.6321 C.3     
  42 C42           -7.5447     4.2335    -6.7300 C.3     
  43 H43           -3.9918    -5.1613    -1.6052 H       
  44 H44           -0.6481    -1.1423    -0.8587 H       
  45 H45            2.3285    -6.5865    -1.9976 H       
  46 H46            2.8869    -5.0775    -3.6207 H       
  47 H47            1.2786    -4.3156    -3.4652 H       
  48 H48           -5.9014    -1.0238    -1.3932 H       
  49 H49           -3.6406     2.4085    -0.1977 H       
  50 H50           -1.5915     1.0110    -0.3077 H       
  51 H51           -7.1655     0.3737    -2.1356 H       
  52 H52           -7.3193    -0.1586    -0.4437 H       
  53 H53           -9.4022     0.9422    -1.2541 H       
  54 H54           -8.6553     1.8519     0.0816 H       
  55 H55           -7.2322     4.4163    -2.1124 H       
  56 H56           -7.3860     3.8840    -0.4205 H       
  57 H57           -5.1493     3.3155    -1.3019 H       
  58 H58           -5.8963     2.4058    -2.6376 H       
  59 H59           -2.5049   -10.1481    -2.5735 H       
  60 H60           -3.5380    -7.9588    -2.1400 H       
  61 H61          -10.5125     2.9235    -2.1587 H       
  62 H62           -9.8998     3.7879    -0.7285 H       
  63 H63          -10.4292     5.3867    -2.5311 H       
  64 H64           -8.6757     5.3601    -2.2261 H       
  65 H65            3.6391    -3.0284    -2.7960 H       
  66 H66            2.0672    -2.6554    -2.0214 H       
  67 H67            4.2843    -4.5249    -1.0186 H       
  68 H68            3.4216    -3.2353    -0.1166 H       
  69 H69            1.3813    -4.5110    -0.0245 H       
  70 H70            2.6176    -5.7919     0.1779 H       
  71 H71          -10.8047     7.1153    -3.9051 H       
  72 H72          -10.5046     7.6144    -5.5871 H       
  73 H73          -11.4886     6.1701    -5.2494 H       
  74 H74           -6.7383     6.0981    -4.4231 H       
  75 H75           -7.5076     7.5689    -5.0658 H       
  76 H76           -7.8077     7.0699    -3.3838 H       
  77 H77          -10.9040     4.8881    -7.1352 H       
  78 H78           -9.8346     3.9163    -8.1745 H       
  79 H79          -10.1347     3.4173    -6.4925 H       
  80 H80           -7.7693     6.8887    -7.3042 H       
  81 H81           -8.4532     5.9435    -8.6485 H       
  82 H82           -9.5227     6.9153    -7.6092 H       
  83 H83           -7.6734     3.3800    -6.0644 H       
  84 H84           -7.3733     3.8790    -7.7464 H       
  85 H85           -6.6894     4.8242    -6.4021 H       
@<TRIPOS>BOND
   1    1    2 ar
   2    1    6 ar
   3    2    3 ar
   4    2   10 1
   5    3    4 ar
   6    4    5 ar
   7    4    7 1
   8    5    6 ar
   9    5    9 1
  10    6   43 1
  11    7    8 1
  12    7   12 1
  13    8    9 ar
  14    8   25 ar
  15    9   28 ar
  16   10   11 1
  17   10   44 1
  18   11   14 ar
  19   11   18 ar
  20   12   13 1
  21   12   34 1
  22   12   45 1
  23   13   32 1
  24   13   46 1
  25   13   47 1
  26   14   15 ar
  27   15   16 ar
  28   15   48 1
  29   16   17 ar
  30   16   19 1
  31   17   18 ar
  32   17   49 1
  33   18   50 1
  34   19   20 1
  35   19   24 1
  36   20   21 1
  37   20   51 1
  38   20   52 1
  39   21   22 1
  40   21   53 1
  41   21   54 1
  42   22   23 1
  43   22   30 1
  44   23   24 1
  45   23   55 1
  46   23   56 1
  47   24   57 1
  48   24   58 1
  49   25   26 ar
  50   25   29 1
  51   26   27 ar
  52   27   28 ar
  53   27   59 1
  54   28   60 1
  55   30   31 1
  56   30   61 1
  57   30   62 1
  58   31   35 1
  59   31   63 1
  60   31   64 1
  61   32   33 1
  62   32   65 1
  63   32   66 1
  64   33   34 1
  65   33   67 1
  66   33   68 1
  67   34   69 1
  68   34   70 1
  69   35   36 1
  70   36   37 1
  71   36   38 1
  72   36   39 1
  73   37   40 1
  74   37   41 1
  75   37   42 1
  76   38   71 1
  77   38   72 1
  78   38   73 1
  79   39   74 1
  80   39   75 1
  81   39   76 1
  82   40   77 1
  83   40   78 1
  84   40   79 1
  85   41   80 1
  86   41   81 1
  87   41   82 1
  88   42   83 1
  89   42   84 1
  90   42   85 1

#	End of record

