#	Name: ASD01810717
#	Creating user name:	WinNT
#	Creation time:	15. 06. 2019 19:25

#	Modifying user name:	WinNT
#	Modification time:	15. 06. 2019 19:25

#	Program:	/corina/corina34_cracker 3.40 0067  02.08.2006

@<TRIPOS>MOLECULE
ASD01810717
  38   40    0    0    0
SMALL
NO_CHARGES


@<TRIPOS>ATOM
   1 N1            -0.0153     1.2758     0.0091 N.pl3   
   2 N2             0.0021    -0.0041     0.0020 N.2     
   3 C3             1.0990    -0.7288    -0.0124 C.2     
   4 C4             2.4108    -0.0540    -0.0213 C.2     
   5 C5             2.3835     1.4204    -0.0131 C.ar    
   6 C6             3.5482     2.1832    -0.0197 C.ar    
   7 C7             3.4600     3.5483    -0.0111 C.ar    
   8 C8             2.2207     4.1742     0.0040 C.ar    
   9 C9             1.0569     3.4371     0.0108 C.ar    
  10 C10            1.1218     2.0463     0.0023 C.ar    
  11 C11            1.0188    -2.1998    -0.0191 C.2     
  12 O12            2.0366    -2.8637    -0.0324 O.2     
  13 O13           -0.1832    -2.8093    -0.0104 O.3     
  14 O14            3.4567    -0.6790    -0.0343 O.2     
  15 C15           -1.3141     1.9533     0.0188 C.3     
  16 C16           -2.5272     1.2481    -2.0598 C.ar    
  17 C17           -1.7661     2.1934    -1.3987 C.ar    
  18 C18           -1.4239     3.3656    -2.0554 C.ar    
  19 C19           -1.8618     3.5442    -3.3585 C.ar    
  20 C20           -2.6204     2.5539    -3.9560 C.ar    
  21 N21           -2.9270     1.4508    -3.2999 N.ar    
  22 Br22          -3.2254     2.7838    -5.7328 Br      
  23 C23           -0.1862    -4.2613    -0.0177 C.3     
  24 C24           -1.6297    -4.7684    -0.0061 C.3     
  25 H25            4.5143     1.7006    -0.0312 H       
  26 H26            4.3610     4.1437    -0.0158 H       
  27 H27            2.1685     5.2529     0.0110 H       
  28 H28            0.0989     3.9356     0.0229 H       
  29 H29           -2.0455     1.3295     0.5326 H       
  30 H30           -1.2222     2.9077     0.5374 H       
  31 H31           -2.7940     0.3306    -1.5563 H       
  32 H32           -0.8304     4.1219    -1.5633 H       
  33 H33           -1.6142     4.4451    -3.9001 H       
  34 H34            0.3181    -4.6211    -0.9145 H       
  35 H35            0.3356    -4.6301     0.8654 H       
  36 H36           -2.1340    -4.4085     0.8907 H       
  37 H37           -2.1514    -4.3995    -0.8892 H       
  38 H38           -1.6319    -5.8583    -0.0116 H       
@<TRIPOS>BOND
   1    1    2 1
   2    1   10 1
   3    1   15 1
   4    2    3 2
   5    3    4 1
   6    3   11 1
   7    4    5 1
   8    4   14 2
   9    5    6 ar
  10    5   10 ar
  11    6    7 ar
  12    6   25 1
  13    7    8 ar
  14    7   26 1
  15    8    9 ar
  16    8   27 1
  17    9   10 ar
  18    9   28 1
  19   11   12 2
  20   11   13 1
  21   13   23 1
  22   15   17 1
  23   15   29 1
  24   15   30 1
  25   16   17 ar
  26   16   21 ar
  27   16   31 1
  28   17   18 ar
  29   18   19 ar
  30   18   32 1
  31   19   20 ar
  32   19   33 1
  33   20   21 ar
  34   20   22 1
  35   23   24 1
  36   23   34 1
  37   23   35 1
  38   24   36 1
  39   24   37 1
  40   24   38 1

#	End of record

