#	Name: ASD07190002
#	Creating user name:	WinNT
#	Creation time:	15. 06. 2019 21:09

#	Modifying user name:	WinNT
#	Modification time:	15. 06. 2019 21:09

#	Program:	/corina/corina34_cracker 3.40 0067  02.08.2006

@<TRIPOS>MOLECULE
ASD07190002
  36   37    0    0    0
SMALL
NO_CHARGES


@<TRIPOS>ATOM
   1 C1            -0.0167     1.3785     0.0096 C.ar    
   2 C2             0.0021    -0.0041     0.0020 C.ar    
   3 C3             1.2050    -0.6811    -0.0132 C.ar    
   4 C4             2.4031     0.0305    -0.0208 C.ar    
   5 C5             2.3807     1.4238    -0.0131 C.ar    
   6 C6             1.1710     2.0923     0.0021 C.ar    
   7 F7             1.1466     3.4430     0.0092 F       
   8 C8             3.6982    -0.6929    -0.0366 C.2     
   9 C9             3.7881    -2.0340    -0.1433 C.2     
  10 S10            5.4963    -2.4648    -0.1220 S.3     
  11 C11            5.9235    -0.8166     0.0269 C.2     
  12 N12            4.8689    -0.0776     0.0472 N.2     
  13 C13            7.3364    -0.3001     0.1159 C.3     
  14 S14            7.8472    -0.2328     1.8552 S.o2    
  15 O15            7.8996    -1.5588     2.3633 O.2     
  16 C16            9.5410     0.4031     1.7240 C.3     
  17 O17            7.0506     0.7355     2.5239 O.2     
  18 C18            9.5192     1.7770     1.0511 C.3     
  19 C19           10.1480     0.5298     3.1227 C.3     
  20 C20           10.3844    -0.5611     0.8874 C.3     
  21 H21           -0.9602     1.9039     0.0169 H       
  22 H22           -0.9265    -0.5555     0.0083 H       
  23 H23            1.2175    -1.7610    -0.0187 H       
  24 H24            3.3064     1.9800    -0.0186 H       
  25 H25            2.9599    -2.7221    -0.2267 H       
  26 H26            8.0021    -0.9663    -0.4328 H       
  27 H27            7.3857     0.6994    -0.3162 H       
  28 H28            8.9184     2.4640     1.6471 H       
  29 H29           10.5370     2.1592     0.9723 H       
  30 H30            9.0868     1.6868     0.0546 H       
  31 H31           10.1635    -0.4490     3.6021 H       
  32 H32           11.1658     0.9119     3.0439 H       
  33 H33            9.5471     1.2168     3.7187 H       
  34 H34            9.9520    -0.6514    -0.1090 H       
  35 H35           11.4022    -0.1790     0.8086 H       
  36 H36           10.3999    -1.5399     1.3668 H       
@<TRIPOS>BOND
   1    1    2 ar
   2    1    6 ar
   3    1   21 1
   4    2    3 ar
   5    2   22 1
   6    3    4 ar
   7    3   23 1
   8    4    5 ar
   9    4    8 1
  10    5    6 ar
  11    5   24 1
  12    6    7 1
  13    8    9 2
  14    8   12 1
  15    9   10 1
  16    9   25 1
  17   10   11 1
  18   11   12 2
  19   11   13 1
  20   13   14 1
  21   13   26 1
  22   13   27 1
  23   14   15 2
  24   14   16 1
  25   14   17 2
  26   16   18 1
  27   16   19 1
  28   16   20 1
  29   18   28 1
  30   18   29 1
  31   18   30 1
  32   19   31 1
  33   19   32 1
  34   19   33 1
  35   20   34 1
  36   20   35 1
  37   20   36 1

#	End of record

