#	Name: ASD02560347
#	Creating user name:	WinNT
#	Creation time:	15. 06. 2019 20:25

#	Modifying user name:	WinNT
#	Modification time:	15. 06. 2019 20:25

#	Program:	/corina/corina34_cracker 3.40 0067  02.08.2006

@<TRIPOS>MOLECULE
ASD02560347
  48   50    0    0    0
SMALL
NO_CHARGES


@<TRIPOS>ATOM
   1 C1            -0.1410    -0.8299    -2.8414 C.2     
   2 C2            -0.1695    -1.9934    -2.0519 C.2     
   3 C3            -1.1062    -2.1443    -1.0942 C.2     
   4 N4            -2.0417    -1.1696    -0.8759 N.pl3   
   5 C5            -2.0381    -0.0204    -1.6325 C.2     
   6 C6            -1.0598     0.1503    -2.6336 C.2     
   7 C7            -3.0808    -1.0638     0.0079 C.2     
   8 C8            -3.6816     0.1306    -0.2240 C.2     
   9 N9            -3.0352     0.7464    -1.2204 N.2     
  10 C10           -4.8769     0.6725     0.5166 C.3     
  11 N11           -3.4543    -2.0101     0.9701 N.3     
  12 C12           -4.8666    -2.3851     0.8193 C.3     
  13 C13           -5.1368    -2.7812    -0.6336 C.3     
  14 C14           -5.1811    -3.5680     1.7373 C.3     
  15 C15           -4.5288     0.8347     1.9976 C.3     
  16 C16           -6.6520    -3.9585     1.5802 C.3     
  17 C17           -6.9222    -4.3546     0.1273 C.3     
  18 C18           -6.6077    -3.1717    -0.7907 C.3     
  19 C19           -1.1236    -3.3972    -0.2570 C.3     
  20 C20            0.9088    -0.6675    -3.9104 C.3     
  21 C21           -5.7424     1.3849     2.7496 C.3     
  22 H22            0.5628    -2.7705    -2.2140 H       
  23 H23           -1.0453     1.0477    -3.2344 H       
  24 H24           -5.1539     1.6411     0.1003 H       
  25 H25           -5.7126    -0.0196     0.4136 H       
  26 H26           -2.8580    -2.8229     0.9285 H       
  27 H27           -5.4981    -1.5384     1.0885 H       
  28 H28           -4.9128    -1.9385    -1.2876 H       
  29 H29           -4.5053    -3.6279    -0.9028 H       
  30 H30           -4.5496    -4.4147     1.4681 H       
  31 H31           -4.9886    -3.2858     2.7724 H       
  32 H32           -4.2519    -0.1338     2.4140 H       
  33 H33           -3.6931     1.5269     2.1007 H       
  34 H34           -6.8761    -4.8012     2.2343 H       
  35 H35           -7.2835    -3.1118     1.8494 H       
  36 H36           -6.2907    -5.2013    -0.1419 H       
  37 H37           -7.9701    -4.6329     0.0154 H       
  38 H38           -7.2392    -2.3250    -0.5215 H       
  39 H39           -6.8002    -3.4539    -1.8258 H       
  40 H40           -0.3002    -4.0457    -0.5564 H       
  41 H41           -1.0139    -3.1330     0.7948 H       
  42 H42           -2.0691    -3.9192    -0.4038 H       
  43 H43            0.5367    -1.0757    -4.8501 H       
  44 H44            1.1360     0.3908    -4.0387 H       
  45 H45            1.8129    -1.2001    -3.6156 H       
  46 H46           -5.4944     1.5005     3.8046 H       
  47 H47           -6.0193     2.3535     2.3332 H       
  48 H48           -6.5781     0.6928     2.6465 H       
@<TRIPOS>BOND
   1    1    2 1
   2    1   20 1
   3    1    6 2
   4    2    3 2
   5    2   22 1
   6    3    4 1
   7    3   19 1
   8    4    5 1
   9    4    7 1
  10    5    6 1
  11    5    9 2
  12    6   23 1
  13    7    8 2
  14    7   11 1
  15    8    9 1
  16    8   10 1
  17   10   15 1
  18   10   24 1
  19   10   25 1
  20   11   12 1
  21   11   26 1
  22   12   14 1
  23   12   13 1
  24   12   27 1
  25   13   18 1
  26   13   28 1
  27   13   29 1
  28   14   16 1
  29   14   30 1
  30   14   31 1
  31   15   21 1
  32   15   32 1
  33   15   33 1
  34   16   17 1
  35   16   34 1
  36   16   35 1
  37   17   18 1
  38   17   36 1
  39   17   37 1
  40   18   38 1
  41   18   39 1
  42   19   40 1
  43   19   41 1
  44   19   42 1
  45   20   43 1
  46   20   44 1
  47   20   45 1
  48   21   46 1
  49   21   47 1
  50   21   48 1

#	End of record

