#	Name: ASD09116335
#	Creating user name:	WinNT
#	Creation time:	15. 06. 2019 21:21

#	Modifying user name:	WinNT
#	Modification time:	15. 06. 2019 21:21

#	Program:	/corina/corina34_cracker 3.40 0067  02.08.2006

@<TRIPOS>MOLECULE
ASD09116335
  81   87    0    0    0
SMALL
NO_CHARGES


@<TRIPOS>ATOM
   1 N1            -0.0590     1.5277    -0.5290 N.2     
   2 N2            -0.0822     0.2491    -1.1090 N.pl3   
   3 C3             1.1948     1.9114    -0.4983 C.2     
   4 N4             1.9589     0.9475    -1.0254 N.2     
   5 C5             1.2028    -0.0627    -1.3988 C.2     
   6 N6             1.6429    -1.2348    -1.9840 N.pl3   
   7 C7            -1.2079    -0.5440    -1.3405 C.ar    
   8 N8             1.6573     3.1283     0.0026 N.pl3   
   9 C9             3.0333     3.3745     0.0836 C.ar    
  10 C10            3.5138     4.6735    -0.0238 C.ar    
  11 C11            3.9167     2.3211     0.2768 C.ar    
  12 C12            5.2746     2.5632     0.3573 C.ar    
  13 C13            5.7565     3.8595     0.2454 C.ar    
  14 C14            4.8720     4.9162     0.0566 C.ar    
  15 N15            7.1339     4.1047     0.3275 N.3     
  16 C16            7.6545     3.7461     1.6542 C.3     
  17 C17            7.8601     3.3894    -0.7311 C.3     
  18 C18            9.3468     3.7453    -0.6561 C.3     
  19 N19            9.8674     3.3867     0.6706 N.3     
  20 C20            9.1411     4.1020     1.7291 C.3     
  21 C21           11.3112     3.6437     0.7566 C.3     
  22 F22            5.3406     6.1786    -0.0523 F       
  23 N23           -1.1867    -1.4609    -2.2960 N.ar    
  24 N24           -2.1985    -2.2101    -2.5562 N.ar    
  25 C25           -3.3307    -2.1066    -1.8787 C.ar    
  26 C26           -3.4383    -1.1803    -0.8371 C.ar    
  27 C27           -2.3546    -0.3741    -0.5604 C.ar    
  28 C28           -4.5153    -2.9308    -2.2116 C.ar    
  29 C29           -5.7521    -2.3016    -2.3688 C.ar    
  30 C30           -5.8383    -0.8044    -2.2519 C.3     
  31 C31           -5.7905    -0.3559    -0.7938 C.3     
  32 C32           -4.7030    -1.1084    -0.0318 C.3     
  33 C33           -4.4095    -4.3096    -2.3634 C.ar    
  34 C34           -5.5348    -5.0551    -2.6511 C.ar    
  35 C35           -6.7673    -4.4306    -2.7864 C.ar    
  36 C36           -6.8732    -3.0526    -2.6436 C.ar    
  37 C37           11.7924     3.3775     2.1844 C.3     
  38 C38           13.2961     3.6451     2.2740 C.3     
  39 C39           14.0372     2.7213     1.3054 C.3     
  40 C40           13.5560     2.9875    -0.1223 C.3     
  41 C41           12.0523     2.7198    -0.2120 C.3     
  42 O42           -7.8740    -5.1696    -3.0595 O.3     
  43 C43           -7.6947    -6.5810    -3.1938 C.3     
  44 H44            2.5888    -1.3668    -2.1537 H       
  45 H45            1.0059    -1.9254    -2.2251 H       
  46 H46            1.0256     3.8039     0.2949 H       
  47 H47            2.8263     5.4934    -0.1703 H       
  48 H48            3.5423     1.3119     0.3647 H       
  49 H49            5.9612     1.7432     0.5076 H       
  50 H50            7.1094     4.2978     2.4200 H       
  51 H51            7.5281     2.6758     1.8172 H       
  52 H52            7.7361     2.3151    -0.5951 H       
  53 H53            7.4650     3.6812    -1.7041 H       
  54 H54            9.8919     3.1936    -1.4220 H       
  55 H55            9.4732     4.8156    -0.8192 H       
  56 H56            9.2652     5.1763     1.5931 H       
  57 H57            9.5363     3.8102     2.7022 H       
  58 H58           11.5117     4.6823     0.4933 H       
  59 H59           -2.3933     0.3665     0.2248 H       
  60 H60           -5.0033    -0.3561    -2.7904 H       
  61 H61           -6.7727    -0.4651    -2.6989 H       
  62 H62           -5.5822     0.7133    -0.7540 H       
  63 H63           -6.7560    -0.5503    -0.3268 H       
  64 H64           -5.0495    -2.1195     0.1823 H       
  65 H65           -4.5012    -0.5931     0.9072 H       
  66 H66           -3.4505    -4.7947    -2.2568 H       
  67 H67           -5.4564    -6.1255    -2.7715 H       
  68 H68           -7.8340    -2.5708    -2.7487 H       
  69 H69           11.2644     4.0357     2.8744 H       
  70 H70           11.5919     2.3389     2.4476 H       
  71 H71           13.4966     4.6837     2.0107 H       
  72 H72           13.6389     3.4555     3.2912 H       
  73 H73           15.1085     2.9119     1.3693 H       
  74 H74           13.8367     1.6827     1.5687 H       
  75 H75           13.7565     4.0260    -0.3856 H       
  76 H76           14.0840     2.3293    -0.8123 H       
  77 H77           11.8518     1.6813     0.0513 H       
  78 H78           11.7095     2.9095    -1.2291 H       
  79 H79           -7.2938    -6.9863    -2.2648 H       
  80 H80           -8.6544    -7.0501    -3.4106 H       
  81 H81           -6.9993    -6.7830    -4.0085 H       
@<TRIPOS>BOND
   1    1    2 1
   2    1    3 2
   3    2    7 1
   4    2    5 1
   5    3    4 1
   6    3    8 1
   7    4    5 2
   8    5    6 1
   9    6   44 1
  10    6   45 1
  11    7   23 ar
  12    7   27 ar
  13    8    9 1
  14    8   46 1
  15    9   10 ar
  16    9   11 ar
  17   10   14 ar
  18   10   47 1
  19   11   12 ar
  20   11   48 1
  21   12   13 ar
  22   12   49 1
  23   13   14 ar
  24   13   15 1
  25   14   22 1
  26   15   17 1
  27   15   16 1
  28   16   20 1
  29   16   50 1
  30   16   51 1
  31   17   18 1
  32   17   52 1
  33   17   53 1
  34   18   19 1
  35   18   54 1
  36   18   55 1
  37   19   20 1
  38   19   21 1
  39   20   56 1
  40   20   57 1
  41   21   37 1
  42   21   41 1
  43   21   58 1
  44   23   24 ar
  45   24   25 ar
  46   25   26 ar
  47   25   28 1
  48   26   27 ar
  49   26   32 1
  50   27   59 1
  51   28   29 ar
  52   28   33 ar
  53   29   30 1
  54   29   36 ar
  55   30   31 1
  56   30   60 1
  57   30   61 1
  58   31   32 1
  59   31   62 1
  60   31   63 1
  61   32   64 1
  62   32   65 1
  63   33   34 ar
  64   33   66 1
  65   34   35 ar
  66   34   67 1
  67   35   36 ar
  68   35   42 1
  69   36   68 1
  70   37   38 1
  71   37   69 1
  72   37   70 1
  73   38   39 1
  74   38   71 1
  75   38   72 1
  76   39   40 1
  77   39   73 1
  78   39   74 1
  79   40   41 1
  80   40   75 1
  81   40   76 1
  82   41   77 1
  83   41   78 1
  84   42   43 1
  85   43   79 1
  86   43   80 1
  87   43   81 1

#	End of record

