#	Name: ASD01912338
#	Creating user name:	WinNT
#	Creation time:	15. 06. 2019 19:59

#	Modifying user name:	WinNT
#	Modification time:	15. 06. 2019 19:59

#	Program:	/corina/corina34_cracker 3.40 0067  02.08.2006

@<TRIPOS>MOLECULE
ASD01912338
  48   50    0    0    0
SMALL
NO_CHARGES


@<TRIPOS>ATOM
   1 C1            -0.1288     1.6228    -1.1929 C.ar    
   2 C2            -0.1105     0.2371    -1.3758 C.ar    
   3 C3             1.1010    -0.3966    -1.5824 C.ar    
   4 C4             2.2575     0.3720    -1.6002 C.ar    
   5 C5             2.1681     1.7392    -1.4124 C.ar    
   6 N6             1.0028     2.3212    -1.2172 N.ar    
   7 C7             3.4219     2.5751    -1.4313 C.3     
   8 C8            -1.3753     2.2960    -0.9836 C.1     
   9 C9            -2.3973     2.8478    -0.8121 C.1     
  10 C10           -3.6438     3.5209    -0.6029 C.2     
  11 N11           -3.6029     7.1935     0.9987 N.am    
  12 C12           -4.8462     6.4151     1.0691 C.3     
  13 C13           -4.9731     5.5712    -0.2055 C.3     
  14 C14           -3.6666     4.8415    -0.4280 C.2     
  15 C15           -2.3866     5.6479    -0.4475 C.3     
  16 C16           -2.3245     6.4899     0.8332 C.3     
  17 C17           -3.6352     8.5385     1.0796 C.2     
  18 C18           -2.3729     9.3061     1.1389 C.ar    
  19 C19           -2.2234    10.4674     0.3801 C.ar    
  20 C20           -1.0385    11.1810     0.4406 C.ar    
  21 C21           -0.0029    10.7407     1.2540 C.ar    
  22 C22           -0.1494     9.5900     2.0060 C.ar    
  23 C23           -1.3287     8.8747     1.9583 C.ar    
  24 O24           -4.7021     9.1204     1.1039 O.2     
  25 O25           -0.8887    12.3128    -0.2969 O.3     
  26 C26            0.3599    12.9989    -0.1860 C.3     
  27 H27           -1.0292    -0.3304    -1.3557 H       
  28 H28            1.1469    -1.4660    -1.7265 H       
  29 H29            3.2187    -0.0941    -1.7590 H       
  30 H30            3.6205     2.9091    -2.4496 H       
  31 H31            3.2904     3.4420    -0.7837 H       
  32 H32            4.2615     1.9788    -1.0741 H       
  33 H33           -4.5654     2.9581    -0.5868 H       
  34 H34           -4.8184     5.7600     1.9398 H       
  35 H35           -5.6972     7.0919     1.1455 H       
  36 H36           -5.7814     4.8492    -0.0886 H       
  37 H37           -5.1804     6.2203    -1.0563 H       
  38 H38           -1.5297     4.9754    -0.4865 H       
  39 H39           -2.3791     6.3034    -1.3184 H       
  40 H40           -1.5153     7.2160     0.7542 H       
  41 H41           -2.1519     5.8391     1.6903 H       
  42 H42           -3.0294    10.8085    -0.2527 H       
  43 H43            0.9205    11.2990     1.2991 H       
  44 H44            0.6598     9.2523     2.6366 H       
  45 H45           -1.4416     7.9789     2.5508 H       
  46 H46            0.5178    13.3009     0.8493 H       
  47 H47            1.1673    12.3367    -0.4985 H       
  48 H48            0.3469    13.8824    -0.8243 H       
@<TRIPOS>BOND
   1    1    2 ar
   2    1    6 ar
   3    1    8 1
   4    2    3 ar
   5    2   27 1
   6    3    4 ar
   7    3   28 1
   8    4    5 ar
   9    4   29 1
  10    5    6 ar
  11    5    7 1
  12    7   30 1
  13    7   31 1
  14    7   32 1
  15    8    9 3
  16    9   10 1
  17   10   14 2
  18   10   33 1
  19   11   12 1
  20   11   16 1
  21   11   17 am
  22   12   13 1
  23   12   34 1
  24   12   35 1
  25   13   14 1
  26   13   36 1
  27   13   37 1
  28   14   15 1
  29   15   16 1
  30   15   38 1
  31   15   39 1
  32   16   40 1
  33   16   41 1
  34   17   18 1
  35   17   24 2
  36   18   19 ar
  37   18   23 ar
  38   19   20 ar
  39   19   42 1
  40   20   21 ar
  41   20   25 1
  42   21   22 ar
  43   21   43 1
  44   22   23 ar
  45   22   44 1
  46   23   45 1
  47   25   26 1
  48   26   46 1
  49   26   47 1
  50   26   48 1

#	End of record

