#	Name: ASD05430727
#	Creating user name:	WinNT
#	Creation time:	15. 06. 2019 21:00

#	Modifying user name:	WinNT
#	Modification time:	15. 06. 2019 21:00

#	Program:	/corina/corina34_cracker 3.40 0067  02.08.2006

@<TRIPOS>MOLECULE
ASD05430727
  55   59    0    0    0
SMALL
NO_CHARGES


@<TRIPOS>ATOM
   1 C1            -0.0514     1.2210     0.0697 C.2     
   2 C2            -0.0947    -0.1634    -0.1373 C.2     
   3 C3            -1.3436    -0.7974    -0.2795 C.2     
   4 C4            -2.4753    -0.0667    -0.2148 C.2     
   5 N5            -2.4387     1.2815    -0.0138 N.am    
   6 C6            -1.2713     1.9382     0.1339 C.2     
   7 O7            -1.2647     3.1446     0.3126 O.2     
   8 C8            -3.6957     2.0314     0.0480 C.3     
   9 C9            -4.4812     1.8178    -1.2474 C.3     
  10 C10           -4.5133     1.5458     1.2171 C.ar    
  11 C11           -3.8824     1.1144     2.3688 C.ar    
  12 C12           -4.6317     0.6684     3.4440 C.ar    
  13 C13           -6.0154     0.6546     3.3651 C.ar    
  14 C14           -6.6460     1.0877     2.2094 C.ar    
  15 C15           -5.8933     1.5378     1.1384 C.ar    
  16 N16            1.2440     1.5726     0.1723 N.2     
  17 C17            1.9987     0.5079     0.0436 C.2     
  18 N18            1.2055    -0.5939    -0.1507 N.pl3   
  19 C19            3.4757     0.4970     0.0990 C.ar    
  20 C20            4.1764     1.6868     0.3028 C.ar    
  21 C21            5.5581     1.6721     0.3539 C.ar    
  22 C22            6.2479     0.4703     0.2019 C.ar    
  23 C23            5.5499    -0.7128    -0.0008 C.ar    
  24 C24            4.1722    -0.7043    -0.0468 C.ar    
  25 N25            7.6488     0.4562     0.2533 N.pl3   
  26 C26            8.4904     1.2656    -0.4406 C.2     
  27 N27            9.7188     0.9533    -0.1286 N.2     
  28 C28            9.7099    -0.0502     0.7612 C.2     
  29 C29            8.4279    -0.3730     1.0180 C.2     
  30 C30           10.9244    -0.7003     1.3724 C.3     
  31 F31           -7.9946     1.0748     2.1299 F       
  32 F32           -4.0146     0.2463     4.5693 F       
  33 F33           -6.7483     0.2193     4.4132 F       
  34 O34            6.2437     2.8293     0.5518 O.3     
  35 C35            5.4723     4.0232     0.6990 C.3     
  36 H36           -1.3952    -1.8642    -0.4402 H       
  37 H37           -3.4301    -0.5594    -0.3246 H       
  38 H38           -3.4800     3.0927     0.1714 H       
  39 H39           -3.8898     2.1690    -2.0930 H       
  40 H40           -4.6969     0.7565    -1.3708 H       
  41 H41           -5.4165     2.3757    -1.2014 H       
  42 H42           -2.8042     1.1249     2.4298 H       
  43 H43           -6.3844     1.8754     0.2376 H       
  44 H44            1.5085    -1.5071    -0.2743 H       
  45 H45            3.6405     2.6171     0.4200 H       
  46 H46            6.0873    -1.6422    -0.1182 H       
  47 H47            3.6316    -1.6260    -0.2042 H       
  48 H48            8.1930     2.0379    -1.1345 H       
  49 H49            8.0804    -1.1417     1.6924 H       
  50 H50           11.1950    -0.1755     2.2886 H       
  51 H51           10.7017    -1.7421     1.6026 H       
  52 H52           11.7548    -0.6533     0.6680 H       
  53 H53            4.8102     3.9243     1.5592 H       
  54 H54            6.1404     4.8711     0.8504 H       
  55 H55            4.8780     4.1850    -0.2003 H       
@<TRIPOS>BOND
   1    1    2 2
   2    1   16 1
   3    1    6 1
   4    2    3 1
   5    2   18 1
   6    3    4 2
   7    3   36 1
   8    4    5 1
   9    4   37 1
  10    5    6 am
  11    5    8 1
  12    6    7 2
  13    8    9 1
  14    8   10 1
  15    8   38 1
  16    9   39 1
  17    9   40 1
  18    9   41 1
  19   10   11 ar
  20   10   15 ar
  21   11   12 ar
  22   11   42 1
  23   12   13 ar
  24   12   32 1
  25   13   14 ar
  26   13   33 1
  27   14   15 ar
  28   14   31 1
  29   15   43 1
  30   16   17 2
  31   17   18 1
  32   17   19 1
  33   18   44 1
  34   19   20 ar
  35   19   24 ar
  36   20   21 ar
  37   20   45 1
  38   21   22 ar
  39   21   34 1
  40   22   23 ar
  41   22   25 1
  42   23   24 ar
  43   23   46 1
  44   24   47 1
  45   25   26 1
  46   25   29 1
  47   26   27 2
  48   26   48 1
  49   27   28 1
  50   28   29 2
  51   28   30 1
  52   29   49 1
  53   30   50 1
  54   30   51 1
  55   30   52 1
  56   34   35 1
  57   35   53 1
  58   35   54 1
  59   35   55 1

#	End of record

