#	Name: ASD01140693
#	Creating user name:	WinNT
#	Creation time:	15. 06. 2019 19:01

#	Modifying user name:	WinNT
#	Modification time:	15. 06. 2019 19:01

#	Program:	/corina/corina34_cracker 3.40 0067  02.08.2006

@<TRIPOS>MOLECULE
ASD01140693
  28   29    0    0    0
SMALL
NO_CHARGES


@<TRIPOS>ATOM
   1 C1            -0.0167     1.3833     0.0096 C.ar    
   2 C2             0.0021    -0.0041     0.0020 C.ar    
   3 C3             1.2081    -0.6771    -0.0131 C.ar    
   4 C4             2.3962     0.0305    -0.0202 C.ar    
   5 C5             2.3801     1.4128    -0.0126 C.ar    
   6 C6             1.1763     2.0908     0.0021 C.ar    
   7 O7            -1.2021     2.0479     0.0189 O.3     
   8 N8             4.6406     1.9183    -1.0919 N.2     
   9 N9             4.0107     2.9807    -1.2014 N.2     
  10 C10            3.6767     2.1809    -0.0204 C.3     
  11 C11            4.2030     2.6324     1.3435 C.3     
  12 F12            4.4230     1.5124     2.1525 F       
  13 F13            5.4049     3.3276     1.1727 F       
  14 F14            3.2622     3.4699     1.9523 F       
  15 C15           -1.2922    -0.7759     0.0107 C.3     
  16 O16           -1.0114    -2.1770     0.0004 O.3     
  17 C17           -2.1771    -3.0035     0.0076 C.3     
  18 C18           -1.7748    -4.4194    -0.0040 C.1     
  19 C19           -1.4540    -5.5486    -0.0133 C.1     
  20 H20            1.2233    -1.7570    -0.0191 H       
  21 H21            3.3382    -0.4976    -0.0313 H       
  22 H22            1.1643     3.1708     0.0076 H       
  23 H23           -1.5410     2.2354     0.9049 H       
  24 H24           -1.8586    -0.5254     0.9077 H       
  25 H25           -1.8763    -0.5159    -0.8721 H       
  26 H26           -2.7619    -2.7992     0.9045 H       
  27 H27           -2.7795    -2.7897    -0.8753 H       
  28 H28           -1.1670    -6.5586    -0.0215 H       
@<TRIPOS>BOND
   1    1    2 ar
   2    1    6 ar
   3    1    7 1
   4    2    3 ar
   5    2   15 1
   6    3    4 ar
   7    3   20 1
   8    4    5 ar
   9    4   21 1
  10    5    6 ar
  11    5   10 1
  12    6   22 1
  13    7   23 1
  14    8    9 2
  15    8   10 1
  16    9   10 1
  17   10   11 1
  18   11   12 1
  19   11   13 1
  20   11   14 1
  21   15   16 1
  22   15   24 1
  23   15   25 1
  24   16   17 1
  25   17   18 1
  26   17   26 1
  27   17   27 1
  28   18   19 3
  29   19   28 1

#	End of record

