#	Name: ASD01001102
#	Creating user name:	WinNT
#	Creation time:	15. 06. 2019 18:55

#	Modifying user name:	WinNT
#	Modification time:	15. 06. 2019 18:55

#	Program:	/corina/corina34_cracker 3.40 0067  02.08.2006

@<TRIPOS>MOLECULE
ASD01001102
  62   66    0    0    0
SMALL
NO_CHARGES


@<TRIPOS>ATOM
   1 C1            -0.1249     2.2658    -0.5811 C.2     
   2 N2             0.2799     1.1133     0.0678 N.pl3   
   3 N3            -0.6342     0.0619     0.2105 N.2     
   4 C4            -1.8367     0.1508    -0.2495 C.2     
   5 N5            -2.2998     1.2658    -0.9023 N.am    
   6 C6            -1.4959     2.3367    -1.0856 C.2     
   7 C7             0.9405     3.1386    -0.5928 C.2     
   8 C8             1.9967     2.4973     0.0588 C.2     
   9 C9             1.5633     1.2688     0.4481 C.2     
  10 O10           -1.8993     3.3300    -1.6634 O.2     
  11 C11           -3.6778     1.2978    -1.3987 C.3     
  12 C12           -4.5662     1.9529    -0.3727 C.ar    
  13 C13           -4.6693     3.3307    -0.3266 C.ar    
  14 C14           -5.4842     3.9317     0.6145 C.ar    
  15 C15           -6.1963     3.1549     1.5092 C.ar    
  16 C16           -6.0940     1.7771     1.4624 C.ar    
  17 C17           -5.2824     1.1760     0.5185 C.ar    
  18 C18           -2.7703    -1.0174    -0.0627 C.3     
  19 N19           -2.2978    -2.1524    -0.8596 N.am    
  20 C20           -2.8050    -1.4113     1.4153 C.3     
  21 C21           -1.0242    -2.7979    -0.5317 C.3     
  22 C22           -3.0348    -2.6026    -1.8942 C.2     
  23 C23           -2.6087    -3.8085    -2.6359 C.ar    
  24 O24           -4.0498    -2.0172    -2.2176 O.2     
  25 C25           -1.2486    -3.8395     0.5340 C.2     
  26 Cl26           2.5111     0.0898     1.2996 Cl      
  27 C27           -3.3681    -0.3899     2.4055 C.3     
  28 C28           -4.1766    -1.6402     2.0534 C.3     
  29 N29           -0.2112    -4.5655     0.9957 N.am    
  30 C30           -2.2696    -4.9729    -1.9451 C.ar    
  31 C31           -1.8727    -6.0947    -2.6432 C.ar    
  32 C32           -1.8105    -6.0672    -4.0251 C.ar    
  33 C33           -2.1449    -4.9160    -4.7160 C.ar    
  34 C34           -2.5493    -3.7892    -4.0303 C.ar    
  35 C35           -1.3761    -7.2963    -4.7811 C.3     
  36 O36           -2.3627    -4.0244     0.9761 O.2     
  37 H37            0.9564     4.1289    -1.0236 H       
  38 H38            2.9830     2.9050     0.2238 H       
  39 H39           -3.7161     1.8657    -2.3282 H       
  40 H40           -4.0222     0.2797    -1.5805 H       
  41 H41           -4.1129     3.9375    -1.0255 H       
  42 H42           -5.5641     5.0081     0.6511 H       
  43 H43           -6.8325     3.6245     2.2449 H       
  44 H44           -6.6501     1.1703     2.1616 H       
  45 H45           -5.2025     0.0996     0.4819 H       
  46 H46           -3.7723    -0.7374    -0.3877 H       
  47 H47           -1.9809    -2.0392     1.7540 H       
  48 H48           -0.6173    -3.2731    -1.4243 H       
  49 H49           -0.3211    -2.0495    -0.1660 H       
  50 H50           -2.9148    -0.3462     3.3958 H       
  51 H51           -3.7138     0.5626     2.0040 H       
  52 H52           -5.0543    -1.5102     1.4202 H       
  53 H53           -4.2552    -2.4190     2.8119 H       
  54 H54            0.6798    -4.4176     0.6421 H       
  55 H55           -0.3557    -5.2360     1.6817 H       
  56 H56           -2.3174    -4.9956    -0.8664 H       
  57 H57           -1.6097    -6.9962    -2.1098 H       
  58 H58           -2.0939    -4.9009    -5.7947 H       
  59 H59           -2.8104    -2.8914    -4.5707 H       
  60 H60           -2.2485    -7.9071    -5.0136 H       
  61 H61           -0.8839    -6.9984    -5.7069 H       
  62 H62           -0.6818    -7.8725    -4.1696 H       
@<TRIPOS>BOND
   1    1    2 1
   2    1    7 2
   3    1    6 1
   4    2    3 1
   5    2    9 1
   6    3    4 2
   7    4    5 1
   8    4   18 1
   9    5    6 am
  10    5   11 1
  11    6   10 2
  12    7    8 1
  13    7   37 1
  14    8    9 2
  15    8   38 1
  16    9   26 1
  17   11   12 1
  18   11   39 1
  19   11   40 1
  20   12   13 ar
  21   12   17 ar
  22   13   14 ar
  23   13   41 1
  24   14   15 ar
  25   14   42 1
  26   15   16 ar
  27   15   43 1
  28   16   17 ar
  29   16   44 1
  30   17   45 1
  31   18   19 1
  32   18   20 1
  33   18   46 1
  34   19   21 1
  35   19   22 am
  36   20   27 1
  37   20   28 1
  38   20   47 1
  39   21   25 1
  40   21   48 1
  41   21   49 1
  42   22   23 1
  43   22   24 2
  44   23   30 ar
  45   23   34 ar
  46   25   29 am
  47   25   36 2
  48   27   28 1
  49   27   50 1
  50   27   51 1
  51   28   52 1
  52   28   53 1
  53   29   54 1
  54   29   55 1
  55   30   31 ar
  56   30   56 1
  57   31   32 ar
  58   31   57 1
  59   32   33 ar
  60   32   35 1
  61   33   34 ar
  62   33   58 1
  63   34   59 1
  64   35   60 1
  65   35   61 1
  66   35   62 1

#	End of record

