#	Name: ASD01900108
#	Creating user name:	WinNT
#	Creation time:	15. 06. 2019 19:51

#	Modifying user name:	WinNT
#	Modification time:	15. 06. 2019 19:51

#	Program:	/corina/corina34_cracker 3.40 0067  02.08.2006

@<TRIPOS>MOLECULE
ASD01900108
  41   44    0    0    0
SMALL
NO_CHARGES


@<TRIPOS>ATOM
   1 C1            -0.0168     1.3890     0.0097 C.ar    
   2 C2             0.0021    -0.0041     0.0020 C.ar    
   3 C3             1.2224    -0.6606    -0.0131 C.ar    
   4 C4             2.3820     0.0992    -0.0201 C.ar    
   5 C5             2.2884     1.4815    -0.0118 C.ar    
   6 N6             1.1169     2.0792     0.0026 N.ar    
   7 C7            -1.3131     2.1060     0.0197 C.2     
   8 O8            -2.3544     1.4790     0.0212 O.2     
   9 N9            -1.3379     3.4535     0.0271 N.am    
  10 N10           -4.0732     5.7272     0.0534 N.am    
  11 N11           -4.7377     4.4942     0.0499 N.2     
  12 C12           -3.8404     3.5422     0.0399 C.2     
  13 C13           -2.5688     4.1343     0.0366 C.2     
  14 C14           -2.7375     5.4816     0.0451 C.2     
  15 S15           -4.7895     7.2203     0.0593 S.o2    
  16 O16           -3.8372     8.1244    -0.4836 O.2     
  17 O17           -6.0907     7.0433    -0.4837 O.2     
  18 O18           -5.5597     8.7705     5.6929 O.3     
  19 C19           -5.3679     8.4167     4.3927 C.ar    
  20 C20           -4.1927     8.7521     3.7301 C.ar    
  21 O21           -3.2049     9.4377     4.3677 O.3     
  22 C22           -3.5677    10.1121     5.5775 C.3     
  23 C23           -4.3950     9.1458     6.4362 C.3     
  24 C24           -4.0199     8.3852     2.4041 C.ar    
  25 C25           -5.0126     7.6851     1.7442 C.ar    
  26 C26           -6.1799     7.3494     2.4037 C.ar    
  27 C27           -6.3593     7.7137     3.7251 C.ar    
  28 H28           -0.9212    -0.5644     0.0082 H       
  29 H29            1.2690    -1.7395    -0.0190 H       
  30 H30            3.3489    -0.3818    -0.0315 H       
  31 H31            3.1898     2.0764    -0.0168 H       
  32 H32           -0.5069     3.9539     0.0259 H       
  33 H33           -4.0440     2.4815     0.0350 H       
  34 H34           -1.9523     6.2231     0.0452 H       
  35 H35           -2.6682    10.4064     6.1183 H       
  36 H36           -4.1613    10.9955     5.3421 H       
  37 H37           -4.6927     9.6391     7.3615 H       
  38 H38           -3.8038     8.2592     6.6654 H       
  39 H39           -3.1090     8.6469     1.8863 H       
  40 H40           -6.9533     6.8018     1.8857 H       
  41 H41           -7.2724     7.4503     4.2381 H       
@<TRIPOS>BOND
   1    1    2 ar
   2    1    6 ar
   3    1    7 1
   4    2    3 ar
   5    2   28 1
   6    3    4 ar
   7    3   29 1
   8    4    5 ar
   9    4   30 1
  10    5    6 ar
  11    5   31 1
  12    7    8 2
  13    7    9 am
  14    9   13 1
  15    9   32 1
  16   10   11 1
  17   10   14 1
  18   10   15 am
  19   11   12 2
  20   12   13 1
  21   12   33 1
  22   13   14 2
  23   14   34 1
  24   15   16 2
  25   15   17 2
  26   15   25 1
  27   18   19 1
  28   18   23 1
  29   19   20 ar
  30   19   27 ar
  31   20   21 1
  32   20   24 ar
  33   21   22 1
  34   22   23 1
  35   22   35 1
  36   22   36 1
  37   23   37 1
  38   23   38 1
  39   24   25 ar
  40   24   39 1
  41   25   26 ar
  42   26   27 ar
  43   26   40 1
  44   27   41 1

#	End of record

