#	Name: ASD01918054
#	Creating user name:	WinNT
#	Creation time:	15. 06. 2019 20:10

#	Modifying user name:	WinNT
#	Modification time:	15. 06. 2019 20:10

#	Program:	/corina/corina34_cracker 3.40 0067  02.08.2006

@<TRIPOS>MOLECULE
ASD01918054
  46   49    0    0    0
SMALL
NO_CHARGES


@<TRIPOS>ATOM
   1 C1            -2.1862    -1.0459     0.3096 C.ar    
   2 C2            -2.6823    -2.3264     0.1127 C.ar    
   3 C3            -1.8311    -3.4127     0.1738 C.ar    
   4 C4            -0.4857    -3.2246     0.4310 C.ar    
   5 C5             0.0112    -1.9494     0.6280 C.ar    
   6 C6            -0.8358    -0.8598     0.5675 C.ar    
   7 O7            -3.0206     0.0248     0.2445 O.3     
   8 C8            -2.4404     1.3133     0.4575 C.3     
   9 C9            -3.5094     2.3698     0.3480 C.2     
  10 N10           -4.2395     2.8164     1.3332 N.2     
  11 C11           -5.0782     3.7461     0.8566 C.2     
  12 C12           -4.8435     3.8665    -0.4642 C.2     
  13 O13           -3.8627     3.0099    -0.7779 O.3     
  14 C14           -6.1142     4.5352     1.6163 C.3     
  15 C15           -6.5101     5.7619     0.7851 C.3     
  16 N16           -6.7275     5.3497    -0.6097 N.am    
  17 C17           -5.5774     4.8249    -1.3693 C.3     
  18 C18           -7.9451     5.4509    -1.1785 C.2     
  19 O19           -8.9041     5.7792    -0.5074 O.2     
  20 C20           -8.1144     5.1629    -2.6175 C.ar    
  21 C21           -9.3623     4.7790    -3.1132 C.ar    
  22 C22           -9.5147     4.5115    -4.4567 C.ar    
  23 C23           -8.4318     4.6229    -5.3156 C.ar    
  24 C24           -7.1906     5.0033    -4.8286 C.ar    
  25 C25           -7.0285     5.2792    -3.4879 C.ar    
  26 F26           -8.5866     4.3596    -6.6316 F       
  27 C27           -7.7988     6.3658     1.3466 C.3     
  28 H28           -3.7333    -2.4739    -0.0878 H       
  29 H29           -2.2169    -4.4098     0.0210 H       
  30 H30            0.1782    -4.0751     0.4784 H       
  31 H31            1.0625    -1.8051     0.8291 H       
  32 H32           -0.4471     0.1361     0.7208 H       
  33 H33           -1.9931     1.3506     1.4507 H       
  34 H34           -1.6721     1.4945    -0.2941 H       
  35 H35           -6.9921     3.9130     1.7901 H       
  36 H36           -5.6991     4.8592     2.5707 H       
  37 H37           -5.7116     6.5027     0.8258 H       
  38 H38           -4.9188     5.6459    -1.6525 H       
  39 H39           -5.9239     4.3018    -2.2606 H       
  40 H40          -10.2062     4.6915    -2.4451 H       
  41 H41          -10.4791     4.2141    -4.8411 H       
  42 H42           -6.3504     5.0883    -5.5018 H       
  43 H43           -6.0625     5.5805    -3.1104 H       
  44 H44           -7.6067     6.7737     2.3390 H       
  45 H45           -8.1444     7.1620     0.6872 H       
  46 H46           -8.5636     5.5920     1.4137 H       
@<TRIPOS>BOND
   1    1    2 ar
   2    1    6 ar
   3    1    7 1
   4    2    3 ar
   5    2   28 1
   6    3    4 ar
   7    3   29 1
   8    4    5 ar
   9    4   30 1
  10    5    6 ar
  11    5   31 1
  12    6   32 1
  13    7    8 1
  14    8    9 1
  15    8   33 1
  16    8   34 1
  17    9   10 2
  18    9   13 1
  19   10   11 1
  20   11   14 1
  21   11   12 2
  22   12   13 1
  23   12   17 1
  24   14   15 1
  25   14   35 1
  26   14   36 1
  27   15   16 1
  28   15   27 1
  29   15   37 1
  30   16   17 1
  31   16   18 am
  32   17   38 1
  33   17   39 1
  34   18   19 2
  35   18   20 1
  36   20   21 ar
  37   20   25 ar
  38   21   22 ar
  39   21   40 1
  40   22   23 ar
  41   22   41 1
  42   23   24 ar
  43   23   26 1
  44   24   25 ar
  45   24   42 1
  46   25   43 1
  47   27   44 1
  48   27   45 1
  49   27   46 1

#	End of record

