#	Name: ASD03430215
#	Creating user name:	WinNT
#	Creation time:	15. 06. 2019 20:40

#	Modifying user name:	WinNT
#	Modification time:	15. 06. 2019 20:40

#	Program:	/corina/corina34_cracker 3.40 0067  02.08.2006

@<TRIPOS>MOLECULE
ASD03430215
  67   73    0    0    0
SMALL
NO_CHARGES


@<TRIPOS>ATOM
   1 C1             0.0276     1.3515     0.0288 C.ar    
   2 C2             0.0305    -0.0259     0.0290 C.ar    
   3 C3             1.2246    -0.7156     0.0513 C.ar    
   4 C4             2.4344    -0.0268     0.0824 C.ar    
   5 C5             2.4230     1.3630     0.0714 C.ar    
   6 C6             1.2223     2.0619     0.0414 C.ar    
   7 O7             3.4898    -0.8883     0.1342 O.3     
   8 C8             1.5640    -2.1813     0.0371 C.3     
   9 C9             3.0615    -2.1925    -0.3014 C.3     
  10 C10            0.4001    -3.8857     1.0673 C.ar    
  11 C11            1.2836    -2.8474     1.3517 C.ar    
  12 C12            0.7585    -2.9439    -0.9750 C.2     
  13 N13            0.1141    -3.9163    -0.2994 N.am    
  14 O14            0.6992    -2.7273    -2.1669 O.2     
  15 C15            1.7094    -2.6237     2.6416 C.ar    
  16 C16            1.2609    -3.4335     3.6703 C.ar    
  17 C17            0.3833    -4.4671     3.3996 C.ar    
  18 C18           -0.0468    -4.6952     2.1089 C.ar    
  19 C19           -0.7815    -4.8919    -0.9259 C.3     
  20 C20           -1.0958     2.3695     0.0261 C.3     
  21 C21           -0.3544     3.6653     0.4320 C.3     
  22 O22            0.9952     3.4047     0.0107 O.3     
  23 C23           -2.2042    -4.4055    -0.8241 C.ar    
  24 C24           -3.2344    -5.1235    -1.4342 C.ar    
  25 C25           -2.9339    -6.3627    -2.1819 C.2     
  26 O26           -1.7802    -6.7092    -2.3455 O.2     
  27 C27           -2.4923    -3.2530    -0.1231 C.ar    
  28 C28           -3.7982    -2.8053    -0.0282 C.ar    
  29 C29           -4.8231    -3.5092    -0.6349 C.ar    
  30 C30           -4.5494    -4.6664    -1.3347 C.ar    
  31 N31           -3.9389    -7.1084    -2.6822 N.am    
  32 C32           -3.6594    -8.3223    -3.3179 C.ar    
  33 C33           -4.6233    -9.3214    -3.3651 C.ar    
  34 C34           -4.3442   -10.5189    -3.9936 C.ar    
  35 C35           -2.4197    -8.5293    -3.9084 C.ar    
  36 C36           -2.1468    -9.7294    -4.5355 C.ar    
  37 C37           -3.1063   -10.7241    -4.5754 C.ar    
  38 C38           -5.9721    -9.0990    -2.7307 C.3     
  39 C39           -2.8048   -12.0326    -5.2596 C.3     
  40 H40           -0.9042    -0.5668     0.0121 H       
  41 H41            3.3569     1.9052     0.0869 H       
  42 H42            3.2150    -2.3121    -1.3739 H       
  43 H43            3.5781    -2.9751     0.2543 H       
  44 H44            2.3946    -1.8156     2.8509 H       
  45 H45            1.5958    -3.2587     4.6820 H       
  46 H46            0.0331    -5.0989     4.2024 H       
  47 H47           -0.7321    -5.5046     1.9052 H       
  48 H48           -0.5123    -5.0106    -1.9754 H       
  49 H49           -0.6880    -5.8507    -0.4161 H       
  50 H50           -1.5321     2.4655    -0.9681 H       
  51 H51           -1.8580     2.1104     0.7610 H       
  52 H52           -0.7644     4.5263    -0.0961 H       
  53 H53           -0.4003     3.8148     1.5107 H       
  54 H54           -1.6968    -2.6990     0.3531 H       
  55 H55           -4.0184    -1.9025     0.5221 H       
  56 H56           -5.8402    -3.1546    -0.5568 H       
  57 H57           -5.3503    -5.2150    -1.8079 H       
  58 H58           -4.8560    -6.8032    -2.6012 H       
  59 H59           -5.0932   -11.2961    -4.0307 H       
  60 H60           -1.6698    -7.7527    -3.8776 H       
  61 H61           -1.1829    -9.8910    -4.9949 H       
  62 H62           -6.6507    -8.6625    -3.4634 H       
  63 H63           -6.3733   -10.0522    -2.3864 H       
  64 H64           -5.8676    -8.4214    -1.8833 H       
  65 H65           -2.3744   -12.7285    -4.5394 H       
  66 H66           -3.7261   -12.4518    -5.6641 H       
  67 H67           -2.0958   -11.8638    -6.0701 H       
@<TRIPOS>BOND
   1    1    2 ar
   2    1    6 ar
   3    1   20 1
   4    2    3 ar
   5    2   40 1
   6    3    4 ar
   7    3    8 1
   8    4    5 ar
   9    4    7 1
  10    5    6 ar
  11    5   41 1
  12    6   22 1
  13    7    9 1
  14    8    9 1
  15    8   11 1
  16    8   12 1
  17    9   42 1
  18    9   43 1
  19   10   11 ar
  20   10   13 1
  21   10   18 ar
  22   11   15 ar
  23   12   13 am
  24   12   14 2
  25   13   19 1
  26   15   16 ar
  27   15   44 1
  28   16   17 ar
  29   16   45 1
  30   17   18 ar
  31   17   46 1
  32   18   47 1
  33   19   23 1
  34   19   48 1
  35   19   49 1
  36   20   21 1
  37   20   50 1
  38   20   51 1
  39   21   22 1
  40   21   52 1
  41   21   53 1
  42   23   24 ar
  43   23   27 ar
  44   24   25 1
  45   24   30 ar
  46   25   26 2
  47   25   31 am
  48   27   28 ar
  49   27   54 1
  50   28   29 ar
  51   28   55 1
  52   29   30 ar
  53   29   56 1
  54   30   57 1
  55   31   32 1
  56   31   58 1
  57   32   33 ar
  58   32   35 ar
  59   33   34 ar
  60   33   38 1
  61   34   37 ar
  62   34   59 1
  63   35   36 ar
  64   35   60 1
  65   36   37 ar
  66   36   61 1
  67   37   39 1
  68   38   62 1
  69   38   63 1
  70   38   64 1
  71   39   65 1
  72   39   66 1
  73   39   67 1

#	End of record

