#	Name: ASD01320149
#	Creating user name:	WinNT
#	Creation time:	15. 06. 2019 19:16

#	Modifying user name:	WinNT
#	Modification time:	15. 06. 2019 19:16

#	Program:	/corina/corina34_cracker 3.40 0067  02.08.2006

@<TRIPOS>MOLECULE
ASD01320149
  29   30    0    0    0
SMALL
NO_CHARGES


@<TRIPOS>ATOM
   1 C1            -0.0173     1.4248     0.0099 C.3     
   2 O2             0.0021    -0.0041     0.0020 O.3     
   3 C3             1.4181     1.9544    -0.0010 C.3     
   4 O4             2.0484     1.6242    -1.2441 O.3     
   5 C5             1.4095     3.4931     0.1235 C.3     
   6 O6             1.7088     3.8968     1.4613 O.3     
   7 C7             2.5486     3.9087    -0.8470 C.3     
   8 O8             3.8240     3.8321    -0.2071 O.3     
   9 C9             2.4090     2.8248    -1.9455 C.3     
  10 N10            3.6835     2.6421    -2.6444 N.am    
  11 C11            4.3186     1.4547    -2.5884 C.2     
  12 O12            3.8341     0.5357    -1.9582 O.2     
  13 N13            5.4909     1.2865    -3.2318 N.am    
  14 C14            6.0283     2.3059    -3.9308 C.2     
  15 O15            7.0854     2.1544    -4.5105 O.2     
  16 N16            5.3929     3.4932    -3.9872 N.am    
  17 C17            4.2181     3.6598    -3.3480 C.2     
  18 O18            3.6430     4.7288    -3.4026 O.2     
  19 H19           -0.5445     1.7859    -0.8732 H       
  20 H20           -0.5275     1.7763     0.9067 H       
  21 H21           -0.8759    -0.4094     0.0082 H       
  22 H22            1.9792     1.5183     0.8255 H       
  23 H23            0.4523     3.9031    -0.1986 H       
  24 H24            1.0714     3.5847     2.1181 H       
  25 H25            2.3746     4.9051    -1.2531 H       
  26 H26            3.9168     4.4185     0.5562 H       
  27 H27            1.6255     3.1003    -2.6514 H       
  28 H28            5.9480     0.4320    -3.1915 H       
  29 H29            5.7795     4.2267    -4.4905 H       
@<TRIPOS>BOND
   1    1    2 1
   2    1    3 1
   3    1   19 1
   4    1   20 1
   5    2   21 1
   6    3    4 1
   7    3    5 1
   8    3   22 1
   9    4    9 1
  10    5    6 1
  11    5    7 1
  12    5   23 1
  13    6   24 1
  14    7    8 1
  15    7    9 1
  16    7   25 1
  17    8   26 1
  18    9   10 1
  19    9   27 1
  20   10   11 am
  21   10   17 am
  22   11   12 2
  23   11   13 am
  24   13   14 am
  25   13   28 1
  26   14   15 2
  27   14   16 am
  28   16   17 am
  29   16   29 1
  30   17   18 2

#	End of record

