#	Name: ASD03200085
#	Creating user name:	WinNT
#	Creation time:	15. 06. 2019 20:34

#	Modifying user name:	WinNT
#	Modification time:	15. 06. 2019 20:34

#	Program:	/corina/corina34_cracker 3.40 0067  02.08.2006

@<TRIPOS>MOLECULE
ASD03200085
  24   25    0    0    0
SMALL
NO_CHARGES


@<TRIPOS>ATOM
   1 C1            -0.0218     1.7540     0.0117 C.2     
   2 C2             1.2287     2.2277     0.0023 C.2     
   3 C3             2.2184     1.2700    -0.0123 C.2     
   4 C4             1.7609    -0.0131    -0.0148 C.2     
   5 C5             3.1162    -3.4662    -0.0459 C.2     
   6 C6             2.1393    -2.5008    -0.0314 C.2     
   7 C7             2.6047    -1.2166    -0.0289 C.2     
   8 C8             4.4023    -2.9741    -0.0555 C.2     
   9 C9             5.5724    -3.7598    -0.0709 C.2     
  10 C10            7.9280    -4.0227    -0.0948 C.3     
  11 O11            6.7850    -3.1652    -0.0793 O.3     
  12 O12            5.4899    -4.9748    -0.0766 O.2     
  13 S13            4.3625    -1.2165    -0.0457 S.3     
  14 S14            0.0021    -0.0041     0.0020 S.3     
  15 N15            2.8300    -4.8288    -0.0450 N.pl3   
  16 H16           -0.9145     2.3616     0.0276 H       
  17 H17            1.4469     3.2854     0.0055 H       
  18 H18            3.2700     1.5159    -0.0214 H       
  19 H19            1.0858    -2.7384    -0.0229 H       
  20 H20            7.9187    -4.6566     0.7919 H       
  21 H21            7.9017    -4.6470    -0.9879 H       
  22 H22            8.8353    -3.4188    -0.1002 H       
  23 H23            3.5524    -5.4760    -0.0513 H       
  24 H24            1.9083    -5.1308    -0.0380 H       
@<TRIPOS>BOND
   1    1   14 1
   2    1    2 2
   3    1   16 1
   4    2    3 1
   5    2   17 1
   6    3   18 1
   7    3    4 2
   8    4    7 1
   9    4   14 1
  10    5    8 2
  11    5    6 1
  12    5   15 1
  13    6    7 2
  14    6   19 1
  15    7   13 1
  16    8    9 1
  17    8   13 1
  18    9   12 2
  19    9   11 1
  20   10   20 1
  21   10   21 1
  22   10   22 1
  23   10   11 1
  24   15   23 1
  25   15   24 1

#	End of record

