#	Name: ASD00170699
#	Creating user name:	WinNT
#	Creation time:	15. 06. 2019 18:32

#	Modifying user name:	WinNT
#	Modification time:	15. 06. 2019 18:32

#	Program:	/corina/corina34_cracker 3.40 0067  02.08.2006

@<TRIPOS>MOLECULE
ASD00170699
  48   50    0    0    0
SMALL
NO_CHARGES


@<TRIPOS>ATOM
   1 N1             0.5573     1.7137    -0.3501 N.pl3   
   2 C2             0.3575     0.3500    -0.3518 C.2     
   3 S3             1.5167    -0.7970    -0.8463 S.3     
   4 C4             0.4404    -2.1439    -0.5213 C.2     
   5 C5            -0.7384    -1.7086    -0.0591 C.2     
   6 C6            -0.8044    -0.2709     0.0518 C.2     
   7 C7            -1.9836     0.4510     0.5322 C.2     
   8 O8            -2.0540     0.7943     1.6983 O.2     
   9 C9            -3.0892     0.7632    -0.3984 C.ar    
  10 C10           -3.0654     0.2730    -1.7051 C.ar    
  11 C11           -4.1000     0.5680    -2.5684 C.ar    
  12 C12           -5.1604     1.3486    -2.1425 C.ar    
  13 C13           -5.1915     1.8383    -0.8492 C.ar    
  14 C14           -4.1656     1.5458     0.0278 C.ar    
  15 Cl15          -4.2058     2.1608     1.6506 Cl      
  16 C16           -1.8758    -2.6247     0.3125 C.3     
  17 C17           -1.7275    -3.0552     1.7732 C.3     
  18 C18           -1.6453    -1.8145     2.6647 C.3     
  19 C19           -2.9375    -3.8977     2.1819 C.3     
  20 C20           -0.4514    -3.8840     1.9336 C.3     
  21 C21            0.7873    -3.5651    -0.7298 C.ar    
  22 C22           -0.0649    -4.3950    -1.4605 C.ar    
  23 C23            0.2650    -5.7208    -1.6514 C.ar    
  24 C24            1.4376    -6.2285    -1.1205 C.ar    
  25 C25            2.2865    -5.4116    -0.3949 C.ar    
  26 C26            1.9717    -4.0824    -0.2019 C.ar    
  27 H27            1.4283     2.0766    -0.5752 H       
  28 H28           -0.1741     2.3108    -0.1278 H       
  29 H29           -2.2385    -0.3358    -2.0397 H       
  30 H30           -4.0824     0.1891    -3.5796 H       
  31 H31           -5.9672     1.5768    -2.8232 H       
  32 H32           -6.0219     2.4472    -0.5234 H       
  33 H33           -2.8223    -2.0999     0.1827 H       
  34 H34           -1.8576    -3.5054    -0.3295 H       
  35 H35           -2.5544    -1.2241     2.5504 H       
  36 H36           -1.5396    -2.1212     3.7053 H       
  37 H37           -0.7832    -1.2143     2.3735 H       
  38 H38           -2.9961    -4.7816     1.5468 H       
  39 H39           -2.8318    -4.2044     3.2225 H       
  40 H40           -3.8466    -3.3072     2.0676 H       
  41 H41            0.4173    -3.2545     1.7405 H       
  42 H42           -0.3978    -4.2756     2.9494 H       
  43 H43           -0.4646    -4.7122     1.2251 H       
  44 H44           -0.9806    -4.0000    -1.8751 H       
  45 H45           -0.3936    -6.3640    -2.2161 H       
  46 H46            1.6911    -7.2672    -1.2729 H       
  47 H47            3.1998    -5.8143     0.0174 H       
  48 H48            2.6351    -3.4458     0.3647 H       
@<TRIPOS>BOND
   1    1    2 1
   2    1   27 1
   3    1   28 1
   4    2    3 1
   5    2    6 2
   6    3    4 1
   7    4    5 2
   8    4   21 1
   9    5    6 1
  10    5   16 1
  11    6    7 1
  12    7    8 2
  13    7    9 1
  14    9   10 ar
  15    9   14 ar
  16   10   11 ar
  17   10   29 1
  18   11   12 ar
  19   11   30 1
  20   12   13 ar
  21   12   31 1
  22   13   14 ar
  23   13   32 1
  24   14   15 1
  25   16   17 1
  26   16   33 1
  27   16   34 1
  28   17   18 1
  29   17   19 1
  30   17   20 1
  31   18   35 1
  32   18   36 1
  33   18   37 1
  34   19   38 1
  35   19   39 1
  36   19   40 1
  37   20   41 1
  38   20   42 1
  39   20   43 1
  40   21   22 ar
  41   21   26 ar
  42   22   23 ar
  43   22   44 1
  44   23   24 ar
  45   23   45 1
  46   24   25 ar
  47   24   46 1
  48   25   26 ar
  49   25   47 1
  50   26   48 1

#	End of record

