#	Name: ASD06170058
#	Creating user name:	WinNT
#	Creation time:	15. 06. 2019 21:05

#	Modifying user name:	WinNT
#	Modification time:	15. 06. 2019 21:05

#	Program:	/corina/corina34_cracker 3.40 0067  02.08.2006

@<TRIPOS>MOLECULE
ASD06170058
  73   77    0    0    0
SMALL
NO_CHARGES


@<TRIPOS>ATOM
   1 N1            -0.1197     1.3914    -0.3432 N.pl3   
   2 N2            -0.0519     0.0348    -0.0124 N.am    
   3 C3             1.2352    -0.2822     0.2391 C.2     
   4 C4             2.0139     0.9524     0.0533 C.2     
   5 C5             1.1115     1.9354    -0.3034 C.2     
   6 C6             3.4643     1.1089     0.2160 C.2     
   7 O7             3.9839     2.1935     0.0306 O.2     
   8 N8             4.2206     0.0512     0.5708 N.am    
   9 C9            -1.1366    -0.8461     0.0480 C.ar    
  10 C10           -2.0934    -0.8420    -0.9587 C.ar    
  11 C11           -3.1631    -1.7135    -0.8962 C.ar    
  12 C12           -3.2822    -2.5891     0.1674 C.ar    
  13 C13           -2.3313    -2.5957     1.1714 C.ar    
  14 C14           -1.2562    -1.7308     1.1120 C.ar    
  15 O15            1.6671    -1.3744     0.5575 O.2     
  16 C16            1.4483     3.3743    -0.5990 C.3     
  17 C17           -1.3472     2.1128    -0.6882 C.3     
  18 C18           -1.9702     2.6957     0.5818 C.3     
  19 C19           -3.3146     3.3414     0.2404 C.3     
  20 C20           -4.2522     2.2860    -0.3495 C.3     
  21 C21           -3.9376     3.9244     1.5104 C.3     
  22 O22           -1.0946     3.6815     1.1327 O.3     
  23 C23            5.6170     0.1548     0.5629 C.ar    
  24 C24            6.2231     1.3886     0.7620 C.ar    
  25 C25            7.6015     1.4898     0.7545 C.ar    
  26 C26            8.3798     0.3570     0.5477 C.ar    
  27 C27            7.7736    -0.8740     0.3490 C.ar    
  28 C28            6.3960    -0.9766     0.3617 C.ar    
  29 O29            9.7361     0.4562     0.5397 O.3     
  30 N30           11.6350     1.0288     4.1557 N.ar    
  31 C31           10.3241     1.0198     4.0927 C.ar    
  32 C32            9.6499     0.8300     2.8933 C.ar    
  33 C33           10.3674     0.6441     1.7245 C.ar    
  34 C34           11.7786     0.6556     1.8041 C.ar    
  35 C35           12.5729     0.4743     0.6625 C.ar    
  36 C36           13.9294     0.4911     0.7716 C.ar    
  37 C37           14.5447     0.6874     2.0112 C.ar    
  38 C38           13.7926     0.8677     3.1500 C.ar    
  39 C39           12.3913     0.8552     3.0652 C.ar    
  40 O40           15.9005     0.6999     2.0932 O.3     
  41 C41           16.6258     0.5068     0.8772 C.3     
  42 F42            8.1921     2.6894     0.9476 F       
  43 H43            3.7975    -0.7818     0.8317 H       
  44 H44           -2.0013    -0.1579    -1.7893 H       
  45 H45           -3.9074    -1.7108    -1.6787 H       
  46 H46           -4.1200    -3.2691     0.2143 H       
  47 H47           -2.4273    -3.2808     2.0007 H       
  48 H48           -0.5117    -1.7392     1.8943 H       
  49 H49            1.3933     3.9566     0.3208 H       
  50 H50            2.4570     3.4348    -1.0076 H       
  51 H51            0.7381     3.7721    -1.3238 H       
  52 H52           -1.1115     2.9206    -1.3810 H       
  53 H53           -2.0525     1.4264    -1.1568 H       
  54 H54           -2.1242     1.8991     1.3097 H       
  55 H55           -3.1606     4.1381    -0.4875 H       
  56 H56           -5.2099     2.7460    -0.5927 H       
  57 H57           -3.8083     1.8707    -1.2542 H       
  58 H58           -4.4061     1.4893     0.3784 H       
  59 H59           -3.2697     4.6763     1.9306 H       
  60 H60           -4.8954     4.3844     1.2671 H       
  61 H61           -4.0916     3.1277     2.2382 H       
  62 H62           -0.9126     4.4222     0.5383 H       
  63 H63            5.6176     2.2684     0.9223 H       
  64 H64            8.3789    -1.7539     0.1884 H       
  65 H65            5.9248    -1.9366     0.2110 H       
  66 H66            9.7539     1.1639     4.9985 H       
  67 H67            8.5701     0.8269     2.8729 H       
  68 H68           12.1093     0.3215    -0.3008 H       
  69 H69           14.5374     0.3508    -0.1099 H       
  70 H70           14.2778     1.0179     4.1032 H       
  71 H71           17.6957     0.5391     1.0832 H       
  72 H72           16.3671    -0.4619     0.4497 H       
  73 H73           16.3678     1.2961     0.1711 H       
@<TRIPOS>BOND
   1    1    2 1
   2    1    5 1
   3    1   17 1
   4    2    3 am
   5    2    9 1
   6    3    4 1
   7    3   15 2
   8    4    5 2
   9    4    6 1
  10    5   16 1
  11    6    7 2
  12    6    8 am
  13    8   23 1
  14    8   43 1
  15    9   10 ar
  16    9   14 ar
  17   10   11 ar
  18   10   44 1
  19   11   12 ar
  20   11   45 1
  21   12   13 ar
  22   12   46 1
  23   13   14 ar
  24   13   47 1
  25   14   48 1
  26   16   49 1
  27   16   50 1
  28   16   51 1
  29   17   18 1
  30   17   52 1
  31   17   53 1
  32   18   19 1
  33   18   22 1
  34   18   54 1
  35   19   20 1
  36   19   21 1
  37   19   55 1
  38   20   56 1
  39   20   57 1
  40   20   58 1
  41   21   59 1
  42   21   60 1
  43   21   61 1
  44   22   62 1
  45   23   24 ar
  46   23   28 ar
  47   24   25 ar
  48   24   63 1
  49   25   26 ar
  50   25   42 1
  51   26   27 ar
  52   26   29 1
  53   27   28 ar
  54   27   64 1
  55   28   65 1
  56   29   33 1
  57   30   31 ar
  58   30   39 ar
  59   31   32 ar
  60   31   66 1
  61   32   33 ar
  62   32   67 1
  63   33   34 ar
  64   34   35 ar
  65   34   39 ar
  66   35   36 ar
  67   35   68 1
  68   36   37 ar
  69   36   69 1
  70   37   38 ar
  71   37   40 1
  72   38   39 ar
  73   38   70 1
  74   40   41 1
  75   41   71 1
  76   41   72 1
  77   41   73 1

#	End of record

