#	Name: ASD08070663
#	Creating user name:	WinNT
#	Creation time:	15. 06. 2019 21:15

#	Modifying user name:	WinNT
#	Modification time:	15. 06. 2019 21:15

#	Program:	/corina/corina34_cracker 3.40 0067  02.08.2006

@<TRIPOS>MOLECULE
ASD08070663
  45   45    0    0    0
SMALL
NO_CHARGES


@<TRIPOS>ATOM
   1 C1            -0.0184     1.5028     0.0103 C.2     
   2 C2             0.0021    -0.0041     0.0020 C.3     
   3 C3            -0.7241    -0.5171    -1.2431 C.3     
   4 C4            -0.8126    -2.0436    -1.1892 C.3     
   5 C5            -1.6900    -2.4622    -0.0077 C.3     
   6 O6             1.0197     2.1211     0.0037 O.2     
   7 O7            -1.1898     2.1580     0.0194 O.3     
   8 C8            -1.4263    -2.5652    -2.4901 C.3     
   9 C9             1.6937    -1.6942     0.4701 C.2     
  10 C10            3.0878    -2.1659     0.4543 C.ar    
  11 C11            3.4072    -3.4374     0.9578 C.ar    
  12 C12            4.7203    -3.8712     0.9384 C.ar    
  13 C13            5.7145    -3.0478     0.4216 C.ar    
  14 C14            5.3919    -1.7864    -0.0771 C.ar    
  15 C15            4.0984    -1.3514    -0.0677 C.ar    
  16 O16            0.8159    -2.4060     0.9199 O.2     
  17 N17            1.3897    -0.4735    -0.0138 N.am    
  18 S18            7.3875    -3.6001     0.3973 S.3     
  19 C19            8.2678    -2.2022    -0.3522 C.3     
  20 O20            2.4328    -4.2359     1.4612 O.3     
  21 C21            2.8333    -5.5155     1.9554 C.3     
  22 C22           -1.1335     3.6089     0.0270 C.3     
  23 H23           -0.4983    -0.3791     0.8948 H       
  24 H24           -1.7288    -0.0959    -1.2772 H       
  25 H25           -0.1736    -0.2164    -2.1345 H       
  26 H26            0.1866    -2.4614    -1.0657 H       
  27 H27           -1.7530    -3.5497     0.0307 H       
  28 H28           -1.2528    -2.0906     0.9191 H       
  29 H29           -2.6891    -2.0444    -0.1312 H       
  30 H30           -0.8012    -2.2670    -3.3318 H       
  31 H31           -1.4893    -3.6527    -2.4517 H       
  32 H32           -2.4254    -2.1474    -2.6135 H       
  33 H33            4.9732    -4.8477     1.3244 H       
  34 H34            6.1692    -1.1519    -0.4767 H       
  35 H35            3.8552    -0.3749    -0.4597 H       
  36 H36            2.0897     0.0941    -0.3724 H       
  37 H37            8.1290    -1.3133     0.2633 H       
  38 H38            9.3305    -2.4356    -0.4188 H       
  39 H39            7.8730    -2.0177    -1.3512 H       
  40 H40            3.2942    -6.0879     1.1504 H       
  41 H41            3.5513    -5.3839     2.7648 H       
  42 H42            1.9599    -6.0508     2.3279 H       
  43 H43           -2.1463     4.0118     0.0340 H       
  44 H44           -0.6017     3.9472     0.9164 H       
  45 H45           -0.6102     3.9569    -0.8636 H       
@<TRIPOS>BOND
   1    1    2 1
   2    1    6 2
   3    1    7 1
   4    2    3 1
   5    2   17 1
   6    2   23 1
   7    3    4 1
   8    3   24 1
   9    3   25 1
  10    4    5 1
  11    4    8 1
  12    4   26 1
  13    5   27 1
  14    5   28 1
  15    5   29 1
  16    7   22 1
  17    8   30 1
  18    8   31 1
  19    8   32 1
  20    9   10 1
  21    9   16 2
  22    9   17 am
  23   10   11 ar
  24   10   15 ar
  25   11   12 ar
  26   11   20 1
  27   12   13 ar
  28   12   33 1
  29   13   14 ar
  30   13   18 1
  31   14   15 ar
  32   14   34 1
  33   15   35 1
  34   17   36 1
  35   18   19 1
  36   19   37 1
  37   19   38 1
  38   19   39 1
  39   20   21 1
  40   21   40 1
  41   21   41 1
  42   21   42 1
  43   22   43 1
  44   22   44 1
  45   22   45 1

#	End of record

