#	Name: ASD01790015
#	Creating user name:	WinNT
#	Creation time:	15. 06. 2019 19:23

#	Modifying user name:	WinNT
#	Modification time:	15. 06. 2019 19:23

#	Program:	/corina/corina34_cracker 3.40 0067  02.08.2006

@<TRIPOS>MOLECULE
ASD01790015
  53   53    0    0    0
SMALL
NO_CHARGES


@<TRIPOS>ATOM
   1 C1            -0.0167     1.3800     0.0096 C.ar    
   2 C2             0.0021    -0.0041     0.0020 C.ar    
   3 C3            -1.1840    -0.7204     0.0094 C.ar    
   4 C4            -2.3940    -0.0628     0.0240 C.ar    
   5 C5            -2.4300     1.3353     0.0319 C.ar    
   6 C6            -1.2313     2.0593     0.0307 C.ar    
   7 O7             1.1517     2.0760     0.0022 O.3     
   8 C8            -3.7230     2.0431     0.0469 C.2     
   9 O9            -4.8743     1.3429     0.0532 O.3     
  10 O10           -3.7506     3.2578     0.0537 O.2     
  11 C11           -6.1097     2.1058     0.0681 C.3     
  12 C12           -7.3015     1.1464     0.0733 C.3     
  13 C13           -8.6032     1.9502     0.0889 C.3     
  14 C14           -9.7950     0.9908     0.0941 C.3     
  15 C15          -11.0968     1.7946     0.1098 C.3     
  16 C16          -12.2886     0.8352     0.1150 C.3     
  17 C17          -13.5903     1.6390     0.1307 C.3     
  18 C18          -14.7821     0.6796     0.1359 C.3     
  19 C19          -16.0839     1.4835     0.1515 C.3     
  20 C20          -17.2757     0.5241     0.1567 C.3     
  21 C21          -18.5774     1.3279     0.1724 C.3     
  22 C22          -19.7692     0.3685     0.1776 C.3     
  23 O23           -1.2539     3.4164     0.0382 O.3     
  24 H24            0.9462    -0.5284    -0.0101 H       
  25 H25           -1.1594    -1.8001     0.0034 H       
  26 H26           -3.3151    -0.6268     0.0290 H       
  27 H27            1.4812     2.2821    -0.8833 H       
  28 H28           -6.1411     2.7290     0.9617 H       
  29 H29           -6.1566     2.7386    -0.8181 H       
  30 H30           -7.2701     0.5231    -0.8204 H       
  31 H31           -7.2546     0.5135     0.9595 H       
  32 H32           -8.6346     2.5735     0.9826 H       
  33 H33           -8.6501     2.5831    -0.7973 H       
  34 H34           -9.7636     0.3675    -0.7995 H       
  35 H35           -9.7481     0.3579     0.9803 H       
  36 H36          -11.1282     2.4179     1.0035 H       
  37 H37          -11.1437     2.4275    -0.7764 H       
  38 H38          -12.2572     0.2119    -0.7787 H       
  39 H39          -12.2417     0.2023     1.0012 H       
  40 H40          -13.6217     2.2623     1.0243 H       
  41 H41          -13.6372     2.2719    -0.7556 H       
  42 H42          -14.7507     0.0564    -0.7578 H       
  43 H43          -14.7352     0.0468     1.0221 H       
  44 H44          -16.1153     2.1068     1.0452 H       
  45 H45          -16.1308     2.1163    -0.7347 H       
  46 H46          -17.2443    -0.0992    -0.7369 H       
  47 H47          -17.2288    -0.1088     1.0429 H       
  48 H48          -18.6088     1.9512     1.0660 H       
  49 H49          -18.6243     1.9608    -0.7138 H       
  50 H50          -19.7378    -0.2548    -0.7161 H       
  51 H51          -19.7223    -0.2644     1.0638 H       
  52 H52          -20.6966     0.9412     0.1887 H       
  53 H53           -1.2567     3.8048     0.9238 H       
@<TRIPOS>BOND
   1    1    2 ar
   2    1    7 1
   3    1    6 ar
   4    2    3 ar
   5    2   24 1
   6    3    4 ar
   7    3   25 1
   8    4    5 ar
   9    4   26 1
  10    5    6 ar
  11    5    8 1
  12    6   23 1
  13    7   27 1
  14    8    9 1
  15    8   10 2
  16    9   11 1
  17   11   12 1
  18   11   28 1
  19   11   29 1
  20   12   13 1
  21   12   30 1
  22   12   31 1
  23   13   14 1
  24   13   32 1
  25   13   33 1
  26   14   15 1
  27   14   34 1
  28   14   35 1
  29   15   16 1
  30   15   36 1
  31   15   37 1
  32   16   17 1
  33   16   38 1
  34   16   39 1
  35   17   18 1
  36   17   40 1
  37   17   41 1
  38   18   19 1
  39   18   42 1
  40   18   43 1
  41   19   20 1
  42   19   44 1
  43   19   45 1
  44   20   21 1
  45   20   46 1
  46   20   47 1
  47   21   22 1
  48   21   48 1
  49   21   49 1
  50   22   50 1
  51   22   51 1
  52   22   52 1
  53   23   53 1

#	End of record

