#	Name: ASD01141031
#	Creating user name:	WinNT
#	Creation time:	15. 06. 2019 19:01

#	Modifying user name:	WinNT
#	Modification time:	15. 06. 2019 19:01

#	Program:	/corina/corina34_cracker 3.40 0067  02.08.2006

@<TRIPOS>MOLECULE
ASD01141031
  48   50    0    0    0
SMALL
NO_CHARGES


@<TRIPOS>ATOM
   1 C1            -0.0170     1.3990     0.0097 C.ar    
   2 C2             0.0021    -0.0041     0.0020 C.ar    
   3 C3             1.1946     2.1068     0.0020 C.ar    
   4 C4            -1.2975     2.1224     0.0198 C.2     
   5 C5             1.2140    -0.6750    -0.0132 C.ar    
   6 O6            -1.1618    -0.7008     0.0098 O.3     
   7 C7             2.3948     1.4150    -0.0132 C.ar    
   8 O8             1.1906     3.4632     0.0088 O.3     
   9 O9            -1.8217     2.4156     1.0765 O.2     
  10 O10           -1.8899     2.4603    -1.1429 O.3     
  11 C11            2.4017     0.0326    -0.0202 C.ar    
  12 C12           -3.1519     3.1731    -1.0571 C.3     
  13 C13           -3.6678     3.4684    -2.4669 C.3     
  14 N14           -3.9805     2.2052    -3.1485 N.3     
  15 C15           -4.6980     2.4501    -4.4098 C.3     
  16 C16           -4.7657     1.3207    -2.2817 C.3     
  17 C17           -4.6709     1.1668    -5.2406 C.3     
  18 C18           -5.1638     0.0723    -3.0244 C.ar    
  19 C19           -5.1231     0.0002    -4.4002 C.ar    
  20 C20           -5.5819    -1.0279    -2.2899 C.ar    
  21 C21           -5.5039    -1.1688    -5.0417 C.ar    
  22 C22           -5.9592    -2.1914    -2.9293 C.ar    
  23 C23           -5.9210    -2.2620    -4.3096 C.ar    
  24 C24           -1.0645    -2.1264     0.0012 C.3     
  25 C25            2.4619     4.1157     0.0002 C.3     
  26 H26            1.2311    -1.7549    -0.0191 H       
  27 H27            3.3285     1.9577    -0.0196 H       
  28 H28            3.3419    -0.4986    -0.0314 H       
  29 H29           -3.8797     2.5605    -0.5248 H       
  30 H30           -3.0041     4.1103    -0.5205 H       
  31 H31           -4.5680     4.0797    -2.4037 H       
  32 H32           -2.9031     4.0047    -3.0286 H       
  33 H33           -5.7305     2.7263    -4.1961 H       
  34 H34           -4.2075     3.2530    -4.9602 H       
  35 H35           -4.1694     1.0473    -1.4111 H       
  36 H36           -5.6624     1.8443    -1.9503 H       
  37 H37           -5.3367     1.2758    -6.0966 H       
  38 H38           -3.6558     0.9861    -5.5943 H       
  39 H39           -5.6119    -0.9738    -1.2117 H       
  40 H40           -5.4742    -1.2240    -6.1199 H       
  41 H41           -6.2836    -3.0449    -2.3526 H       
  42 H42           -6.2172    -3.1701    -4.8136 H       
  43 H43           -0.5360    -2.4491    -0.8958 H       
  44 H44           -0.5183    -2.4587     0.8841 H       
  45 H45           -2.0650    -2.5589     0.0088 H       
  46 H46            2.3160     5.1959     0.0070 H       
  47 H47            3.0281     3.8200     0.8835 H       
  48 H48            3.0114     3.8290    -0.8964 H       
@<TRIPOS>BOND
   1    1    2 ar
   2    1    3 ar
   3    1    4 1
   4    2    5 ar
   5    2    6 1
   6    3    7 ar
   7    3    8 1
   8    4    9 2
   9    4   10 1
  10    5   11 ar
  11    5   26 1
  12    6   24 1
  13    7   11 ar
  14    7   27 1
  15    8   25 1
  16   10   12 1
  17   11   28 1
  18   12   13 1
  19   12   29 1
  20   12   30 1
  21   13   14 1
  22   13   31 1
  23   13   32 1
  24   14   15 1
  25   14   16 1
  26   15   17 1
  27   15   33 1
  28   15   34 1
  29   16   18 1
  30   16   35 1
  31   16   36 1
  32   17   19 1
  33   17   37 1
  34   17   38 1
  35   18   20 ar
  36   18   19 ar
  37   19   21 ar
  38   20   22 ar
  39   20   39 1
  40   21   23 ar
  41   21   40 1
  42   22   23 ar
  43   22   41 1
  44   23   42 1
  45   24   43 1
  46   24   44 1
  47   24   45 1
  48   25   46 1
  49   25   47 1
  50   25   48 1

#	End of record

