#	Name: ASD01917128
#	Creating user name:	WinNT
#	Creation time:	15. 06. 2019 20:08

#	Modifying user name:	WinNT
#	Modification time:	15. 06. 2019 20:08

#	Program:	/corina/corina34_cracker 3.40 0067  02.08.2006

@<TRIPOS>MOLECULE
ASD01917128
  41   43    0    0    0
SMALL
NO_CHARGES


@<TRIPOS>ATOM
   1 C1            -0.0662     1.4714    -0.1213 C.ar    
   2 C2            -0.0189    -0.0054    -0.0551 C.2     
   3 N3            -0.9976    -0.7943     0.3363 N.2     
   4 C4            -0.6026    -2.0706     0.2681 C.2     
   5 N5             0.6373    -2.1116    -0.1693 N.2     
   6 N6             1.0363    -0.7837    -0.3917 N.pl3   
   7 C7             2.3402    -0.3298    -0.8819 C.3     
   8 C8             2.3272    -0.2982    -2.3885 C.2     
   9 Cl9            3.7435     0.2029    -3.2584 Cl      
  10 O10            1.3315    -0.6214    -2.9907 O.2     
  11 C11           -1.4294    -3.2494     0.6280 C.ar    
  12 C12            0.8403     2.1643    -0.9240 C.ar    
  13 C13           -0.9026    -4.5341     0.5134 C.ar    
  14 C14           -2.7333    -3.0750     1.0871 C.ar    
  15 C15           -3.4977    -4.1747     1.4204 C.ar    
  16 C16           -2.9717    -5.4482     1.2993 C.ar    
  17 C17           -1.6759    -5.6268     0.8494 C.ar    
  18 C18            0.7952     3.5419    -0.9850 C.ar    
  19 C19           -0.1499     4.2409    -0.2491 C.ar    
  20 C20           -1.0581     3.5546     0.5546 C.ar    
  21 C21           -1.0217     2.1742     0.6147 C.ar    
  22 O22           -0.1900     5.5981    -0.3115 O.3     
  23 C23            0.7704     6.2374    -1.1547 C.3     
  24 O24           -1.9838     4.2426     1.2751 O.3     
  25 C25           -2.8832     3.4747     2.0773 C.3     
  26 H26            2.5442     0.6702    -0.4992 H       
  27 H27            3.1157    -1.0150    -0.5395 H       
  28 H28            1.5776     1.6224    -1.4975 H       
  29 H29            0.1089    -4.6747     0.1619 H       
  30 H30           -3.1449    -2.0810     1.1824 H       
  31 H31           -4.5084    -4.0407     1.7767 H       
  32 H32           -3.5732    -6.3060     1.5615 H       
  33 H33           -1.2700    -6.6234     0.7567 H       
  34 H34            1.4975     4.0770    -1.6068 H       
  35 H35           -1.7252     1.6409     1.2369 H       
  36 H36            1.7755     5.9895    -0.8135 H       
  37 H37            0.6397     5.8930    -2.1805 H       
  38 H38            0.6286     7.3173    -1.1131 H       
  39 H39           -3.5674     4.1443     2.5984 H       
  40 H40           -3.4521     2.7985     1.4392 H       
  41 H41           -2.3161     2.8956     2.8060 H       
@<TRIPOS>BOND
   1    1    2 1
   2    1   12 ar
   3    1   21 ar
   4    2    3 2
   5    2    6 1
   6    3    4 1
   7    4    5 2
   8    4   11 1
   9    5    6 1
  10    6    7 1
  11    7    8 1
  12    7   26 1
  13    7   27 1
  14    8    9 1
  15    8   10 2
  16   11   13 ar
  17   11   14 ar
  18   12   18 ar
  19   12   28 1
  20   13   17 ar
  21   13   29 1
  22   14   15 ar
  23   14   30 1
  24   15   16 ar
  25   15   31 1
  26   16   17 ar
  27   16   32 1
  28   17   33 1
  29   18   19 ar
  30   18   34 1
  31   19   20 ar
  32   19   22 1
  33   20   21 ar
  34   20   24 1
  35   21   35 1
  36   22   23 1
  37   23   36 1
  38   23   37 1
  39   23   38 1
  40   24   25 1
  41   25   39 1
  42   25   40 1
  43   25   41 1

#	End of record

