#	Name: ASD01230119
#	Creating user name:	WinNT
#	Creation time:	15. 06. 2019 19:11

#	Modifying user name:	WinNT
#	Modification time:	15. 06. 2019 19:11

#	Program:	/corina/corina34_cracker 3.40 0067  02.08.2006

@<TRIPOS>MOLECULE
ASD01230119
  53   56    0    0    0
SMALL
NO_CHARGES


@<TRIPOS>ATOM
   1 N1             0.0171     1.1911    -0.4995 N.pl3   
   2 N2            -0.0085    -0.0953    -0.5380 N.2     
   3 C3             3.1790     0.6335     0.0080 C.ar    
   4 C4             2.2504     1.6141     0.3505 C.ar    
   5 C5             1.2075     2.0309    -0.6543 C.3     
   6 C6             4.1340     0.2348     0.8949 C.ar    
   7 C7             4.1845     0.8171     2.1677 C.ar    
   8 C8             3.2417     1.8157     2.5210 C.ar    
   9 C9             2.2700     2.2011     1.5778 C.ar    
  10 C10            5.1633     0.4276     3.1169 C.ar    
  11 C11            5.1491     1.0501     4.3575 C.ar    
  12 C12            4.1841     2.0271     4.6276 C.ar    
  13 N13            3.2815     2.3755     3.7304 N.ar    
  14 C14            4.1759     2.6872     5.9554 C.2     
  15 N15            3.2541     3.6303     6.2333 N.am    
  16 O16            5.0001     2.3779     6.7927 O.2     
  17 C17            6.1685    -0.6109     2.7949 C.ar    
  18 C18            7.5227    -0.3705     3.0293 C.ar    
  19 C19            8.4551    -1.3409     2.7278 C.ar    
  20 C20            8.0489    -2.5532     2.1927 C.ar    
  21 C21            6.7048    -2.7967     1.9580 C.ar    
  22 C22            5.7641    -1.8350     2.2616 C.ar    
  23 F23            8.9661    -3.5005     1.8985 F       
  24 N24           -1.2107    -0.5204    -0.3685 N.2     
  25 C25           -2.0232     0.5304    -0.2098 C.2     
  26 C26           -1.2452     1.6345    -0.2973 C.2     
  27 C27           -3.5127     0.4925     0.0163 C.3     
  28 O28           -3.8325     1.2171     1.2057 O.3     
  29 C29           -3.9690    -0.9602     0.1659 C.3     
  30 C30           -3.3100    -1.5771     1.4013 C.3     
  31 C31           -4.2261     1.1309    -1.1771 C.3     
  32 F32           -3.8303     0.4885    -2.3552 F       
  33 F33           -5.6099     1.0008    -1.0174 F       
  34 F34           -3.8906     2.4871    -1.2501 F       
  35 H35            3.1387     0.1801    -0.9714 H       
  36 H36            1.6063     1.9136    -1.6619 H       
  37 H37            0.9399     3.0745    -0.4886 H       
  38 H38            4.8480    -0.5266     0.6177 H       
  39 H39            1.5433     2.9601     1.8274 H       
  40 H40            5.8771     0.7822     5.1089 H       
  41 H41            2.5960     3.8773     5.5648 H       
  42 H42            3.2486     4.0622     7.1019 H       
  43 H43            7.8403     0.5739     3.4459 H       
  44 H44            9.5037    -1.1557     2.9085 H       
  45 H45            6.3932    -3.7429     1.5410 H       
  46 H46            4.7170    -2.0256     2.0783 H       
  47 H47           -1.5663     2.6624    -0.2156 H       
  48 H48           -3.4137     0.8673     2.0040 H       
  49 H49           -5.0527    -0.9908     0.2787 H       
  50 H50           -3.6798    -1.5250    -0.7204 H       
  51 H51           -2.2288    -1.5972     1.2645 H       
  52 H52           -3.5541    -0.9798     2.2797 H       
  53 H53           -3.6777    -2.5938     1.5396 H       
@<TRIPOS>BOND
   1    1    2 1
   2    1    5 1
   3    1   26 1
   4    2   24 2
   5    3    4 ar
   6    3    6 ar
   7    3   35 1
   8    4    5 1
   9    4    9 ar
  10    5   36 1
  11    5   37 1
  12    6    7 ar
  13    6   38 1
  14    7    8 ar
  15    7   10 ar
  16    8    9 ar
  17    8   13 ar
  18    9   39 1
  19   10   11 ar
  20   10   17 1
  21   11   12 ar
  22   11   40 1
  23   12   13 ar
  24   12   14 1
  25   14   15 am
  26   14   16 2
  27   15   41 1
  28   15   42 1
  29   17   18 ar
  30   17   22 ar
  31   18   19 ar
  32   18   43 1
  33   19   20 ar
  34   19   44 1
  35   20   21 ar
  36   20   23 1
  37   21   22 ar
  38   21   45 1
  39   22   46 1
  40   24   25 1
  41   25   26 2
  42   25   27 1
  43   26   47 1
  44   27   31 1
  45   27   28 1
  46   27   29 1
  47   28   48 1
  48   29   30 1
  49   29   49 1
  50   29   50 1
  51   30   51 1
  52   30   52 1
  53   30   53 1
  54   31   32 1
  55   31   33 1
  56   31   34 1

#	End of record

