#	Name: ASD06660086
#	Creating user name:	WinNT
#	Creation time:	15. 06. 2019 21:08

#	Modifying user name:	WinNT
#	Modification time:	15. 06. 2019 21:08

#	Program:	/corina/corina34_cracker 3.40 0067  02.08.2006

@<TRIPOS>MOLECULE
ASD06660086
  73   76    0    0    0
SMALL
NO_CHARGES


@<TRIPOS>ATOM
   1 C1            -1.4543     1.6363     0.2960 C.2     
   2 C2            -1.2000     0.3243    -0.4005 C.3     
   3 C3            -1.9517     0.3001    -1.7329 C.3     
   4 O4            -0.5307     2.3694     0.5593 O.2     
   5 O5            -2.7074     1.9929     0.6189 O.3     
   6 C6            -1.8113    -1.0611    -2.3642 C.ar    
   7 C7            -2.6851    -2.0755    -2.0180 C.ar    
   8 C8            -2.5593    -3.3241    -2.5946 C.ar    
   9 C9            -1.5537    -3.5604    -3.5233 C.ar    
  10 C10           -0.6777    -2.5391    -3.8687 C.ar    
  11 C11           -0.8126    -1.2913    -3.2925 C.ar    
  12 N12           -1.4233    -4.8221    -4.1080 N.3     
  13 C13           -2.7438    -5.4344    -4.3433 C.3     
  14 C14           -2.8338    -5.7629    -5.8484 C.3     
  15 C15           -1.3453    -5.8401    -6.2789 C.3     
  16 C16           -0.7074    -4.7365    -5.3987 C.3     
  17 C17           -3.5309    -7.1070    -6.0681 C.3     
  18 N18           -3.7085    -7.3361    -7.5041 N.pl3   
  19 C19           -4.3229    -8.4999    -7.9515 C.ar    
  20 C20           -4.7669    -9.4432    -7.0300 C.ar    
  21 C21           -5.3764   -10.5967    -7.4890 C.ar    
  22 C22           -5.5223   -10.7690    -8.8594 C.ar    
  23 C23           -5.0584    -9.7920    -9.7168 C.ar    
  24 N24           -4.4853    -8.6985    -9.2503 N.ar    
  25 C25            1.0613    -0.1663     0.3631 C.2     
  26 C26            2.4927    -0.4210     0.0946 C.ar    
  27 C27            2.9515    -1.7278    -0.0796 C.ar    
  28 C28            4.2882    -1.9586    -0.3303 C.ar    
  29 C29            5.1737    -0.8981    -0.4087 C.ar    
  30 C30            4.7255     0.3994    -0.2370 C.ar    
  31 C31            3.3900     0.6444     0.0086 C.ar    
  32 O32            0.6287    -0.2625     1.4950 O.2     
  33 N33            0.2361     0.1727    -0.6472 N.am    
  34 C34            6.6328    -1.1578    -0.6819 C.3     
  35 F35            6.8582    -1.1451    -2.0625 F       
  36 F36            7.4054    -0.1623    -0.0741 F       
  37 F37            6.9893    -2.4069    -0.1626 F       
  38 C38            2.9026     2.0588     0.1897 C.3     
  39 C39            1.9888    -2.8840     0.0064 C.3     
  40 C40            1.3160    -3.0897    -1.3523 C.3     
  41 H41           -1.5490    -0.4946     0.2285 H       
  42 H42           -3.0064     0.5129    -1.5589 H       
  43 H43           -1.5339     1.0546    -2.3995 H       
  44 H44           -2.8207     2.8435     1.0647 H       
  45 H45           -3.4665    -1.8912    -1.2956 H       
  46 H46           -3.2418    -4.1160    -2.3235 H       
  47 H47            0.1053    -2.7195    -4.5904 H       
  48 H48           -0.1348    -0.4956    -3.5642 H       
  49 H49           -2.8380    -6.3490    -3.7579 H       
  50 H50           -3.5319    -4.7331    -4.0690 H       
  51 H51           -3.3498    -4.9675    -6.3863 H       
  52 H52           -0.9221    -6.8175    -6.0474 H       
  53 H53           -1.2327    -5.6085    -7.3381 H       
  54 H54           -0.8571    -3.7563    -5.8514 H       
  55 H55            0.3556    -4.9315    -5.2568 H       
  56 H56           -2.9214    -7.9057    -5.6454 H       
  57 H57           -4.5048    -7.0955    -5.5788 H       
  58 H58           -3.3974    -6.6756    -8.1427 H       
  59 H59           -4.6369    -9.2771    -5.9708 H       
  60 H60           -5.7307   -11.3467    -6.7974 H       
  61 H61           -5.9936   -11.6587    -9.2501 H       
  62 H62           -5.1698    -9.9220   -10.7832 H       
  63 H63            4.6444    -2.9691    -0.4653 H       
  64 H64            5.4218     1.2226    -0.2994 H       
  65 H65            0.5931     0.3163    -1.5376 H       
  66 H66            2.9627     2.3317     1.2433 H       
  67 H67            3.5242     2.7353    -0.3969 H       
  68 H68            1.8682     2.1325    -0.1462 H       
  69 H69            2.5306    -3.7881     0.2842 H       
  70 H70            1.2299    -2.6696     0.7589 H       
  71 H71            2.0621    -3.3998    -2.0839 H       
  72 H72            0.5500    -3.8603    -1.2655 H       
  73 H73            0.8567    -2.1555    -1.6754 H       
@<TRIPOS>BOND
   1    1    2 1
   2    1    4 2
   3    1    5 1
   4    2    3 1
   5    2   33 1
   6    2   41 1
   7    3    6 1
   8    3   42 1
   9    3   43 1
  10    5   44 1
  11    6    7 ar
  12    6   11 ar
  13    7    8 ar
  14    7   45 1
  15    8    9 ar
  16    8   46 1
  17    9   10 ar
  18    9   12 1
  19   10   11 ar
  20   10   47 1
  21   11   48 1
  22   12   13 1
  23   12   16 1
  24   13   14 1
  25   13   49 1
  26   13   50 1
  27   14   15 1
  28   14   17 1
  29   14   51 1
  30   15   16 1
  31   15   52 1
  32   15   53 1
  33   16   54 1
  34   16   55 1
  35   17   18 1
  36   17   56 1
  37   17   57 1
  38   18   19 1
  39   18   58 1
  40   19   20 ar
  41   19   24 ar
  42   20   21 ar
  43   20   59 1
  44   21   22 ar
  45   21   60 1
  46   22   23 ar
  47   22   61 1
  48   23   24 ar
  49   23   62 1
  50   25   26 1
  51   25   32 2
  52   25   33 am
  53   26   27 ar
  54   26   31 ar
  55   27   28 ar
  56   27   39 1
  57   28   29 ar
  58   28   63 1
  59   29   30 ar
  60   29   34 1
  61   30   31 ar
  62   30   64 1
  63   31   38 1
  64   33   65 1
  65   34   35 1
  66   34   36 1
  67   34   37 1
  68   38   66 1
  69   38   67 1
  70   38   68 1
  71   39   40 1
  72   39   69 1
  73   39   70 1
  74   40   71 1
  75   40   72 1
  76   40   73 1

#	End of record

