#	Name: ASD01881319
#	Creating user name:	WinNT
#	Creation time:	15. 06. 2019 19:42

#	Modifying user name:	WinNT
#	Modification time:	15. 06. 2019 19:42

#	Program:	/corina/corina34_cracker 3.40 0067  02.08.2006

@<TRIPOS>MOLECULE
ASD01881319
  55   59    0    0    0
SMALL
NO_CHARGES


@<TRIPOS>ATOM
   1 C1            -0.0167     1.3792     0.0096 C.2     
   2 C2             0.0021    -0.0041     0.0020 C.2     
   3 C3            -1.2232    -0.7132     0.0099 C.2     
   4 C4            -2.3914    -0.0450     0.0246 C.2     
   5 N5            -2.4195     1.3213     0.0317 N.pl3   
   6 C6            -1.2556     2.0465     0.0309 C.2     
   7 C7            -3.4509     2.2222     0.0454 C.2     
   8 C8            -2.9029     3.4572     0.0462 C.2     
   9 N9            -1.5738     3.3345     0.0383 N.2     
  10 C10            1.2901    -0.7352    -0.0147 C.ar    
  11 C11            1.6582    -1.5293     1.0693 C.ar    
  12 C12            2.8596    -2.2133     1.0568 C.ar    
  13 C13            3.7069    -2.1045    -0.0353 C.ar    
  14 C14            3.3368    -1.3113    -1.1231 C.ar    
  15 C15            2.1380    -0.6365    -1.1186 C.ar    
  16 Cl16           1.4676     2.2795     0.0003 Cl      
  17 C17           -4.9223     1.8967     0.0569 C.3     
  18 C18            4.7007    -3.4070     2.2219 C.3     
  19 N19            4.9373    -2.7581    -0.0892 N.3     
  20 C20            5.2089    -3.2584    -1.4434 C.3     
  21 C21            6.5031    -4.0744    -1.4356 C.3     
  22 C22            6.7859    -4.5954    -2.8461 C.3     
  23 C23            5.6265    -5.4825    -3.3041 C.3     
  24 C24            4.3323    -4.6665    -3.3119 C.3     
  25 C25            4.0494    -4.1454    -1.9014 C.3     
  26 O26            5.8907    -5.9691    -4.6215 O.3     
  27 O27            5.0405    -3.8314     0.8957 O.3     
  28 C28            3.2072    -3.0742     2.2451 C.3     
  29 C29           -5.4602     1.9165    -1.3753 C.3     
  30 F30           -4.7783     0.9661    -2.1427 F       
  31 F31           -6.8261     1.6144    -1.3647 F       
  32 F32           -5.2679     3.1872    -1.9281 F       
  33 H33           -1.2204    -1.7932     0.0037 H       
  34 H34           -3.3199    -0.5965     0.0304 H       
  35 H35           -3.4493     4.3887     0.0556 H       
  36 H36            1.0022    -1.6107     1.9234 H       
  37 H37            3.9945    -1.2302    -1.9759 H       
  38 H38            1.8578    -0.0250    -1.9635 H       
  39 H39           -5.0721     0.9067     0.4876 H       
  40 H40           -5.4535     2.6372     0.6548 H       
  41 H41            4.9104    -4.2086     2.9302 H       
  42 H42            5.2795    -2.5216     2.4849 H       
  43 H43            5.3143    -2.4163    -2.1274 H       
  44 H44            7.3291    -3.4424    -1.1093 H       
  45 H45            6.3976    -4.9164    -0.7516 H       
  46 H46            6.8914    -3.7534    -3.5302 H       
  47 H47            7.7080    -5.1767    -2.8406 H       
  48 H48            5.5210    -6.3245    -2.6201 H       
  49 H49            4.4377    -3.8244    -3.9959 H       
  50 H50            3.5063    -5.2984    -3.6382 H       
  51 H51            3.9440    -4.9875    -1.2174 H       
  52 H52            3.1274    -3.5641    -1.9069 H       
  53 H53            5.1956    -6.5399    -4.9766 H       
  54 H54            2.9694    -2.5376     3.1636 H       
  55 H55            2.6293    -3.9975     2.2054 H       
@<TRIPOS>BOND
   1    1    2 2
   2    1   16 1
   3    1    6 1
   4    2    3 1
   5    2   10 1
   6    3    4 2
   7    3   33 1
   8    4    5 1
   9    4   34 1
  10    5    6 1
  11    5    7 1
  12    6    9 2
  13    7    8 2
  14    7   17 1
  15    8    9 1
  16    8   35 1
  17   10   11 ar
  18   10   15 ar
  19   11   12 ar
  20   11   36 1
  21   12   13 ar
  22   12   28 1
  23   13   14 ar
  24   13   19 1
  25   14   15 ar
  26   14   37 1
  27   15   38 1
  28   17   29 1
  29   17   39 1
  30   17   40 1
  31   18   27 1
  32   18   28 1
  33   18   41 1
  34   18   42 1
  35   19   20 1
  36   19   27 1
  37   20   21 1
  38   20   25 1
  39   20   43 1
  40   21   22 1
  41   21   44 1
  42   21   45 1
  43   22   23 1
  44   22   46 1
  45   22   47 1
  46   23   24 1
  47   23   26 1
  48   23   48 1
  49   24   25 1
  50   24   49 1
  51   24   50 1
  52   25   51 1
  53   25   52 1
  54   26   53 1
  55   28   54 1
  56   28   55 1
  57   29   30 1
  58   29   31 1
  59   29   32 1

#	End of record

