#	Name: ASD01916978
#	Creating user name:	WinNT
#	Creation time:	15. 06. 2019 20:08

#	Modifying user name:	WinNT
#	Modification time:	15. 06. 2019 20:08

#	Program:	/corina/corina34_cracker 3.40 0067  02.08.2006

@<TRIPOS>MOLECULE
ASD01916978
  67   71    0    0    0
SMALL
NO_CHARGES


@<TRIPOS>ATOM
   1 C1            -0.1274     1.9075     1.1799 C.ar    
   2 C2            -0.1463     0.5926     1.6183 C.ar    
   3 C3             1.0492    -0.0853     1.8451 C.ar    
   4 C4             2.2569     0.5540     1.6328 C.ar    
   5 C5             2.2747     1.8762     1.1920 C.ar    
   6 C6             1.0760     2.5494     0.9668 C.ar    
   7 C7             3.5685     2.5660     0.9635 C.2     
   8 N8             4.7792     2.0268     1.1440 N.2     
   9 N9             3.7108     3.8053     0.5449 N.2     
  10 N10            5.0906     4.0535     0.4651 N.pl3   
  11 C11            5.7076     2.9120     0.8493 C.2     
  12 C12            7.1698     2.6968     0.9252 C.ar    
  13 C13            5.7349     5.3005     0.0454 C.3     
  14 C14            5.8396     6.2333     1.2243 C.2     
  15 O15            5.4176     5.8903     2.3084 O.2     
  16 N16            6.4021     7.4488     1.0741 N.am    
  17 C17            6.5143     8.3746     2.2114 C.3     
  18 C18            7.9654     8.8582     2.3041 C.3     
  19 N19            8.3767     9.4139     1.0080 N.3     
  20 C20            8.3553     8.3876    -0.0428 C.3     
  21 C21            6.9256     7.8823    -0.2303 C.3     
  22 C22            9.6294    10.0101     1.0966 C.ar    
  23 C23            7.6897     1.4027     0.8968 C.ar    
  24 C24            9.7650    11.3704     0.8397 C.ar    
  25 N25           10.6820     9.2790     1.4300 N.ar    
  26 C26           11.8879     9.8057     1.5256 C.ar    
  27 C27           12.0956    11.1483     1.2797 C.ar    
  28 C28           11.0174    11.9508     0.9319 C.ar    
  29 O29           -1.3335    -0.0362     1.8276 O.3     
  30 C30           -2.5206     0.7184     1.5756 C.3     
  31 C31            9.0539     1.2087     0.9675 C.ar    
  32 C32            9.9057     2.2943     1.0668 C.ar    
  33 C33            9.3963     3.5802     1.0954 C.ar    
  34 C34            8.0342     3.7876     1.0197 C.ar    
  35 O35            1.0287    -1.3752     2.2756 O.3     
  36 C36            2.2920    -2.0085     2.4876 C.3     
  37 C37            8.5641    12.2004     0.4656 C.3     
  38 F38            8.9703    13.5106     0.1903 F       
  39 F39            7.9540    11.6533    -0.6682 F       
  40 F40            7.6533    12.2080     1.5275 F       
  41 H41           -1.0558     2.4293     1.0005 H       
  42 H42            3.1847     0.0298     1.8086 H       
  43 H43            1.0882     3.5739     0.6252 H       
  44 H44            6.7327     5.0835    -0.3360 H       
  45 H45            5.1407     5.7706    -0.7382 H       
  46 H46            5.8533     9.2273     2.0560 H       
  47 H47            6.2407     7.8587     3.1318 H       
  48 H48            8.0438     9.6284     3.0715 H       
  49 H49            8.6124     8.0199     2.5623 H       
  50 H50            8.7164     8.8165    -0.9775 H       
  51 H51            8.9968     7.5558     0.2481 H       
  52 H52            6.9223     7.0426    -0.9253 H       
  53 H53            6.3012     8.6863    -0.6199 H       
  54 H54            7.0257     0.5544     0.8200 H       
  55 H55           12.7232     9.1786     1.8001 H       
  56 H56           13.0863    11.5708     1.3609 H       
  57 H57           11.1537    13.0039     0.7347 H       
  58 H58           -3.3945     0.1004     1.7814 H       
  59 H59           -2.5366     1.5967     2.2210 H       
  60 H60           -2.5361     1.0338     0.5324 H       
  61 H61            9.4577     0.2072     0.9456 H       
  62 H62           10.9727     2.1372     1.1225 H       
  63 H63           10.0663     4.4236     1.1734 H       
  64 H64            7.6377     4.7919     1.0421 H       
  65 H65            2.8538    -2.0204     1.5536 H       
  66 H66            2.8529    -1.4568     3.2420 H       
  67 H67            2.1329    -3.0314     2.8289 H       
@<TRIPOS>BOND
   1    1    2 ar
   2    1    6 ar
   3    1   41 1
   4    2    3 ar
   5    2   29 1
   6    3    4 ar
   7    3   35 1
   8    4    5 ar
   9    4   42 1
  10    5    6 ar
  11    5    7 1
  12    6   43 1
  13    7    8 1
  14    7    9 2
  15    8   11 2
  16    9   10 1
  17   10   11 1
  18   10   13 1
  19   11   12 1
  20   12   23 ar
  21   12   34 ar
  22   13   14 1
  23   13   44 1
  24   13   45 1
  25   14   15 2
  26   14   16 am
  27   16   17 1
  28   16   21 1
  29   17   18 1
  30   17   46 1
  31   17   47 1
  32   18   19 1
  33   18   48 1
  34   18   49 1
  35   19   20 1
  36   19   22 1
  37   20   21 1
  38   20   50 1
  39   20   51 1
  40   21   52 1
  41   21   53 1
  42   22   25 ar
  43   22   24 ar
  44   23   31 ar
  45   23   54 1
  46   24   37 1
  47   24   28 ar
  48   25   26 ar
  49   26   27 ar
  50   26   55 1
  51   27   28 ar
  52   27   56 1
  53   28   57 1
  54   29   30 1
  55   30   58 1
  56   30   59 1
  57   30   60 1
  58   31   32 ar
  59   31   61 1
  60   32   33 ar
  61   32   62 1
  62   33   34 ar
  63   33   63 1
  64   34   64 1
  65   35   36 1
  66   36   65 1
  67   36   66 1
  68   36   67 1
  69   37   38 1
  70   37   39 1
  71   37   40 1

#	End of record

