#	Name: ASD01901311
#	Creating user name:	WinNT
#	Creation time:	15. 06. 2019 19:53

#	Modifying user name:	WinNT
#	Modification time:	15. 06. 2019 19:53

#	Program:	/corina/corina34_cracker 3.40 0067  02.08.2006

@<TRIPOS>MOLECULE
ASD01901311
  41   44    0    0    0
SMALL
NO_CHARGES


@<TRIPOS>ATOM
   1 C1            -0.0166     1.3754     0.0096 C.ar    
   2 C2             0.0021    -0.0041     0.0020 C.ar    
   3 C3             1.2102    -0.6825    -0.0127 C.ar    
   4 C4             2.4037     0.0204    -0.0199 C.ar    
   5 C5             2.3942     1.4005    -0.0128 C.ar    
   6 C6             1.1818     2.0866     0.0020 C.ar    
   7 C7             1.1666     3.5707     0.0096 C.2     
   8 N8             0.8493     5.5878     1.1949 N.2     
   9 C9             0.8610     4.2773     1.1931 C.2     
  10 C10            1.4537     4.2725    -1.1275 C.2     
  11 C11            1.1246     6.2847     0.0821 C.2     
  12 N12            1.1737     7.5882    -0.1535 N.2     
  13 N13            1.4312     5.6352    -1.0858 N.pl3   
  14 C14            1.6667     6.5953    -2.0328 C.2     
  15 C15            1.5014     7.7932    -1.4327 C.2     
  16 C16            1.6605     9.1375    -2.0949 C.3     
  17 O17            2.0149     8.9537    -3.4670 O.3     
  18 C18            2.1974    10.0751    -4.2126 C.ar    
  19 C19            2.0441    11.3267    -3.6341 C.ar    
  20 C20            2.5427     9.9702    -5.5522 C.ar    
  21 C21            2.7275    11.1117    -6.3080 C.ar    
  22 C22            2.5691    12.3579    -5.7305 C.ar    
  23 C23            2.2301    12.4651    -4.3943 C.ar    
  24 C24           -1.3312     2.1122     0.0198 C.3     
  25 F25            1.2240    -2.0334    -0.0196 F       
  26 H26           -0.9262    -0.5560     0.0079 H       
  27 H27            3.3432    -0.5122    -0.0306 H       
  28 H28            3.3252     1.9478    -0.0180 H       
  29 H29            0.6358     3.7360     2.1000 H       
  30 H30            1.6949     3.7558    -2.0447 H       
  31 H31            1.9342     6.4263    -3.0654 H       
  32 H32            0.7210     9.6866    -2.0327 H       
  33 H33            2.4448     9.7009    -1.5894 H       
  34 H34            1.7793    11.4110    -2.5905 H       
  35 H35            2.6673     8.9971    -6.0036 H       
  36 H36            2.9964    11.0306    -7.3509 H       
  37 H37            2.7144    13.2491    -6.3230 H       
  38 H38            2.1109    13.4397    -3.9444 H       
  39 H39           -1.6433     2.2843     1.0500 H       
  40 H40           -1.2154     3.0690    -0.4893 H       
  41 H41           -2.0857     1.5163    -0.4937 H       
@<TRIPOS>BOND
   1    1    2 ar
   2    1    6 ar
   3    1   24 1
   4    2    3 ar
   5    2   26 1
   6    3    4 ar
   7    3   25 1
   8    4    5 ar
   9    4   27 1
  10    5    6 ar
  11    5   28 1
  12    6    7 1
  13    7   10 2
  14    7    9 1
  15    8    9 2
  16    8   11 1
  17    9   29 1
  18   10   13 1
  19   10   30 1
  20   11   13 1
  21   11   12 2
  22   12   15 1
  23   13   14 1
  24   14   15 2
  25   14   31 1
  26   15   16 1
  27   16   17 1
  28   16   32 1
  29   16   33 1
  30   17   18 1
  31   18   20 ar
  32   18   19 ar
  33   19   23 ar
  34   19   34 1
  35   20   21 ar
  36   20   35 1
  37   21   22 ar
  38   21   36 1
  39   22   23 ar
  40   22   37 1
  41   23   38 1
  42   24   39 1
  43   24   40 1
  44   24   41 1

#	End of record

