#	Name: ASD01883958
#	Creating user name:	WinNT
#	Creation time:	15. 06. 2019 19:47

#	Modifying user name:	WinNT
#	Modification time:	15. 06. 2019 19:47

#	Program:	/corina/corina34_cracker 3.40 0067  02.08.2006

@<TRIPOS>MOLECULE
ASD01883958
  56   60    0    0    0
SMALL
NO_CHARGES


@<TRIPOS>ATOM
   1 C1            -1.7807     1.6428     1.2968 C.3     
   2 C2            -1.9552     0.1517     1.0018 C.3     
   3 C3            -1.9247    -0.0770    -0.5117 C.3     
   4 O4            -0.6433     0.3031    -1.0205 O.3     
   5 C5             0.4455    -0.4137    -0.4323 C.3     
   6 C6             0.4390    -0.1884     1.0820 C.3     
   7 N7            -0.8609    -0.6040     1.6285 N.3     
   8 C8            -0.8889    -0.4569     3.0899 C.3     
   9 C9            -0.0038    -1.5028     3.7172 C.2     
  10 C10           -0.2394    -2.8663     3.4708 C.2     
  11 C11            0.5503    -3.8070     4.0301 C.2     
  12 N12            1.5865    -3.4484     4.8410 N.pl3   
  13 C13            2.5278    -4.1503     5.5285 C.2     
  14 C14            2.6707    -5.6500     5.5651 C.3     
  15 C15            3.5962    -6.1019     4.4336 C.3     
  16 C16            4.9136    -6.7746     4.8245 C.3     
  17 C17            3.7772    -7.6071     4.2275 C.3     
  18 N18            3.2862    -3.2856     6.1516 N.2     
  19 N19            2.8902    -2.0862     5.9060 N.2     
  20 C20            1.8414    -2.1240     5.1003 C.2     
  21 C21            1.0296    -1.1307     4.5195 C.2     
  22 C22            1.2991     0.3275     4.7884 C.3     
  23 F23            0.3469     0.8195     5.6876 F       
  24 F24            2.5776     0.4718     5.3378 F       
  25 F25            1.2229     1.0446     3.5897 F       
  26 C26           -3.2746    -0.3199     1.5564 C.ar    
  27 C27           -4.1016     0.5659     2.2203 C.ar    
  28 C28           -5.3122     0.1334     2.7293 C.ar    
  29 C29           -5.6965    -1.1853     2.5752 C.ar    
  30 C30           -4.8707    -2.0733     1.9119 C.ar    
  31 C31           -3.6614    -1.6399     1.3960 C.ar    
  32 F32           -2.8561    -2.5056     0.7422 F       
  33 H33           -0.8269     1.9837     0.8940 H       
  34 H34           -2.5922     2.2026     0.8318 H       
  35 H35           -1.7986     1.8045     2.3746 H       
  36 H36           -2.1025    -1.1313    -0.7241 H       
  37 H37           -2.6984     0.5262    -0.9866 H       
  38 H38            0.3366    -1.4777    -0.6424 H       
  39 H39            1.3859    -0.0540    -0.8498 H       
  40 H40            1.2323    -0.7783     1.5411 H       
  41 H41            0.6016     0.8685     1.2934 H       
  42 H42           -0.5284     0.5351     3.3621 H       
  43 H43           -1.9106    -0.5831     3.4482 H       
  44 H44           -1.0571    -3.1629     2.8306 H       
  45 H45            0.3600    -4.8519     3.8342 H       
  46 H46            3.0943    -5.9514     6.5232 H       
  47 H47            1.6913    -6.1116     5.4396 H       
  48 H48            3.5979    -5.4686     3.5464 H       
  49 H49            5.7824    -6.5839     4.1945 H       
  50 H50            5.1210    -6.8953     5.8877 H       
  51 H51            3.2369    -8.2754     4.8979 H       
  52 H52            3.8983    -7.9640     3.2047 H       
  53 H53           -3.8020     1.5963     2.3420 H       
  54 H54           -5.9579     0.8265     3.2481 H       
  55 H55           -6.6422    -1.5221     2.9735 H       
  56 H56           -5.1709    -3.1039     1.7921 H       
@<TRIPOS>BOND
   1    1    2 1
   2    1   33 1
   3    1   34 1
   4    1   35 1
   5    2    7 1
   6    2    3 1
   7    2   26 1
   8    3    4 1
   9    3   36 1
  10    3   37 1
  11    4    5 1
  12    5    6 1
  13    5   38 1
  14    5   39 1
  15    6    7 1
  16    6   40 1
  17    6   41 1
  18    7    8 1
  19    8    9 1
  20    8   42 1
  21    8   43 1
  22    9   21 2
  23    9   10 1
  24   10   11 2
  25   10   44 1
  26   11   12 1
  27   11   45 1
  28   12   20 1
  29   12   13 1
  30   13   14 1
  31   13   18 2
  32   14   15 1
  33   14   46 1
  34   14   47 1
  35   15   17 1
  36   15   16 1
  37   15   48 1
  38   16   17 1
  39   16   49 1
  40   16   50 1
  41   17   51 1
  42   17   52 1
  43   18   19 1
  44   19   20 2
  45   20   21 1
  46   21   22 1
  47   22   23 1
  48   22   24 1
  49   22   25 1
  50   26   31 ar
  51   26   27 ar
  52   27   28 ar
  53   27   53 1
  54   28   29 ar
  55   28   54 1
  56   29   30 ar
  57   29   55 1
  58   30   31 ar
  59   30   56 1
  60   31   32 1

#	End of record

