#	Name: ASD01150759
#	Creating user name:	WinNT
#	Creation time:	15. 06. 2019 19:05

#	Modifying user name:	WinNT
#	Modification time:	15. 06. 2019 19:05

#	Program:	/corina/corina34_cracker 3.40 0067  02.08.2006

@<TRIPOS>MOLECULE
ASD01150759
  45   48    0    0    0
SMALL
NO_CHARGES


@<TRIPOS>ATOM
   1 C1            -0.1194     1.6030    -0.0748 C.2     
   2 C2            -0.7530     1.2997    -1.4080 C.3     
   3 N3             3.5103     2.2952     0.1235 N.ar    
   4 C4             2.3699     1.6587     0.0696 C.ar    
   5 C5             1.1446     2.3450    -0.0153 C.ar    
   6 C6             1.1465     3.7513    -0.0429 C.ar    
   7 C7             2.3998     4.4095     0.0172 C.ar    
   8 C8             2.4844     5.8073    -0.0050 C.ar    
   9 C9             3.7222     6.4138     0.0557 C.ar    
  10 C10            4.8864     5.6426     0.1383 C.ar    
  11 C11            4.8259     4.2834     0.1612 C.ar    
  12 C12            3.5820     3.6331     0.1014 C.ar    
  13 C13           -0.1149     4.5158    -0.1319 C.ar    
  14 C14           -1.0419     4.4636     0.9114 C.ar    
  15 C15           -2.2171     5.1801     0.8219 C.ar    
  16 C16           -2.4788     5.9491    -0.2984 C.ar    
  17 C17           -1.5649     6.0050    -1.3361 C.ar    
  18 C18           -0.3829     5.2985    -1.2571 C.ar    
  19 C19            2.3675     0.1520     0.0985 C.3     
  20 N20            3.8135     7.8069     0.0339 N.3     
  21 C21            2.6994     8.4213     0.7798 C.3     
  22 C22            3.7104     9.4226     1.3558 C.3     
  23 C23            4.7172     8.2939     1.0928 C.3     
  24 O24            3.9092    10.5840     0.5473 O.3     
  25 F25           -2.0605     1.7969    -1.4269 F       
  26 F26           -0.0091     1.9051    -2.4264 F       
  27 F27           -0.7776    -0.0847    -1.6085 F       
  28 O28           -0.6572     1.2379     0.9495 O.2     
  29 H29            1.5878     6.4058    -0.0695 H       
  30 H30            5.8475     6.1332     0.1844 H       
  31 H31            5.7350     3.7040     0.2249 H       
  32 H32           -0.8392     3.8633     1.7861 H       
  33 H33           -2.9348     5.1407     1.6279 H       
  34 H34           -3.4007     6.5078    -0.3635 H       
  35 H35           -1.7758     6.6065    -2.2079 H       
  36 H36            0.3315     5.3465    -2.0656 H       
  37 H37            2.3862    -0.1915     1.1328 H       
  38 H38            1.4674    -0.2193    -0.3914 H       
  39 H39            3.2471    -0.2229    -0.4248 H       
  40 H40            1.9491     8.8826     0.1376 H       
  41 H41            2.2644     7.7625     1.5313 H       
  42 H42            3.5611     9.6505     2.4112 H       
  43 H43            4.8207     7.6011     1.9279 H       
  44 H44            5.6770     8.6473     0.7160 H       
  45 H45            4.5465    11.2131     0.9124 H       
@<TRIPOS>BOND
   1    1    2 1
   2    1    5 1
   3    1   28 2
   4    2   25 1
   5    2   26 1
   6    2   27 1
   7    3    4 ar
   8    3   12 ar
   9    4    5 ar
  10    4   19 1
  11    5    6 ar
  12    6    7 ar
  13    6   13 1
  14    7    8 ar
  15    7   12 ar
  16    8    9 ar
  17    8   29 1
  18    9   10 ar
  19    9   20 1
  20   10   11 ar
  21   10   30 1
  22   11   12 ar
  23   11   31 1
  24   13   14 ar
  25   13   18 ar
  26   14   15 ar
  27   14   32 1
  28   15   16 ar
  29   15   33 1
  30   16   17 ar
  31   16   34 1
  32   17   18 ar
  33   17   35 1
  34   18   36 1
  35   19   37 1
  36   19   38 1
  37   19   39 1
  38   20   21 1
  39   20   23 1
  40   21   22 1
  41   21   40 1
  42   21   41 1
  43   22   23 1
  44   22   24 1
  45   22   42 1
  46   23   43 1
  47   23   44 1
  48   24   45 1

#	End of record

