#	Name: ASD01816388
#	Creating user name:	WinNT
#	Creation time:	15. 06. 2019 19:35

#	Modifying user name:	WinNT
#	Modification time:	15. 06. 2019 19:35

#	Program:	/corina/corina34_cracker 3.40 0067  02.08.2006

@<TRIPOS>MOLECULE
ASD01816388
  52   57    0    0    0
SMALL
NO_CHARGES


@<TRIPOS>ATOM
   1 C1            -0.0167     1.3813     0.0096 C.ar    
   2 C2             0.0021    -0.0041     0.0020 C.ar    
   3 C3             1.1983    -0.6909    -0.0131 C.ar    
   4 C4             2.4015     0.0059    -0.0203 C.ar    
   5 C5             2.3790     1.4106    -0.0126 C.ar    
   6 C6             1.1663     2.0917     0.0022 C.ar    
   7 N7             3.6052    -0.6772    -0.0345 N.pl3   
   8 C8             4.7970    -0.0585    -0.0416 C.2     
   9 C9             4.8999     1.3103    -0.0356 C.2     
  10 C10            3.6670     2.1301    -0.0205 C.2     
  11 C11            5.9971     2.2730    -0.0410 C.2     
  12 N12            5.4245     3.4961    -0.0304 N.am    
  13 N13            4.0323     3.3800    -0.0182 N.2     
  14 O14            7.1912     2.0231    -0.0524 O.2     
  15 C15            3.5779    -2.1419    -0.0416 C.3     
  16 C16            3.5558    -2.6370    -1.4648 C.ar    
  17 C17            4.7437    -2.8861    -2.1272 C.ar    
  18 C18            4.7267    -3.3395    -3.4317 C.ar    
  19 C19            3.5152    -3.5456    -4.0778 C.ar    
  20 C20            2.3241    -3.2951    -3.4099 C.ar    
  21 C21            2.3475    -2.8467    -2.1037 C.ar    
  22 N22            3.4947    -4.0053    -5.4019 N.pl3   
  23 C23            2.3900    -4.2463    -6.1437 C.2     
  24 C24            2.7969    -4.6752    -7.3609 C.2     
  25 C25            4.1959    -4.6976    -7.3642 C.2     
  26 N26            4.6150    -4.2906    -6.1931 N.2     
  27 C27            6.1234     4.7031    -0.0315 C.ar    
  28 C28            7.0593     4.9660    -1.0218 C.ar    
  29 C29            7.7502     6.1618    -1.0211 C.ar    
  30 C30            7.5161     7.1061    -0.0354 C.ar    
  31 C31            6.5897     6.8626     0.9562 C.ar    
  32 C32            5.8793     5.6602     0.9657 C.ar    
  33 C33            4.9154     5.4011     1.9924 C.1     
  34 N34            4.1507     5.1955     2.8070 N.1     
  35 H35           -0.9602     1.9068     0.0169 H       
  36 H36           -0.9289    -0.5515     0.0083 H       
  37 H37            1.2003    -1.7709    -0.0189 H       
  38 H38            1.1506     3.1715     0.0077 H       
  39 H39            5.6983    -0.6535    -0.0519 H       
  40 H40            4.4654    -2.5243     0.4624 H       
  41 H41            2.6859    -2.4911     0.4785 H       
  42 H42            5.6858    -2.7255    -1.6241 H       
  43 H43            5.6549    -3.5331    -3.9488 H       
  44 H44            1.3802    -3.4541    -3.9100 H       
  45 H45            1.4213    -2.6517    -1.5836 H       
  46 H46            1.3667    -4.1197    -5.8222 H       
  47 H47            2.1551    -4.9516    -8.1843 H       
  48 H48            4.8222    -4.9950    -8.1923 H       
  49 H49            7.2479     4.2346    -1.7937 H       
  50 H50            8.4779     6.3615    -1.7937 H       
  51 H51            8.0623     8.0379    -0.0434 H       
  52 H52            6.4111     7.6021     1.7228 H       
@<TRIPOS>BOND
   1    1    2 ar
   2    1    6 ar
   3    1   35 1
   4    2    3 ar
   5    2   36 1
   6    3    4 ar
   7    3   37 1
   8    4    5 ar
   9    4    7 1
  10    5    6 ar
  11    5   10 1
  12    6   38 1
  13    7    8 1
  14    7   15 1
  15    8    9 2
  16    8   39 1
  17    9   10 1
  18    9   11 1
  19   10   13 2
  20   11   12 am
  21   11   14 2
  22   12   13 1
  23   12   27 1
  24   15   16 1
  25   15   40 1
  26   15   41 1
  27   16   17 ar
  28   16   21 ar
  29   17   18 ar
  30   17   42 1
  31   18   19 ar
  32   18   43 1
  33   19   20 ar
  34   19   22 1
  35   20   21 ar
  36   20   44 1
  37   21   45 1
  38   22   23 1
  39   22   26 1
  40   23   24 2
  41   23   46 1
  42   24   25 1
  43   24   47 1
  44   25   26 2
  45   25   48 1
  46   27   28 ar
  47   27   32 ar
  48   28   29 ar
  49   28   49 1
  50   29   30 ar
  51   29   50 1
  52   30   31 ar
  53   30   51 1
  54   31   32 ar
  55   31   52 1
  56   32   33 1
  57   33   34 3

#	End of record

