#	Name: ASD08178219
#	Creating user name:	WinNT
#	Creation time:	15. 06. 2019 21:18

#	Modifying user name:	WinNT
#	Modification time:	15. 06. 2019 21:18

#	Program:	/corina/corina34_cracker 3.40 0067  02.08.2006

@<TRIPOS>MOLECULE
ASD08178219
  56   58    0    0    0
SMALL
NO_CHARGES


@<TRIPOS>ATOM
   1 C1            -0.0191     1.5027     0.0207 C.ar    
   2 C2             0.0010    -0.0042     0.0166 C.3     
   3 C3            -0.8034    -0.5283     1.2078 C.3     
   4 C4            -0.7830    -2.0581     1.2036 C.3     
   5 C5            -1.5874    -2.5822     2.3949 C.3     
   6 C6            -1.5673    -4.0891     2.3907 C.2     
   7 N7            -0.6927    -4.8429     2.9773 N.2     
   8 N8            -0.8493    -6.0897     2.8558 N.2     
   9 C9            -1.8644    -6.5049     2.1598 C.2     
  10 S10           -2.7350    -5.1430     1.5925 S.3     
  11 N11           -2.1929    -7.8348     1.9195 N.am    
  12 C12           -1.4277    -8.8206     2.4285 C.2     
  13 N13           -1.7462   -10.1094     2.1956 N.am    
  14 O14           -0.4502    -8.5474     3.0978 O.2     
  15 C15           -0.9144   -11.1809     2.7489 C.3     
  16 C16           -1.4912   -12.5375     2.3392 C.3     
  17 C17            1.1728     2.2124     0.0064 C.ar    
  18 C18            1.1067     3.5974     0.0109 C.ar    
  19 C19           -0.1542     4.1903     0.0295 C.ar    
  20 N20           -1.2376     3.4283     0.0422 N.ar    
  21 N21           -1.1697     2.1466     0.0324 N.ar    
  22 N22           -0.2749     5.5795     0.0353 N.am    
  23 C23           -1.4926     6.1505    -0.0517 C.2     
  24 C24           -1.6342     7.6458     0.0713 C.3     
  25 O25           -2.4744     5.4610    -0.2290 O.2     
  26 C26           -3.0867     8.0253    -0.0606 C.ar    
  27 C27           -3.8892     8.0891     1.0632 C.ar    
  28 C28           -3.6151     8.3153    -1.3046 C.ar    
  29 C29           -4.9474     8.6634    -1.4256 C.ar    
  30 C30           -5.7514     8.7212    -0.3026 C.ar    
  31 C31           -5.2215     8.4372     0.9422 C.ar    
  32 H32           -0.4409    -0.3709    -0.9099 H       
  33 H33            1.0307    -0.3540     0.0914 H       
  34 H34           -0.3615    -0.1615     2.1343 H       
  35 H35           -1.8331    -0.1785     1.1331 H       
  36 H36           -1.2249    -2.4249     0.2772 H       
  37 H37            0.2467    -2.4079     1.2784 H       
  38 H38           -1.1455    -2.2155     3.3213 H       
  39 H39           -2.6171    -2.2324     2.3201 H       
  40 H40           -2.9729    -8.0528     1.3855 H       
  41 H41           -2.5261   -10.3274     1.6616 H       
  42 H42            0.1015   -11.0872     2.3652 H       
  43 H43           -0.9005   -11.1054     3.8362 H       
  44 H44           -1.5051   -12.6130     1.2519 H       
  45 H45           -0.8724   -13.3348     2.7509 H       
  46 H46           -2.5071   -12.6312     2.7229 H       
  47 H47            2.1241     1.7012    -0.0074 H       
  48 H48            2.0044     4.1978     0.0007 H       
  49 H49            0.5176     6.1349     0.1018 H       
  50 H50           -1.2615     7.9672     1.0438 H       
  51 H51           -1.0588     8.1313    -0.7169 H       
  52 H52           -3.4753     7.8665     2.0356 H       
  53 H53           -2.9870     8.2701    -2.1820 H       
  54 H54           -5.3601     8.8906    -2.3974 H       
  55 H55           -6.7922     8.9936    -0.3970 H       
  56 H56           -5.8496     8.4823     1.8196 H       
@<TRIPOS>BOND
   1    1    2 1
   2    1   17 ar
   3    1   21 ar
   4    2    3 1
   5    2   32 1
   6    2   33 1
   7    3    4 1
   8    3   34 1
   9    3   35 1
  10    4    5 1
  11    4   36 1
  12    4   37 1
  13    5    6 1
  14    5   38 1
  15    5   39 1
  16    6    7 2
  17    6   10 1
  18    7    8 1
  19    8    9 2
  20    9   10 1
  21    9   11 1
  22   11   12 am
  23   11   40 1
  24   12   13 am
  25   12   14 2
  26   13   15 1
  27   13   41 1
  28   15   16 1
  29   15   42 1
  30   15   43 1
  31   16   44 1
  32   16   45 1
  33   16   46 1
  34   17   18 ar
  35   17   47 1
  36   18   19 ar
  37   18   48 1
  38   19   20 ar
  39   19   22 1
  40   20   21 ar
  41   22   23 am
  42   22   49 1
  43   23   24 1
  44   23   25 2
  45   24   26 1
  46   24   50 1
  47   24   51 1
  48   26   27 ar
  49   26   28 ar
  50   27   31 ar
  51   27   52 1
  52   28   29 ar
  53   28   53 1
  54   29   30 ar
  55   29   54 1
  56   30   31 ar
  57   30   55 1
  58   31   56 1

#	End of record

