#	Name: ASD01914799
#	Creating user name:	WinNT
#	Creation time:	15. 06. 2019 20:04

#	Modifying user name:	WinNT
#	Modification time:	15. 06. 2019 20:04

#	Program:	/corina/corina34_cracker 3.40 0067  02.08.2006

@<TRIPOS>MOLECULE
ASD01914799
  40   41    0    0    0
SMALL
NO_CHARGES


@<TRIPOS>ATOM
   1 C1            -0.1728     1.7547    -0.1040 C.2     
   2 C2            -0.2751     0.2515    -0.1341 C.3     
   3 N3             1.0367     2.3468    -0.0484 N.am    
   4 N4             2.2624     1.6850    -0.0146 N.2     
   5 C5             3.2828     2.4692     0.0367 C.2     
   6 C6             2.8151     3.9070     0.0442 C.3     
   7 C7             1.2788     3.7981    -0.0200 C.3     
   8 C8             5.0105     0.6787     0.2143 C.ar    
   9 C9             4.6907     2.0320     0.0811 C.ar    
  10 C10            5.7301     2.9665    -0.0100 C.ar    
  11 C11            7.0334     2.5040     0.0364 C.ar    
  12 C12            7.2663     1.1471     0.1699 C.ar    
  13 N13            6.2676     0.2890     0.2535 N.ar    
  14 C14            3.2547     4.6076     1.3314 C.3     
  15 C15            2.8907     6.0917     1.2541 C.3     
  16 C16            3.2202     6.7676     2.5866 C.3     
  17 C17            2.8562     8.2517     2.5093 C.3     
  18 C18            3.1856     8.9276     3.8418 C.3     
  19 O19           -1.1788     2.4319    -0.1349 O.2     
  20 H20            0.7248    -0.1814    -0.1042 H       
  21 H21           -0.8454    -0.0912     0.7294 H       
  22 H22           -0.7788    -0.0602    -1.0491 H       
  23 H23            3.1944     4.4370    -0.8295 H       
  24 H24            0.8967     4.2685    -0.9259 H       
  25 H25            0.8268     4.2451     0.8655 H       
  26 H26            4.2202    -0.0534     0.2903 H       
  27 H27            5.5197     4.0206    -0.1141 H       
  28 H28            7.8603     3.1954    -0.0313 H       
  29 H29            8.2828     0.7839     0.2060 H       
  30 H30            2.7488     4.1533     2.1833 H       
  31 H31            4.3331     4.5038     1.4515 H       
  32 H32            3.4622     6.5649     0.4556 H       
  33 H33            1.8253     6.1942     1.0483 H       
  34 H34            2.6487     6.2945     3.3851 H       
  35 H35            4.2856     6.6651     2.7924 H       
  36 H36            3.4276     8.7249     1.7108 H       
  37 H37            1.7907     8.3542     2.3035 H       
  38 H38            2.6141     8.4545     4.6403 H       
  39 H39            4.2511     8.8251     4.0476 H       
  40 H40            2.9263     9.9849     3.7868 H       
@<TRIPOS>BOND
   1    1    2 1
   2    1    3 am
   3    1   19 2
   4    2   20 1
   5    2   21 1
   6    2   22 1
   7    3    4 1
   8    3    7 1
   9    4    5 2
  10    5    6 1
  11    5    9 1
  12    6    7 1
  13    6   14 1
  14    6   23 1
  15    7   24 1
  16    7   25 1
  17    8    9 ar
  18    8   13 ar
  19    8   26 1
  20    9   10 ar
  21   10   11 ar
  22   10   27 1
  23   11   12 ar
  24   11   28 1
  25   12   13 ar
  26   12   29 1
  27   14   15 1
  28   14   30 1
  29   14   31 1
  30   15   16 1
  31   15   32 1
  32   15   33 1
  33   16   17 1
  34   16   34 1
  35   16   35 1
  36   17   18 1
  37   17   36 1
  38   17   37 1
  39   18   38 1
  40   18   39 1
  41   18   40 1

#	End of record

