#	Name: ASD01871034
#	Creating user name:	WinNT
#	Creation time:	15. 06. 2019 19:39

#	Modifying user name:	WinNT
#	Modification time:	15. 06. 2019 19:39

#	Program:	/corina/corina34_cracker 3.40 0067  02.08.2006

@<TRIPOS>MOLECULE
ASD01871034
  26   28    0    0    0
SMALL
NO_CHARGES


@<TRIPOS>ATOM
   1 C1            -0.0166     1.3749     0.0096 C.2     
   2 C2             0.0021    -0.0041     0.0020 C.2     
   3 S3            -1.6687    -0.5624     0.0156 S.3     
   4 C4            -2.2266     1.0523     0.0298 C.2     
   5 N5            -1.2327     1.8850     0.0296 N.2     
   6 O6            -3.5307     1.4138     0.0440 O.3     
   7 C7            -4.4646     0.4293     0.0477 C.ar    
   8 C8            -5.8128     0.7608     0.0621 C.ar    
   9 N9            -4.0815    -0.8370     0.0321 N.ar    
  10 C10           -4.9568    -1.8252     0.0350 C.ar    
  11 C11           -6.3154    -1.5677     0.0542 C.ar    
  12 C12           -6.7564    -0.2525     0.0658 C.ar    
  13 C13            1.2113     2.2036     0.0023 C.2     
  14 C14            2.4297     1.8942     0.6408 C.2     
  15 N15            3.2694     2.8665     0.4044 N.2     
  16 N16            2.6284     3.8272    -0.3869 N.pl3   
  17 C17            1.3720     3.4045    -0.6293 C.2     
  18 Cl18          -4.3957    -3.4678     0.0140 Cl      
  19 C19            1.1697    -0.8330    -0.0148 C.1     
  20 N20            2.0959    -1.4906    -0.0281 N.1     
  21 H21           -6.1215     1.7957     0.0707 H       
  22 H22           -7.0253    -2.3816     0.0558 H       
  23 H23           -7.8119    -0.0242     0.0808 H       
  24 H24            2.6332     1.0081     1.2236 H       
  25 H25            3.0222     4.6532    -0.7086 H       
  26 H26            0.6253     3.9241    -1.2114 H       
@<TRIPOS>BOND
   1    1    2 2
   2    1   13 1
   3    1    5 1
   4    2    3 1
   5    2   19 1
   6    3    4 1
   7    4    5 2
   8    4    6 1
   9    6    7 1
  10    7    8 ar
  11    7    9 ar
  12    8   12 ar
  13    8   21 1
  14    9   10 ar
  15   10   11 ar
  16   10   18 1
  17   11   12 ar
  18   11   22 1
  19   12   23 1
  20   13   14 1
  21   13   17 2
  22   14   15 2
  23   14   24 1
  24   15   16 1
  25   16   17 1
  26   16   25 1
  27   17   26 1
  28   19   20 3

#	End of record

