#	Name: ASD01917578
#	Creating user name:	WinNT
#	Creation time:	15. 06. 2019 20:09

#	Modifying user name:	WinNT
#	Modification time:	15. 06. 2019 20:09

#	Program:	/corina/corina34_cracker 3.40 0067  02.08.2006

@<TRIPOS>MOLECULE
ASD01917578
  25   26    0    0    0
SMALL
NO_CHARGES


@<TRIPOS>ATOM
   1 N1            -0.0168     1.3879     0.0097 N.pl3   
   2 N2             0.6821    -2.1239    -0.0151 N.2     
   3 N3             1.1039    -0.7883    -0.0122 N.pl3   
   4 C4             0.0021    -0.0041     0.0020 C.2     
   5 C5            -1.0854    -0.8236     0.0080 C.2     
   6 C6            -0.6261    -2.1436    -0.0030 C.2     
   7 C7            -2.8147    -4.9417     1.4232 C.3     
   8 C8            -1.8739    -3.7340     1.4377 C.3     
   9 C9            -1.4900    -3.3785    -0.0020 C.3     
  10 C10           -2.7652    -3.1124    -0.8079 C.3     
  11 C11           -3.6715    -4.3441    -0.7356 C.3     
  12 O12           -3.9651    -4.6382     0.6317 O.3     
  13 H13            0.8165     1.8843     0.0044 H       
  14 H14           -0.8633     1.8614     0.0163 H       
  15 H15            2.0236    -0.4803    -0.0193 H       
  16 H16           -2.1187    -0.5095     0.0192 H       
  17 H17           -2.2966    -5.8009     0.9972 H       
  18 H18           -3.1252    -5.1728     2.4422 H       
  19 H19           -2.3776    -2.8854     1.9005 H       
  20 H20           -0.9755    -3.9789     2.0043 H       
  21 H21           -0.9413    -4.2077    -0.4484 H       
  22 H22           -3.2869    -2.2512    -0.3904 H       
  23 H23           -2.5042    -2.9127    -1.8472 H       
  24 H24           -4.5993    -4.1447    -1.2718 H       
  25 H25           -3.1647    -5.1955    -1.1899 H       
@<TRIPOS>BOND
   1    1    4 1
   2    1   13 1
   3    1   14 1
   4    2    3 1
   5    2    6 2
   6    3    4 1
   7    3   15 1
   8    4    5 2
   9    5    6 1
  10    5   16 1
  11    6    9 1
  12    7    8 1
  13    7   12 1
  14    7   17 1
  15    7   18 1
  16    8    9 1
  17    8   19 1
  18    8   20 1
  19    9   10 1
  20    9   21 1
  21   10   11 1
  22   10   22 1
  23   10   23 1
  24   11   12 1
  25   11   24 1
  26   11   25 1

#	End of record

