#	Name: ASD01209253
#	Creating user name:	WinNT
#	Creation time:	15. 06. 2019 19:11

#	Modifying user name:	WinNT
#	Modification time:	15. 06. 2019 19:11

#	Program:	/corina/corina34_cracker 3.40 0067  02.08.2006

@<TRIPOS>MOLECULE
ASD01209253
  82   84    0    0    0
SMALL
NO_CHARGES


@<TRIPOS>ATOM
   1 O1            -0.0413    -0.8612    -1.9369 O.3     
   2 O2             1.1916     0.2653     0.0936 O.3     
   3 C3             4.2658     6.6074    -7.3430 C.ar    
   4 C4             3.7944     6.6656    -8.6462 C.ar    
   5 C5             2.6353     5.9892    -8.9999 C.ar    
   6 C6             1.9442     5.2529    -8.0519 C.ar    
   7 C7             2.4151     5.1918    -6.7397 C.ar    
   8 C8             3.5837     5.8690    -6.3898 C.ar    
   9 O9             2.1778     6.0495   -10.2781 O.3     
  10 C10            1.6809     4.4072    -5.7246 C.2     
  11 N11            0.5551     3.7496    -6.0658 N.am    
  12 O12            2.0926     4.3551    -4.5820 O.2     
  13 C13           -0.1348     3.0124    -5.1120 C.2     
  14 P14            0.7763     0.4383    -1.4523 P.3     
  15 O15            1.9960     0.5896    -2.2768 O.2     
  16 C16           -0.2705     1.9191    -1.6382 C.3     
  17 N17            0.2165     2.8917    -3.8699 N.2     
  18 S18           -1.5748     2.1380    -5.4033 S.3     
  19 C19           -1.6146     1.6220    -3.7193 C.2     
  20 C20           -0.5578     2.1509    -3.0993 C.2     
  21 O21            5.4017     7.2712    -7.0021 O.3     
  22 C22            5.7774     7.2485    -5.6235 C.3     
  23 C23            6.6508     8.4657    -5.3128 C.3     
  24 O24            7.8770     8.3703    -6.0405 O.3     
  25 C25            8.7701     9.4639    -5.8203 C.3     
  26 C26            6.5630     5.9688    -5.3301 C.3     
  27 C27            1.1270     6.8698   -10.5415 C.ar    
  28 C28            0.6010     6.9355   -11.8239 C.ar    
  29 C29           -0.4675     7.7699   -12.0889 C.ar    
  30 C30           -1.0129     8.5392   -11.0776 C.ar    
  31 C31           -0.4907     8.4756    -9.7989 C.ar    
  32 C32            0.5744     7.6389    -9.5274 C.ar    
  33 S33           -2.3755     9.6029   -11.4192 S.o2    
  34 O34           -2.2749    10.6270   -10.4392 O.2     
  35 O35           -2.2506     9.8987   -12.8035 O.2     
  36 C36           -3.8391     8.5747   -11.1175 C.3     
  37 C37            2.0959    -0.7434     0.5484 C.3     
  38 C38            2.2695    -0.6269     2.0640 C.3     
  39 C39           -2.6618     0.7411    -3.0880 C.3     
  40 C40           -4.0328     1.4084    -3.2137 C.3     
  41 C41           -2.6862    -0.6128    -3.8002 C.3     
  42 C42            0.5411    -2.1640    -2.0120 C.3     
  43 C43           -0.5063    -3.1632    -2.5073 C.3     
  44 H44            4.3308     7.2391    -9.3877 H       
  45 H45            1.0419     4.7274    -8.3277 H       
  46 H46            3.9517     5.8240    -5.3755 H       
  47 H47            0.2266     3.7911    -6.9775 H       
  48 H48           -1.2081     1.7709    -1.1026 H       
  49 H49            0.2491     2.7852    -1.2283 H       
  50 H50            4.8821     7.2757    -5.0024 H       
  51 H51            6.1247     9.3745    -5.6050 H       
  52 H52            6.8639     8.4968    -4.2443 H       
  53 H53            9.6765     9.3167    -6.4076 H       
  54 H54            8.2880    10.3934    -6.1229 H       
  55 H55            9.0272     9.5157    -4.7623 H       
  56 H56            6.8496     5.9515    -4.2786 H       
  57 H57            5.9408     5.1017    -5.5514 H       
  58 H58            7.4583     5.9416    -5.9512 H       
  59 H59            1.0269     6.3351   -12.6141 H       
  60 H60           -0.8770     7.8217   -13.0869 H       
  61 H61           -0.9183     9.0778    -9.0109 H       
  62 H62            0.9820     7.5896    -8.5285 H       
  63 H63           -3.8375     8.2353   -10.0817 H       
  64 H64           -4.7393     9.1595   -11.3069 H       
  65 H65           -3.8201     7.7114   -11.7827 H       
  66 H66            1.6959    -1.7273     0.3031 H       
  67 H67            3.0619    -0.6121     0.0608 H       
  68 H68            2.6695     0.3569     2.3094 H       
  69 H69            1.3035    -0.7583     2.5516 H       
  70 H70            2.9592    -1.3964     2.4109 H       
  71 H71           -2.4250     0.5931    -2.0343 H       
  72 H72           -4.2696     1.5564    -4.2673 H       
  73 H73           -4.7902     0.7712    -2.7571 H       
  74 H74           -4.0154     2.3729    -2.7063 H       
  75 H75           -3.4436    -1.2499    -3.3436 H       
  76 H76           -2.9230    -0.4648    -4.8539 H       
  77 H77           -1.7094    -1.0881    -3.7106 H       
  78 H78            1.3826    -2.1464    -2.7046 H       
  79 H79            0.8902    -2.4634    -1.0237 H       
  80 H80           -1.3478    -3.1808    -1.8146 H       
  81 H81           -0.8554    -2.8637    -3.4955 H       
  82 H82           -0.0620    -4.1569    -2.5645 H       
@<TRIPOS>BOND
   1    1   42 1
   2    1   14 1
   3    2   37 1
   4    2   14 1
   5    3    4 ar
   6    3   21 1
   7    3    8 ar
   8    4    5 ar
   9    4   44 1
  10    5    6 ar
  11    5    9 1
  12    6    7 ar
  13    6   45 1
  14    7    8 ar
  15    7   10 1
  16    8   46 1
  17    9   27 1
  18   10   11 am
  19   10   12 2
  20   11   13 1
  21   11   47 1
  22   13   17 2
  23   13   18 1
  24   14   15 2
  25   14   16 1
  26   16   20 1
  27   16   48 1
  28   16   49 1
  29   17   20 1
  30   18   19 1
  31   19   20 2
  32   19   39 1
  33   21   22 1
  34   22   23 1
  35   22   26 1
  36   22   50 1
  37   23   24 1
  38   23   51 1
  39   23   52 1
  40   24   25 1
  41   25   53 1
  42   25   54 1
  43   25   55 1
  44   26   56 1
  45   26   57 1
  46   26   58 1
  47   27   28 ar
  48   27   32 ar
  49   28   29 ar
  50   28   59 1
  51   29   30 ar
  52   29   60 1
  53   30   31 ar
  54   30   33 1
  55   31   32 ar
  56   31   61 1
  57   32   62 1
  58   33   34 2
  59   33   35 2
  60   33   36 1
  61   36   63 1
  62   36   64 1
  63   36   65 1
  64   37   38 1
  65   37   66 1
  66   37   67 1
  67   38   68 1
  68   38   69 1
  69   38   70 1
  70   39   40 1
  71   39   41 1
  72   39   71 1
  73   40   72 1
  74   40   73 1
  75   40   74 1
  76   41   75 1
  77   41   76 1
  78   41   77 1
  79   42   43 1
  80   42   78 1
  81   42   79 1
  82   43   80 1
  83   43   81 1
  84   43   82 1

#	End of record

