#	Name: ASD01410571
#	Creating user name:	WinNT
#	Creation time:	15. 06. 2019 19:18

#	Modifying user name:	WinNT
#	Modification time:	15. 06. 2019 19:18

#	Program:	/corina/corina34_cracker 3.40 0067  02.08.2006

@<TRIPOS>MOLECULE
ASD01410571
  78   81    0    0    0
SMALL
NO_CHARGES


@<TRIPOS>ATOM
   1 C1            -0.9785    -0.5189    -1.1994 C.ar    
   2 C2            -0.4320    -0.3743    -2.4610 C.ar    
   3 C3             0.9311    -0.5147    -2.6471 C.ar    
   4 C4             1.7503    -0.7997    -1.5723 C.ar    
   5 C5             1.2044    -0.9449    -0.3046 C.ar    
   6 C6            -0.1634    -0.8036    -0.1207 C.ar    
   7 O7             2.0081    -1.2258     0.7544 O.3     
   8 C8             3.3396    -1.3745     0.5234 C.ar    
   9 C9             3.9078    -2.6428     0.5381 C.ar    
  10 C10            5.2584    -2.8050     0.3049 C.ar    
  11 C11            6.0599    -1.7000     0.0541 C.ar    
  12 C12            5.4925    -0.4168     0.0379 C.ar    
  13 C13            4.1233    -0.2637     0.2691 C.ar    
  14 N14            7.4243    -1.8645    -0.1805 N.am    
  15 C15            7.8760    -2.0345    -1.4389 C.2     
  16 C16            8.3670    -1.8526     0.9408 C.3     
  17 O17            9.0508    -2.2623    -1.6358 O.2     
  18 C18            6.9213    -1.9415    -2.6012 C.3     
  19 C19           -1.3235    -0.0638    -3.6357 C.3     
  20 C20            7.3485    -2.9257    -3.6920 C.3     
  21 C21            6.3792    -2.8313    -4.8720 C.3     
  22 C22            6.3966    -1.4082    -5.4338 C.3     
  23 C23            5.9694    -0.4241    -4.3429 C.3     
  24 C24            6.9387    -0.5185    -3.1629 C.3     
  25 C25            5.4273    -1.3138    -6.6138 C.3     
  26 C26            7.6366    -1.4285     2.2166 C.3     
  27 O27            9.7456    -3.5959    -0.0082 O.3     
  28 C28            8.9523    -3.2535     1.1299 C.3     
  29 C29           10.3418    -4.8924     0.0676 C.3     
  30 O30            7.1854    -0.0794     2.0811 O.3     
  31 C31            6.4866     0.4173     3.2244 C.3     
  32 C32           -1.4459     1.4301    -3.7923 C.2     
  33 C33           -0.6487     2.2115    -4.5270 C.2     
  34 N34           -0.9636     3.4909    -4.5019 N.2     
  35 C35           -1.9820     3.8322    -3.7870 C.2     
  36 S36           -2.6700     2.4538    -3.0453 S.3     
  37 C37            6.3356     0.7628    -0.2270 C.2     
  38 O38            7.5078     0.6198    -0.5137 O.2     
  39 O39            5.8066     1.9999    -0.1512 O.3     
  40 C40           -0.7597    -0.9600     1.2544 C.3     
  41 F41           -2.1446    -0.7741     1.1862 F       
  42 F42           -0.4847    -2.2434     1.7387 F       
  43 F43           -0.2031    -0.0078     2.1151 F       
  44 H44           -2.0428    -0.4047    -1.0561 H       
  45 H45            1.3554    -0.4016    -3.6338 H       
  46 H46            2.8147    -0.9099    -1.7183 H       
  47 H47            3.2890    -3.5062     0.7334 H       
  48 H48            5.6925    -3.7938     0.3179 H       
  49 H49            3.6794     0.7208     0.2582 H       
  50 H50            9.1717    -1.1478     0.7315 H       
  51 H51            5.9141    -2.1870    -2.2645 H       
  52 H52           -0.8924    -0.4899    -4.5416 H       
  53 H53           -2.3108    -0.4934    -3.4662 H       
  54 H54            8.3557    -2.6802    -4.0286 H       
  55 H55            7.3361    -3.9395    -3.2918 H       
  56 H56            6.6835    -3.5324    -5.6492 H       
  57 H57            5.3719    -3.0767    -4.5354 H       
  58 H58            7.4038    -1.1628    -5.7704 H       
  59 H59            5.9818     0.5897    -4.7431 H       
  60 H60            4.9622    -0.6695    -4.0063 H       
  61 H61            6.6344     0.1826    -2.3858 H       
  62 H62            7.9459    -0.2730    -3.4995 H       
  63 H63            4.4201    -1.5593    -6.2772 H       
  64 H64            5.4397    -0.3000    -7.0140 H       
  65 H65            5.7316    -2.0150    -7.3909 H       
  66 H66            6.7806    -2.0833     2.3800 H       
  67 H67            8.3165    -1.5007     3.0656 H       
  68 H68            9.5746    -3.2695     2.0247 H       
  69 H69            8.1419    -3.9743     1.2381 H       
  70 H70            9.5602    -5.6472     0.1537 H       
  71 H71           10.9270    -5.0764    -0.8334 H       
  72 H72           10.9930    -4.9424     0.9403 H       
  73 H73            5.6068    -0.1991     3.4086 H       
  74 H74            7.1427     0.3834     4.0942 H       
  75 H75            6.1775     1.4466     3.0424 H       
  76 H76            0.1854     1.8262    -5.0947 H       
  77 H77           -2.3497     4.8417    -3.6769 H       
  78 H78            6.3987     2.7425    -0.3333 H       
@<TRIPOS>BOND
   1    1    2 ar
   2    1    6 ar
   3    1   44 1
   4    2    3 ar
   5    2   19 1
   6    3    4 ar
   7    3   45 1
   8    4    5 ar
   9    4   46 1
  10    5    6 ar
  11    5    7 1
  12    6   40 1
  13    7    8 1
  14    8    9 ar
  15    8   13 ar
  16    9   10 ar
  17    9   47 1
  18   10   11 ar
  19   10   48 1
  20   11   12 ar
  21   11   14 1
  22   12   13 ar
  23   12   37 1
  24   13   49 1
  25   14   15 am
  26   14   16 1
  27   15   17 2
  28   15   18 1
  29   16   26 1
  30   16   28 1
  31   16   50 1
  32   18   20 1
  33   18   24 1
  34   18   51 1
  35   19   32 1
  36   19   52 1
  37   19   53 1
  38   20   21 1
  39   20   54 1
  40   20   55 1
  41   21   22 1
  42   21   56 1
  43   21   57 1
  44   22   23 1
  45   22   25 1
  46   22   58 1
  47   23   24 1
  48   23   59 1
  49   23   60 1
  50   24   61 1
  51   24   62 1
  52   25   63 1
  53   25   64 1
  54   25   65 1
  55   26   30 1
  56   26   66 1
  57   26   67 1
  58   27   28 1
  59   27   29 1
  60   28   68 1
  61   28   69 1
  62   29   70 1
  63   29   71 1
  64   29   72 1
  65   30   31 1
  66   31   73 1
  67   31   74 1
  68   31   75 1
  69   32   33 2
  70   32   36 1
  71   33   34 1
  72   33   76 1
  73   34   35 2
  74   35   36 1
  75   35   77 1
  76   37   38 2
  77   37   39 1
  78   39   78 1
  79   40   41 1
  80   40   42 1
  81   40   43 1

#	End of record

