#	Name: ASD07330033
#	Creating user name:	WinNT
#	Creation time:	15. 06. 2019 21:11

#	Modifying user name:	WinNT
#	Modification time:	15. 06. 2019 21:11

#	Program:	/corina/corina34_cracker 3.40 0067  02.08.2006

@<TRIPOS>MOLECULE
ASD07330033
  69   72    0    0    0
SMALL
NO_CHARGES


@<TRIPOS>ATOM
   1 C1             0.2106     0.7834     0.1902 C.ar    
   2 C2            -0.1391    -0.1126    -0.8213 C.ar    
   3 N3            -1.2915    -0.7482    -0.7830 N.ar    
   4 C4            -2.1548    -0.5647     0.2065 C.ar    
   5 C5            -1.8712     0.3151     1.2508 C.ar    
   6 C6            -0.6811     0.9931     1.2532 C.ar    
   7 N7            -3.3551    -1.2561     0.2028 N.3     
   8 C8            -3.1766    -2.6183    -0.3187 C.3     
   9 C9            -4.5053    -3.3730    -0.2322 C.3     
  10 N10           -5.5281    -2.6483    -0.9992 N.3     
  11 C11           -5.7066    -1.2861    -0.4777 C.3     
  12 C12           -4.3779    -0.5314    -0.5642 C.3     
  13 C13            1.5022     1.4953     0.1455 C.2     
  14 N14            2.3539     1.2826    -0.8771 N.am    
  15 O15            1.7981     2.2740     1.0313 O.2     
  16 C16            3.6363     1.9894    -0.9214 C.3     
  17 C17            4.4064     1.5707    -2.1755 C.3     
  18 Cl18          -3.0126     0.5437     2.5386 Cl      
  19 C19           -6.8010    -3.3815    -1.0032 C.3     
  20 C20           -4.3328    -4.7784    -0.8120 C.3     
  21 C21           -3.3323    -5.5622     0.0398 C.3     
  22 C22           -7.4041    -3.3673     0.4042 C.3     
  23 C23           -8.7584    -4.0796     0.3808 C.3     
  24 N24           -9.6548    -3.3987    -0.5622 N.3     
  25 C25           -9.1191    -3.4410    -1.9288 C.3     
  26 C26           -7.7756    -2.7096    -1.9743 C.3     
  27 C27          -11.0071    -3.9699    -0.5089 C.3     
  28 C28          -11.9516    -3.0993    -1.2970 C.ar    
  29 C29          -12.1529    -3.3404    -2.6433 C.ar    
  30 C30          -13.0194    -2.5425    -3.3664 C.ar    
  31 C31          -13.6851    -1.5026    -2.7429 C.ar    
  32 C32          -13.4833    -1.2617    -1.3958 C.ar    
  33 C33          -12.6206    -2.0634    -0.6723 C.ar    
  34 Br34         -14.8702    -0.4102    -3.7319 Br      
  35 H35            0.5410    -0.2856    -1.6423 H       
  36 H36           -0.4381     1.6796     2.0507 H       
  37 H37           -2.8527    -2.5701    -1.3584 H       
  38 H38           -2.4236    -3.1386     0.2733 H       
  39 H39           -4.8155    -3.4449     0.8102 H       
  40 H40           -6.4595    -0.7658    -1.0697 H       
  41 H41           -6.0304    -1.3343     0.5620 H       
  42 H42           -4.5008     0.4698    -0.1511 H       
  43 H43           -4.0677    -0.4595    -1.6066 H       
  44 H44            2.1178     0.6614    -1.5837 H       
  45 H45            3.4580     3.0644    -0.9466 H       
  46 H46            4.2203     1.7387    -0.0359 H       
  47 H47            4.5848     0.4957    -2.1503 H       
  48 H48            3.8225     1.8215    -3.0610 H       
  49 H49            5.3605     2.0966    -2.2085 H       
  50 H50           -6.6271    -4.4116    -1.3145 H       
  51 H51           -5.2937    -5.2929    -0.8095 H       
  52 H52           -3.9617    -4.7066    -1.8344 H       
  53 H53           -2.3780    -5.0357     0.0561 H       
  54 H54           -3.7142    -5.6538     1.0566 H       
  55 H55           -3.1920    -6.5555    -0.3865 H       
  56 H56           -6.7339    -3.8823     1.0925 H       
  57 H57           -7.5406    -2.3365     0.7312 H       
  58 H58           -8.6192    -5.1142     0.0670 H       
  59 H59           -9.1970    -4.0587     1.3784 H       
  60 H60           -8.9783    -4.4785    -2.2317 H       
  61 H61           -9.8198    -2.9562    -2.6086 H       
  62 H62           -7.9180    -1.6684    -1.6848 H       
  63 H63           -7.3708    -2.7546    -2.9854 H       
  64 H64          -10.9951    -4.9726    -0.9361 H       
  65 H65          -11.3395    -4.0207     0.5280 H       
  66 H66          -11.6329    -4.1522    -3.1301 H       
  67 H67          -13.1764    -2.7307    -4.4182 H       
  68 H68          -14.0025    -0.4496    -0.9086 H       
  69 H69          -12.4630    -1.8754     0.3795 H       
@<TRIPOS>BOND
   1    1    2 ar
   2    1   13 1
   3    1    6 ar
   4    2    3 ar
   5    2   35 1
   6    3    4 ar
   7    4    5 ar
   8    4    7 1
   9    5    6 ar
  10    5   18 1
  11    6   36 1
  12    7    8 1
  13    7   12 1
  14    8    9 1
  15    8   37 1
  16    8   38 1
  17    9   10 1
  18    9   20 1
  19    9   39 1
  20   10   11 1
  21   10   19 1
  22   11   12 1
  23   11   40 1
  24   11   41 1
  25   12   42 1
  26   12   43 1
  27   13   14 am
  28   13   15 2
  29   14   16 1
  30   14   44 1
  31   16   17 1
  32   16   45 1
  33   16   46 1
  34   17   47 1
  35   17   48 1
  36   17   49 1
  37   19   22 1
  38   19   26 1
  39   19   50 1
  40   20   21 1
  41   20   51 1
  42   20   52 1
  43   21   53 1
  44   21   54 1
  45   21   55 1
  46   22   23 1
  47   22   56 1
  48   22   57 1
  49   23   24 1
  50   23   58 1
  51   23   59 1
  52   24   25 1
  53   24   27 1
  54   25   26 1
  55   25   60 1
  56   25   61 1
  57   26   62 1
  58   26   63 1
  59   27   28 1
  60   27   64 1
  61   27   65 1
  62   28   29 ar
  63   28   33 ar
  64   29   30 ar
  65   29   66 1
  66   30   31 ar
  67   30   67 1
  68   31   32 ar
  69   31   34 1
  70   32   33 ar
  71   32   68 1
  72   33   69 1

#	End of record

