#	Name: ASD07931713
#	Creating user name:	WinNT
#	Creation time:	15. 06. 2019 21:13

#	Modifying user name:	WinNT
#	Modification time:	15. 06. 2019 21:13

#	Program:	/corina/corina34_cracker 3.40 0067  02.08.2006

@<TRIPOS>MOLECULE
ASD07931713
  54   58    0    0    0
SMALL
NO_CHARGES


@<TRIPOS>ATOM
   1 C1             0.1622     3.9150    -0.5948 C.2     
   2 C2            -0.3205     2.6649    -0.3199 C.2     
   3 C3             0.6305     1.5859    -0.0411 C.2     
   4 N4             1.9486     1.8492    -0.0602 N.am    
   5 C5             2.4097     3.1154    -0.3417 C.2     
   6 C6             1.5454     4.1334    -0.6038 C.2     
   7 C7             2.9292     0.7920     0.2209 C.3     
   8 C8             4.1061     0.9637    -0.7509 C.3     
   9 N9             4.6963     2.2930    -0.5385 N.am    
  10 C10            3.8704     3.3509    -0.3557 C.2     
  11 C11            6.1505     2.4704    -0.5249 C.3     
  12 O12            0.2306     0.4610     0.2061 O.2     
  13 N13           -1.6968     2.4213    -0.3048 N.pl3   
  14 C14           -2.5506     2.5007    -1.3749 C.2     
  15 C15           -2.4408     2.0555     0.7721 C.2     
  16 N16           -3.6825     1.9219     0.3930 N.2     
  17 C17           -3.7783     2.1889    -0.9182 C.2     
  18 C18           -5.0419     2.1471    -1.7384 C.3     
  19 O19            4.3199     4.4707    -0.2066 O.2     
  20 C20            6.8667     1.6055     0.5257 C.3     
  21 C21            7.9597     1.3679    -0.5296 C.3     
  22 C22            6.8824     1.6403    -1.5926 C.3     
  23 O23            7.3194     2.3435     1.6626 O.3     
  24 C24            7.5708     1.6374     2.7965 C.ar    
  25 C25            7.5027     0.2525     2.7819 C.ar    
  26 C26            7.7586    -0.4632     3.9360 C.ar    
  27 C27            8.0819     0.1998     5.1050 C.ar    
  28 C28            8.1507     1.5809     5.1232 C.ar    
  29 C29            7.9018     2.3014     3.9703 C.ar    
  30 Cl30           7.9888     4.0350     3.9931 Cl      
  31 C31            8.5030     2.3005     6.3996 C.3     
  32 F32            8.7141     1.3659     7.4189 F       
  33 F33            9.6681     3.0504     6.2059 F       
  34 F34            7.4539     3.1534     6.7589 F       
  35 H35           -0.5182     4.7263    -0.8078 H       
  36 H36            1.9299     5.1190    -0.8211 H       
  37 H37            3.2834     0.8818     1.2478 H       
  38 H38            2.4695    -0.1853     0.0735 H       
  39 H39            4.8551     0.1955    -0.5584 H       
  40 H40            3.7485     0.8816    -1.7773 H       
  41 H41            6.4489     3.5186    -0.5045 H       
  42 H42           -2.2887     2.7629    -2.3893 H       
  43 H43           -2.0672     1.9008     1.7735 H       
  44 H44           -5.5186     3.1271    -1.7215 H       
  45 H45           -4.7989     1.8788    -2.7665 H       
  46 H46           -5.7220     1.4050    -1.3203 H       
  47 H47            6.3178     0.7035     0.7965 H       
  48 H48            8.7538     2.1144    -0.5115 H       
  49 H49            8.3384     0.3459    -0.5436 H       
  50 H50            6.3378     0.7479    -1.9010 H       
  51 H51            7.2403     2.2313    -2.4356 H       
  52 H52            7.2495    -0.2664     1.8692 H       
  53 H53            7.7056    -1.5419     3.9247 H       
  54 H54            8.2808    -0.3617     6.0059 H       
@<TRIPOS>BOND
   1    1    2 2
   2    1    6 1
   3    1   35 1
   4    2    3 1
   5    2   13 1
   6    3    4 am
   7    3   12 2
   8    4    5 1
   9    4    7 1
  10    5    6 2
  11    5   10 1
  12    6   36 1
  13    7    8 1
  14    7   37 1
  15    7   38 1
  16    8    9 1
  17    8   39 1
  18    8   40 1
  19    9   10 am
  20    9   11 1
  21   10   19 2
  22   11   20 1
  23   11   22 1
  24   11   41 1
  25   13   14 1
  26   13   15 1
  27   14   17 2
  28   14   42 1
  29   15   16 2
  30   15   43 1
  31   16   17 1
  32   17   18 1
  33   18   44 1
  34   18   45 1
  35   18   46 1
  36   20   21 1
  37   20   23 1
  38   20   47 1
  39   21   22 1
  40   21   48 1
  41   21   49 1
  42   22   50 1
  43   22   51 1
  44   23   24 1
  45   24   25 ar
  46   24   29 ar
  47   25   26 ar
  48   25   52 1
  49   26   27 ar
  50   26   53 1
  51   27   28 ar
  52   27   54 1
  53   28   29 ar
  54   28   31 1
  55   29   30 1
  56   31   32 1
  57   31   33 1
  58   31   34 1

#	End of record

