#	Name: ASD05303030
#	Creating user name:	WinNT
#	Creation time:	15. 06. 2019 20:58

#	Modifying user name:	WinNT
#	Modification time:	15. 06. 2019 20:58

#	Program:	/corina/corina34_cracker 3.40 0067  02.08.2006

@<TRIPOS>MOLECULE
ASD05303030
  44   46    0    0    0
SMALL
NO_CHARGES


@<TRIPOS>ATOM
   1 C1             6.8775     1.8313    -1.1279 C.ar    
   2 C2             6.8961     0.4993    -1.4964 C.ar    
   3 C3             5.8229    -0.3192    -1.1904 C.ar    
   4 C4             4.7324     0.1996    -0.5150 C.ar    
   5 C5             4.7117     1.5409    -0.1391 C.ar    
   6 C6             5.7902     2.3536    -0.4512 C.ar    
   7 O7             3.6478     2.0525     0.5309 O.3     
   8 N8             3.6299    -0.6175    -0.2040 N.am    
   9 C9             2.4804     1.3608     0.5696 C.ar    
  10 C10            2.4428     0.0159     0.2079 C.ar    
  11 C11            1.2513    -0.6859     0.2534 C.ar    
  12 C12            0.0917    -0.0480     0.6581 C.ar    
  13 C13            0.1250     1.2867     1.0156 C.ar    
  14 C14            1.3139     1.9920     0.9720 C.ar    
  15 C15            3.7080    -1.9597    -0.2976 C.2     
  16 O16            2.6931    -2.6295    -0.2939 O.2     
  17 N17            4.9109    -2.5596    -0.3953 N.am    
  18 H18            5.7224    -2.0310    -0.3397 H       
  19 C19            4.9930    -4.0099    -0.5856 C.3     
  20 C20            6.4616    -4.4316    -0.6644 C.3     
  21 C21            6.5473    -5.9462    -0.8631 C.3     
  22 N22            7.9573    -6.3512    -0.9388 N.3     
  23 C23            8.0884    -7.8135    -0.8913 C.3     
  24 C24            8.5983    -5.8040    -2.1421 C.3     
  25 H25            7.7181     2.4663    -1.3657 H       
  26 H26            7.7485     0.0971    -2.0237 H       
  27 H27            5.8364    -1.3600    -1.4784 H       
  28 H28            5.7818     3.3951    -0.1655 H       
  29 H29            1.2261    -1.7287    -0.0265 H       
  30 H30           -0.8397    -0.5933     0.6944 H       
  31 H31           -0.7821     1.7816     1.3296 H       
  32 H32            1.3336     3.0346     1.2529 H       
  33 H33            4.5147    -4.5141     0.2542 H       
  34 H34            4.4860    -4.2842    -1.5107 H       
  35 H35            6.9398    -3.9274    -1.5042 H       
  36 H36            6.9686    -4.1572     0.2607 H       
  37 H37            6.0690    -6.4505    -0.0234 H       
  38 H38            6.0403    -6.2206    -1.7882 H       
  39 H39            7.5526    -8.2539    -1.7322 H       
  40 H40            9.1422    -8.0860    -0.9490 H       
  41 H41            7.6675    -8.1858     0.0427 H       
  42 H42            8.5481    -4.7155    -2.1174 H       
  43 H43            9.6413    -6.1191    -2.1733 H       
  44 H44            8.0810    -6.1716    -3.0283 H       
@<TRIPOS>BOND
   1    1    2 ar
   2    1    6 ar
   3    1   25 1
   4    2    3 ar
   5    2   26 1
   6    3    4 ar
   7    3   27 1
   8    4    5 ar
   9    4    8 1
  10    5    6 ar
  11    5    7 1
  12    6   28 1
  13    7    9 1
  14    8   10 1
  15    8   15 am
  16    9   10 ar
  17    9   14 ar
  18   10   11 ar
  19   11   12 ar
  20   11   29 1
  21   12   13 ar
  22   12   30 1
  23   13   14 ar
  24   13   31 1
  25   14   32 1
  26   15   16 2
  27   15   17 am
  28   17   18 1
  29   17   19 1
  30   19   20 1
  31   19   33 1
  32   19   34 1
  33   20   21 1
  34   20   35 1
  35   20   36 1
  36   21   22 1
  37   21   37 1
  38   21   38 1
  39   22   23 1
  40   22   24 1
  41   23   39 1
  42   23   40 1
  43   23   41 1
  44   24   42 1
  45   24   43 1
  46   24   44 1

#	End of record

