#	Name: ASD08710042
#	Creating user name:	WinNT
#	Creation time:	15. 06. 2019 21:19

#	Modifying user name:	WinNT
#	Modification time:	15. 06. 2019 21:19

#	Program:	/corina/corina34_cracker 3.40 0067  02.08.2006

@<TRIPOS>MOLECULE
ASD08710042
  53   55    0    0    0
SMALL
NO_CHARGES


@<TRIPOS>ATOM
   1 C1             3.4614    -1.0069     1.6090 C.ar    
   2 C2             3.3796    -2.3120     1.1690 C.ar    
   3 C3             2.5997    -0.0416     1.0848 C.ar    
   4 C4             1.6600    -0.4050     0.1177 C.ar    
   5 C5             1.5891    -1.7134    -0.3130 C.ar    
   6 C6             2.4467    -2.6649     0.2105 C.ar    
   7 S7             2.3491    -4.3340    -0.3456 S.o2    
   8 O8             3.3804    -5.0424     0.3283 O.2     
   9 O9             0.9784    -4.7016    -0.2733 O.2     
  10 N10            2.7507    -4.3398    -1.9522 N.am    
  11 C11            4.1593    -4.3538    -2.3710 C.3     
  12 C12            1.7048    -4.3371    -2.9846 C.3     
  13 C13            1.9321    -5.5344    -3.9156 C.3     
  14 N14            3.3408    -5.5428    -4.3345 N.am    
  15 C15            4.3815    -5.5511    -3.3034 C.3     
  16 C16            3.6676    -5.5484    -5.6421 C.2     
  17 C17            5.0829    -5.6756    -6.0497 C.ar    
  18 O18            2.7986    -5.4487    -6.4861 O.2     
  19 C19            5.6409    -4.7818    -6.9649 C.ar    
  20 N20            6.9014    -4.8951    -7.3280 N.ar    
  21 C21            7.6820    -5.8451    -6.8490 C.ar    
  22 C22            7.2046    -6.7699    -5.9381 C.ar    
  23 C23            5.8877    -6.6911    -5.5199 C.ar    
  24 C24            2.6786     1.3148     1.5370 C.1     
  25 C25            4.7933    -3.6779    -7.5428 C.3     
  26 C26            9.1170    -5.9240    -7.3024 C.3     
  27 C27            1.6100    -6.8319    -3.1715 C.3     
  28 C28            0.5757    -2.1074    -1.3565 C.3     
  29 N29            2.7412     2.3908     1.8958 N.1     
  30 H30            4.1875    -0.7335     2.3603 H       
  31 H31            4.0456    -3.0597     1.5737 H       
  32 H32            0.9901     0.3366    -0.2917 H       
  33 H33            4.3929    -3.4299    -2.9001 H       
  34 H34            4.8006    -4.4485    -1.4948 H       
  35 H35            0.7254    -4.4208    -2.5134 H       
  36 H36            1.7595    -3.4119    -3.5584 H       
  37 H37            1.2904    -5.4434    -4.7920 H       
  38 H38            5.3618    -5.4666    -3.7724 H       
  39 H39            4.3245    -6.4786    -2.7336 H       
  40 H40            7.8538    -7.5428    -5.5540 H       
  41 H41            5.4888    -7.4001    -4.8095 H       
  42 H42            4.7842    -2.8302    -6.8577 H       
  43 H43            5.2074    -3.3658    -8.5015 H       
  44 H44            3.7751    -4.0393    -7.6871 H       
  45 H45            9.7411    -5.3251    -6.6391 H       
  46 H46            9.4499    -6.9616    -7.2757 H       
  47 H47            9.1980    -5.5425    -8.3202 H       
  48 H48            0.5690    -6.8168    -2.8487 H       
  49 H49            1.7723    -7.6813    -3.8352 H       
  50 H50            2.2592    -6.9221    -2.3006 H       
  51 H51            1.0159    -2.0030    -2.3482 H       
  52 H52            0.2764    -3.1436    -1.1992 H       
  53 H53           -0.2981    -1.4607    -1.2769 H       
@<TRIPOS>BOND
   1    1    2 ar
   2    1    3 ar
   3    1   30 1
   4    2    6 ar
   5    2   31 1
   6    3    4 ar
   7    3   24 1
   8    4    5 ar
   9    4   32 1
  10    5    6 ar
  11    5   28 1
  12    6    7 1
  13    7    8 2
  14    7    9 2
  15    7   10 am
  16   10   11 1
  17   10   12 1
  18   11   15 1
  19   11   33 1
  20   11   34 1
  21   12   13 1
  22   12   35 1
  23   12   36 1
  24   13   14 1
  25   13   27 1
  26   13   37 1
  27   14   15 1
  28   14   16 am
  29   15   38 1
  30   15   39 1
  31   16   17 1
  32   16   18 2
  33   17   19 ar
  34   17   23 ar
  35   19   20 ar
  36   19   25 1
  37   20   21 ar
  38   21   22 ar
  39   21   26 1
  40   22   23 ar
  41   22   40 1
  42   23   41 1
  43   24   29 3
  44   25   42 1
  45   25   43 1
  46   25   44 1
  47   26   45 1
  48   26   46 1
  49   26   47 1
  50   27   48 1
  51   27   49 1
  52   27   50 1
  53   28   51 1
  54   28   52 1
  55   28   53 1

#	End of record

