#	Name: ASD01148835
#	Creating user name:	WinNT
#	Creation time:	15. 06. 2019 19:03

#	Modifying user name:	WinNT
#	Modification time:	15. 06. 2019 19:03

#	Program:	/corina/corina34_cracker 3.40 0067  02.08.2006

@<TRIPOS>MOLECULE
ASD01148835
  47   49    0    0    0
SMALL
NO_CHARGES


@<TRIPOS>ATOM
   1 N1            -0.0155     1.3412     0.0827 N.pl3   
   2 C2             0.0020     0.0055    -0.1104 C.2     
   3 C3             1.3175    -0.4068    -0.1563 C.2     
   4 C4             2.1209     0.7506     0.0195 C.2     
   5 C5             1.2772     1.8041     0.1631 C.2     
   6 C6             1.7970    -1.7843    -0.3498 C.2     
   7 O7             1.0000    -2.6914    -0.4886 O.2     
   8 O8             3.1201    -2.0403    -0.3731 O.3     
   9 C9            -1.1680     2.1320     0.1798 C.ar    
  10 C10           -2.0094     2.0037     1.2768 C.ar    
  11 C11           -3.1446     2.7849     1.3699 C.ar    
  12 C12           -3.4437     3.6939     0.3717 C.ar    
  13 C13           -2.6080     3.8237    -0.7223 C.ar    
  14 C14           -1.4681     3.0497    -0.8181 C.ar    
  15 S15           -4.8931     4.6884     0.4938 S.o2    
  16 O16           -5.2279     5.0743    -0.8323 O.2     
  17 O17           -5.7877     3.9906     1.3494 O.2     
  18 N18           -4.4696     6.0762     1.2918 N.am    
  19 C19           -1.2074    -0.8827    -0.2507 C.3     
  20 C20            1.6798     3.2120     0.3702 C.ar    
  21 C21            0.7825     4.1219     0.9310 C.ar    
  22 C22            1.1637     5.4339     1.1217 C.ar    
  23 C23            2.4338     5.8486     0.7579 C.ar    
  24 C24            3.3282     4.9504     0.2007 C.ar    
  25 C25            2.9604     3.6344     0.0109 C.ar    
  26 Cl26           2.9064     7.5012     1.0010 Cl      
  27 C27            3.5209    -3.4222    -0.5681 C.3     
  28 C28            5.0480    -3.5156    -0.5659 C.3     
  29 H29            3.2002     0.7860     0.0359 H       
  30 H30           -1.7766     1.2934     2.0564 H       
  31 H31           -3.7994     2.6856     2.2229 H       
  32 H32           -2.8447     4.5340    -1.5007 H       
  33 H33           -0.8134     3.1547    -1.6706 H       
  34 H34           -4.9357     6.9057     1.1030 H       
  35 H35           -3.7554     6.0597     1.9480 H       
  36 H36           -1.4890    -0.9497    -1.3015 H       
  37 H37           -0.9730    -1.8780     0.1269 H       
  38 H38           -2.0349    -0.4627     0.3212 H       
  39 H39           -0.2084     3.7997     1.2148 H       
  40 H40            0.4701     6.1390     1.5553 H       
  41 H41            4.3173     5.2796    -0.0815 H       
  42 H42            3.6604     2.9336    -0.4194 H       
  43 H43            3.1183    -4.0346     0.2388 H       
  44 H44            3.1363    -3.7808    -1.5229 H       
  45 H45            5.3488    -4.5530    -0.7123 H       
  46 H46            5.4506    -2.9032    -1.3728 H       
  47 H47            5.4326    -3.1570     0.3889 H       
@<TRIPOS>BOND
   1    1    2 1
   2    1    5 1
   3    1    9 1
   4    2    3 2
   5    2   19 1
   6    3    4 1
   7    3    6 1
   8    4    5 2
   9    4   29 1
  10    5   20 1
  11    6    7 2
  12    6    8 1
  13    8   27 1
  14    9   10 ar
  15    9   14 ar
  16   10   11 ar
  17   10   30 1
  18   11   12 ar
  19   11   31 1
  20   12   13 ar
  21   12   15 1
  22   13   14 ar
  23   13   32 1
  24   14   33 1
  25   15   16 2
  26   15   17 2
  27   15   18 am
  28   18   34 1
  29   18   35 1
  30   19   36 1
  31   19   37 1
  32   19   38 1
  33   20   21 ar
  34   20   25 ar
  35   21   22 ar
  36   21   39 1
  37   22   23 ar
  38   22   40 1
  39   23   24 ar
  40   23   26 1
  41   24   25 ar
  42   24   41 1
  43   25   42 1
  44   27   28 1
  45   27   43 1
  46   27   44 1
  47   28   45 1
  48   28   46 1
  49   28   47 1

#	End of record

