#	Name: ASD01914040
#	Creating user name:	WinNT
#	Creation time:	15. 06. 2019 20:02

#	Modifying user name:	WinNT
#	Modification time:	15. 06. 2019 20:02

#	Program:	/corina/corina34_cracker 3.40 0067  02.08.2006

@<TRIPOS>MOLECULE
ASD01914040
  46   49    0    0    0
SMALL
NO_CHARGES


@<TRIPOS>ATOM
   1 C1            -0.0167     1.3784     0.0096 C.ar    
   2 C2             0.0021    -0.0041     0.0020 C.ar    
   3 C3             1.2074    -0.6814    -0.0131 C.ar    
   4 C4             2.3802     1.4093    -0.0131 C.ar    
   5 C5             1.1695     2.0865     0.0021 C.ar    
   6 O6             3.5484     2.1036    -0.0201 O.3     
   7 C7             4.7565     1.3405    -0.0357 C.3     
   8 C8             5.9399     2.2735    -0.0414 C.ar    
   9 N9             7.1606     1.7732    -0.0557 N.ar    
  10 C10            8.2282     2.5442    -0.0613 C.ar    
  11 C11            8.1003     3.9335    -0.0517 C.ar    
  12 C12            6.8174     4.4944    -0.0366 C.ar    
  13 C13            5.7285     3.6408    -0.0374 C.ar    
  14 C14            9.2990     4.7988    -0.0571 C.2     
  15 N15           10.5284     4.2469    -0.0712 N.am    
  16 O16            9.1757     6.0080    -0.0486 O.2     
  17 C17            2.3963     0.0221    -0.0207 C.ar    
  18 C18           11.7163     5.1043    -0.0765 C.3     
  19 C19           12.9237     4.3504     0.5201 C.3     
  20 C20           13.5823     3.7354    -0.7331 C.3     
  21 C21           13.1909     4.6489    -1.8749 C.ar    
  22 C22           12.1188     5.4354    -1.4977 C.ar    
  23 C23           13.7306     4.7816    -3.1435 C.ar    
  24 C24           13.2010     5.6968    -4.0318 C.ar    
  25 C25           12.1285     6.4835    -3.6545 C.ar    
  26 C26           11.5883     6.3518    -2.3903 C.ar    
  27 H27           -0.9595     1.9052     0.0169 H       
  28 H28           -0.9263    -0.5558     0.0083 H       
  29 H29            1.2194    -1.7613    -0.0187 H       
  30 H30            1.1543     3.1664     0.0077 H       
  31 H31            4.7976     0.7070     0.8504 H       
  32 H32            4.7810     0.7171    -0.9295 H       
  33 H33            9.2113     2.0972    -0.0730 H       
  34 H34            6.6813     5.5658    -0.0288 H       
  35 H35            4.7241     4.0376    -0.0259 H       
  36 H36           10.6268     3.2819    -0.0780 H       
  37 H37            3.3375    -0.5074    -0.0325 H       
  38 H38           11.5250     6.0178     0.4865 H       
  39 H39           13.6052     5.0413     1.0164 H       
  40 H40           12.5931     3.5706     1.2062 H       
  41 H41           14.6661     3.7151    -0.6194 H       
  42 H42           13.2004     2.7292    -0.9058 H       
  43 H43           14.5686     4.1677    -3.4388 H       
  44 H44           13.6243     5.7981    -5.0202 H       
  45 H45           11.7130     7.1996    -4.3480 H       
  46 H46           10.7506     6.9668    -2.0963 H       
@<TRIPOS>BOND
   1    1    2 ar
   2    1    5 ar
   3    1   27 1
   4    2    3 ar
   5    2   28 1
   6    3   17 ar
   7    3   29 1
   8    4    5 ar
   9    4    6 1
  10    4   17 ar
  11    5   30 1
  12    6    7 1
  13    7    8 1
  14    7   31 1
  15    7   32 1
  16    8    9 ar
  17    8   13 ar
  18    9   10 ar
  19   10   11 ar
  20   10   33 1
  21   11   12 ar
  22   11   14 1
  23   12   13 ar
  24   12   34 1
  25   13   35 1
  26   14   15 am
  27   14   16 2
  28   15   18 1
  29   15   36 1
  30   17   37 1
  31   18   19 1
  32   18   22 1
  33   18   38 1
  34   19   20 1
  35   19   39 1
  36   19   40 1
  37   20   21 1
  38   20   41 1
  39   20   42 1
  40   21   22 ar
  41   21   23 ar
  42   22   26 ar
  43   23   24 ar
  44   23   43 1
  45   24   25 ar
  46   24   44 1
  47   25   26 ar
  48   25   45 1
  49   26   46 1

#	End of record

