#	Name: ASD03430240
#	Creating user name:	WinNT
#	Creation time:	15. 06. 2019 20:40

#	Modifying user name:	WinNT
#	Modification time:	15. 06. 2019 20:40

#	Program:	/corina/corina34_cracker 3.40 0067  02.08.2006

@<TRIPOS>MOLECULE
ASD03430240
  55   60    0    0    0
SMALL
NO_CHARGES


@<TRIPOS>ATOM
   1 C1            -0.3826     1.3838     1.0784 C.ar    
   2 C2            -0.2883     0.0154     0.8769 C.ar    
   3 C3             0.9437    -0.6039     0.8834 C.ar    
   4 C4             2.1050     0.1310     1.1022 C.ar    
   5 C5             2.0071     1.5045     1.3008 C.ar    
   6 C6             0.7714     2.1293     1.2903 C.ar    
   7 O7             3.2068    -0.6727     1.0965 O.3     
   8 C8             1.3722    -2.0320     0.6773 C.3     
   9 C9             2.8850    -1.9162     0.4446 C.3     
  10 C10            0.2484    -3.9256     1.3644 C.ar    
  11 C11            1.0517    -2.9001     1.8576 C.ar    
  12 C12            0.6761    -2.6728    -0.4889 C.2     
  13 N13            0.0480    -3.7644    -0.0086 N.am    
  14 O14            0.6781    -2.2839    -1.6377 O.2     
  15 C15            1.3844    -2.8513     3.1926 C.ar    
  16 C16            0.9209    -3.8262     4.0586 C.ar    
  17 C17            0.1232    -4.8489     3.5799 C.ar    
  18 C18           -0.2129    -4.9025     2.2428 C.ar    
  19 C19           -0.7511    -4.6762    -0.8310 C.3     
  20 O20           -1.6063     1.9805     1.0603 O.3     
  21 C21           -1.6915     3.2915     1.6296 C.3     
  22 C22           -0.5134     4.1215     1.1020 C.3     
  23 O23            0.7020     3.4740     1.4926 O.3     
  24 C24           -2.2052    -4.2908    -0.7402 C.ar    
  25 N25           -2.9289    -4.7102     0.2782 N.ar    
  26 C26           -4.2045    -4.3982     0.3995 C.ar    
  27 C27           -4.8368    -3.6126    -0.5460 C.ar    
  28 C28           -4.1146    -3.1494    -1.6336 C.ar    
  29 C29           -2.7680    -3.4922    -1.7280 C.ar    
  30 N30           -1.9974    -3.0490    -2.8058 N.am    
  31 S31           -2.2718    -1.5525    -3.4597 S.o2    
  32 O32           -1.3383    -1.4600    -4.5271 O.2     
  33 O33           -3.6711    -1.5289    -3.7062 O.2     
  34 C34           -1.8394    -0.3928    -2.1336 C.3     
  35 H35           -1.1829    -0.5677     0.7147 H       
  36 H36            2.9012     2.0876     1.4646 H       
  37 H37            3.1098    -1.8642    -0.6207 H       
  38 H38            3.4133    -2.7467     0.9127 H       
  39 H39            2.0080    -2.0517     3.5643 H       
  40 H40            1.1820    -3.7883     5.1059 H       
  41 H41           -0.2383    -5.6098     4.2558 H       
  42 H42           -0.8362    -5.7048     1.8763 H       
  43 H43           -0.4224    -4.6125    -1.8683 H       
  44 H44           -0.6227    -5.6971    -0.4712 H       
  45 H45           -2.6313     3.7593     1.3363 H       
  46 H46           -1.6368     3.2247     2.7162 H       
  47 H47           -0.5641     4.1820     0.0149 H       
  48 H48           -0.5497     5.1239     1.5286 H       
  49 H49           -4.7631    -4.7619     1.2492 H       
  50 H50           -5.8821    -3.3632    -0.4382 H       
  51 H51           -4.5830    -2.5339    -2.3874 H       
  52 H52           -1.3017    -3.6177    -3.1710 H       
  53 H53           -0.7941    -0.5306    -1.8569 H       
  54 H54           -1.9917     0.6292    -2.4806 H       
  55 H55           -2.4725    -0.5802    -1.2663 H       
@<TRIPOS>BOND
   1    1    2 ar
   2    1    6 ar
   3    1   20 1
   4    2    3 ar
   5    2   35 1
   6    3    4 ar
   7    3    8 1
   8    4    5 ar
   9    4    7 1
  10    5    6 ar
  11    5   36 1
  12    6   23 1
  13    7    9 1
  14    8    9 1
  15    8   11 1
  16    8   12 1
  17    9   37 1
  18    9   38 1
  19   10   11 ar
  20   10   13 1
  21   10   18 ar
  22   11   15 ar
  23   12   13 am
  24   12   14 2
  25   13   19 1
  26   15   16 ar
  27   15   39 1
  28   16   17 ar
  29   16   40 1
  30   17   18 ar
  31   17   41 1
  32   18   42 1
  33   19   24 1
  34   19   43 1
  35   19   44 1
  36   20   21 1
  37   21   22 1
  38   21   45 1
  39   21   46 1
  40   22   23 1
  41   22   47 1
  42   22   48 1
  43   24   25 ar
  44   24   29 ar
  45   25   26 ar
  46   26   27 ar
  47   26   49 1
  48   27   28 ar
  49   27   50 1
  50   28   29 ar
  51   28   51 1
  52   29   30 1
  53   30   31 am
  54   30   52 1
  55   31   32 2
  56   31   33 2
  57   31   34 1
  58   34   53 1
  59   34   54 1
  60   34   55 1

#	End of record

