#	Name: ASD00431198
#	Creating user name:	WinNT
#	Creation time:	15. 06. 2019 18:35

#	Modifying user name:	WinNT
#	Modification time:	15. 06. 2019 18:35

#	Program:	/corina/corina34_cracker 3.40 0067  02.08.2006

@<TRIPOS>MOLECULE
ASD00431198
  54   56    0    0    0
SMALL
NO_CHARGES


@<TRIPOS>ATOM
   1 C1            -0.1108     1.1938    -0.5956 C.2     
   2 N2             0.0000    -0.0078     0.0047 N.am    
   3 O3             0.8452     1.6767    -1.1697 O.2     
   4 O4            -1.2825     1.8566    -0.5640 O.3     
   5 C5             1.1926    -0.7370    -0.1015 C.ar    
   6 C6             1.1736    -2.1216     0.0164 C.ar    
   7 C7             2.3494    -2.8393    -0.0884 C.ar    
   8 C8             3.5486    -2.1776    -0.3112 C.ar    
   9 C9             3.5676    -0.7955    -0.4285 C.ar    
  10 C10            2.3919    -0.0771    -0.3301 C.ar    
  11 Cl11          -0.3268    -2.9490     0.2958 Cl      
  12 O12            4.7056    -2.8841    -0.4143 O.3     
  13 S13            6.1665    -4.7840    -1.7018 S.3     
  14 C14            4.8455    -3.7248    -1.4667 C.2     
  15 N15            3.9957    -3.8416    -2.4405 N.2     
  16 C16            4.2839    -4.7076    -3.3865 C.2     
  17 C17            5.4489    -5.3641    -3.2027 C.2     
  18 O18            6.2144    -7.6633    -5.7169 O.3     
  19 N19            5.4943    -6.8240    -5.2188 N.2     
  20 C20            6.0206    -6.3873    -4.1004 C.2     
  21 N21            7.1878    -7.0508    -3.9240 N.2     
  22 C22            7.2953    -7.8527    -4.9534 C.2     
  23 C23            8.4267    -8.8099    -5.2268 C.3     
  24 C24            7.9685   -10.2392    -4.9296 C.3     
  25 N25            8.8244    -8.7070    -6.6330 N.am    
  26 C26           10.0739    -9.0474    -7.0065 C.2     
  27 O27           10.8689    -9.4390    -6.1785 O.2     
  28 C28           10.4830    -8.9416    -8.4530 C.3     
  29 C29           -1.3290     3.1453    -1.2315 C.3     
  30 C30           -0.9993     2.9637    -2.7145 C.3     
  31 C31           -2.7305     3.7426    -1.0901 C.3     
  32 C32           -0.3064     4.0875    -0.5933 C.3     
  33 H33           -0.7453    -0.3680     0.5102 H       
  34 H34            2.3354    -3.9153     0.0035 H       
  35 H35            4.5014    -0.2812    -0.6016 H       
  36 H36            2.4066     0.9985    -0.4262 H       
  37 H37            3.6429    -4.8793    -4.2387 H       
  38 H38            9.2754    -8.5607    -4.5899 H       
  39 H39            7.1197   -10.4884    -5.5665 H       
  40 H40            8.7868   -10.9315    -5.1274 H       
  41 H41            7.6725   -10.3157    -3.8834 H       
  42 H42            8.1886    -8.3939    -7.2952 H       
  43 H43           10.8925    -7.9494    -8.6431 H       
  44 H44           11.2394    -9.6950    -8.6728 H       
  45 H45            9.6131    -9.1037    -9.0895 H       
  46 H46           -1.7278     2.2925    -3.1692 H       
  47 H47           -1.0342     3.9311    -3.2155 H       
  48 H48           -0.0008     2.5382    -2.8152 H       
  49 H49           -2.9655     3.8719    -0.0336 H       
  50 H50           -2.7655     4.7099    -1.5912 H       
  51 H51           -3.4591     3.0714    -1.5448 H       
  52 H52            0.6921     3.6619    -0.6940 H       
  53 H53           -0.3413     5.0548    -1.0943 H       
  54 H54           -0.5413     4.2168     0.4632 H       
@<TRIPOS>BOND
   1    1    2 am
   2    1    3 2
   3    1    4 1
   4    2    5 1
   5    2   33 1
   6    4   29 1
   7    5    6 ar
   8    5   10 ar
   9    6    7 ar
  10    6   11 1
  11    7    8 ar
  12    7   34 1
  13    8    9 ar
  14    8   12 1
  15    9   10 ar
  16    9   35 1
  17   10   36 1
  18   12   14 1
  19   13   14 1
  20   13   17 1
  21   14   15 2
  22   15   16 1
  23   16   17 2
  24   16   37 1
  25   17   20 1
  26   18   19 1
  27   18   22 1
  28   19   20 2
  29   20   21 1
  30   21   22 2
  31   22   23 1
  32   23   24 1
  33   23   25 1
  34   23   38 1
  35   24   39 1
  36   24   40 1
  37   24   41 1
  38   25   26 am
  39   25   42 1
  40   26   27 2
  41   26   28 1
  42   28   43 1
  43   28   44 1
  44   28   45 1
  45   29   30 1
  46   29   32 1
  47   29   31 1
  48   30   46 1
  49   30   47 1
  50   30   48 1
  51   31   49 1
  52   31   50 1
  53   31   51 1
  54   32   52 1
  55   32   53 1
  56   32   54 1

#	End of record

