#	Name: ASD03910008
#	Creating user name:	WinNT
#	Creation time:	15. 06. 2019 20:47

#	Modifying user name:	WinNT
#	Modification time:	15. 06. 2019 20:47

#	Program:	/corina/corina34_cracker 3.40 0067  02.08.2006

@<TRIPOS>MOLECULE
ASD03910008
  36   37    0    0    0
SMALL
NO_CHARGES


@<TRIPOS>ATOM
   1 C1            -1.0478    -0.4606    -0.7540 C.ar    
   2 C2             0.0012    -0.0061     0.0241 C.ar    
   3 C3            -0.1545     1.1214     0.8094 C.ar    
   4 C4            -1.3591     1.7969     0.8192 C.ar    
   5 C5            -2.4145     1.3430     0.0390 C.ar    
   6 C6            -2.2529     0.2140    -0.7533 C.ar    
   7 N7            -3.6362     2.0252     0.0467 N.am    
   8 C8             0.9912     1.6133     1.6558 C.3     
   9 C9            -3.6573     3.3683     0.1559 C.2     
  10 C10           -4.9646     4.1117     0.0587 C.3     
  11 O11           -2.6243     3.9788     0.3323 O.2     
  12 C12           -4.7146     5.5899     0.2121 C.ar    
  13 C13           -4.4559     6.3654    -0.9030 C.ar    
  14 C14           -4.2264     7.7207    -0.7650 C.ar    
  15 C15           -4.2555     8.3034     0.4936 C.ar    
  16 C16           -4.5153     7.5230     1.6109 C.ar    
  17 C17           -4.7498     6.1692     1.4670 C.ar    
  18 O18           -4.0296     9.6363     0.6320 O.3     
  19 C19           -0.8737    -1.6898    -1.6083 C.3     
  20 H20            0.9439    -0.5330     0.0187 H       
  21 H21           -1.4804     2.6771     1.4333 H       
  22 H22           -3.0716    -0.1413    -1.3615 H       
  23 H23           -4.4678     1.5314    -0.0265 H       
  24 H24            1.5908     2.3190     1.0809 H       
  25 H25            0.6000     2.1084     2.5445 H       
  26 H26            1.6116     0.7681     1.9541 H       
  27 H27           -5.4208     3.9192    -0.9123 H       
  28 H28           -5.6349     3.7727     0.8486 H       
  29 H29           -4.4330     5.9113    -1.8826 H       
  30 H30           -4.0240     8.3260    -1.6363 H       
  31 H31           -4.5385     7.9743     2.5918 H       
  32 H32           -4.9520     5.5613     2.3365 H       
  33 H33           -4.8288    10.1782     0.5797 H       
  34 H34           -1.1551    -2.5733    -1.0354 H       
  35 H35           -1.5086    -1.6117    -2.4909 H       
  36 H36            0.1685    -1.7734    -1.9167 H       
@<TRIPOS>BOND
   1    1    2 ar
   2    1   19 1
   3    1    6 ar
   4    2    3 ar
   5    2   20 1
   6    3    4 ar
   7    3    8 1
   8    4    5 ar
   9    4   21 1
  10    5    6 ar
  11    5    7 1
  12    6   22 1
  13    7    9 am
  14    7   23 1
  15    8   24 1
  16    8   25 1
  17    8   26 1
  18    9   10 1
  19    9   11 2
  20   10   12 1
  21   10   27 1
  22   10   28 1
  23   12   13 ar
  24   12   17 ar
  25   13   14 ar
  26   13   29 1
  27   14   15 ar
  28   14   30 1
  29   15   16 ar
  30   15   18 1
  31   16   17 ar
  32   16   31 1
  33   17   32 1
  34   18   33 1
  35   19   34 1
  36   19   35 1
  37   19   36 1

#	End of record

