#	Name: ASD03430257
#	Creating user name:	WinNT
#	Creation time:	15. 06. 2019 20:40

#	Modifying user name:	WinNT
#	Modification time:	15. 06. 2019 20:40

#	Program:	/corina/corina34_cracker 3.40 0067  02.08.2006

@<TRIPOS>MOLECULE
ASD03430257
  50   55    0    0    0
SMALL
NO_CHARGES


@<TRIPOS>ATOM
   1 C1            -0.5910     0.9121    -0.9499 C.ar    
   2 C2            -0.5727    -0.4605    -0.7524 C.ar    
   3 C3             0.5968    -1.1702    -0.9205 C.ar    
   4 C4             1.7742    -0.5209    -1.2806 C.ar    
   5 C5             1.7516     0.8551    -1.4814 C.ar    
   6 C6             0.5768     1.5702    -1.3161 C.ar    
   7 O7             2.8147    -1.3981    -1.3680 O.3     
   8 C8             0.9319    -2.6331    -0.8045 C.3     
   9 C9             2.2992    -2.7372    -1.4936 C.3     
  10 C10           -0.5536    -4.3642    -0.4625 C.ar    
  11 C11           -0.0945    -3.5081    -1.4608 C.ar    
  12 C12            0.9899    -3.0904     0.6248 C.2     
  13 N13            0.0987    -4.0945     0.7430 N.am    
  14 O14            1.7001    -2.6441     1.5009 O.2     
  15 C15           -0.5959    -3.5918    -2.7400 C.ar    
  16 C16           -1.5662    -4.5307    -3.0444 C.ar    
  17 C17           -2.0310    -5.3840    -2.0607 C.ar    
  18 C18           -1.5305    -5.3049    -0.7774 C.ar    
  19 C19           -0.1567    -4.8186     1.9907 C.3     
  20 C20            0.7558    -6.0152     2.0729 C.ar    
  21 N21            1.6940    -6.1832     1.1614 N.ar    
  22 C22            0.6034    -6.9206     3.1056 C.ar    
  23 C23            1.4481    -8.0183     3.1721 C.ar    
  24 C24            2.4185    -8.1643     2.1929 C.ar    
  25 C25            2.5148    -7.2146     1.1931 C.ar    
  26 O26           -1.7568     1.5964    -0.7873 O.3     
  27 C27           -1.6546     3.0166    -0.6373 C.3     
  28 C28           -0.6897     3.5444    -1.7077 C.3     
  29 O29            0.5826     2.9178    -1.5126 O.3     
  30 C30           -0.4671    -6.7174     4.1467 C.3     
  31 F31           -0.1422    -7.4436     5.2975 F       
  32 F32           -0.5575    -5.3577     4.4633 F       
  33 H33           -1.4779    -0.9750    -0.4655 H       
  34 H34            2.6568     1.3700    -1.7675 H       
  35 H35            2.1842    -3.0109    -2.5424 H       
  36 H36            2.9409    -3.4493    -0.9747 H       
  37 H37           -0.2320    -2.9240    -3.5068 H       
  38 H38           -1.9596    -4.5964    -4.0481 H       
  39 H39           -2.7894    -6.1154    -2.2978 H       
  40 H40           -1.8978    -5.9752    -0.0144 H       
  41 H41            0.0313    -4.1595     2.8383 H       
  42 H42           -1.1945    -5.1510     2.0121 H       
  43 H43            1.3526    -8.7420     3.9680 H       
  44 H44            3.0939    -9.0068     2.2136 H       
  45 H45            3.2679    -7.3213     0.4264 H       
  46 H46           -2.6360     3.4718    -0.7704 H       
  47 H47           -1.2697     3.2547     0.3542 H       
  48 H48           -1.0712     3.3001    -2.6991 H       
  49 H49           -0.5865     4.6250    -1.6088 H       
  50 H50           -1.4240    -7.0640     3.7564 H       
@<TRIPOS>BOND
   1    1    2 ar
   2    1    6 ar
   3    1   26 1
   4    2    3 ar
   5    2   33 1
   6    3    4 ar
   7    3    8 1
   8    4    5 ar
   9    4    7 1
  10    5    6 ar
  11    5   34 1
  12    6   29 1
  13    7    9 1
  14    8    9 1
  15    8   11 1
  16    8   12 1
  17    9   35 1
  18    9   36 1
  19   10   11 ar
  20   10   13 1
  21   10   18 ar
  22   11   15 ar
  23   12   13 am
  24   12   14 2
  25   13   19 1
  26   15   16 ar
  27   15   37 1
  28   16   17 ar
  29   16   38 1
  30   17   18 ar
  31   17   39 1
  32   18   40 1
  33   19   20 1
  34   19   41 1
  35   19   42 1
  36   20   21 ar
  37   20   22 ar
  38   21   25 ar
  39   22   23 ar
  40   22   30 1
  41   23   24 ar
  42   23   43 1
  43   24   25 ar
  44   24   44 1
  45   25   45 1
  46   26   27 1
  47   27   28 1
  48   27   46 1
  49   27   47 1
  50   28   29 1
  51   28   48 1
  52   28   49 1
  53   30   31 1
  54   30   32 1
  55   30   50 1

#	End of record

