#	Name: ASD01903197
#	Creating user name:	WinNT
#	Creation time:	15. 06. 2019 19:54

#	Modifying user name:	WinNT
#	Modification time:	15. 06. 2019 19:54

#	Program:	/corina/corina34_cracker 3.40 0067  02.08.2006

@<TRIPOS>MOLECULE
ASD01903197
  32   34    0    0    0
SMALL
NO_CHARGES


@<TRIPOS>ATOM
   1 S1            -0.0218     1.7569     0.0117 S.3     
   2 C2             0.0021    -0.0041     0.0020 C.2     
   3 N3             1.2324    -0.4171    -0.0119 N.2     
   4 C4             2.1781     0.5117    -0.0160 C.2     
   5 C5             1.7401     1.7811    -0.0050 C.2     
   6 N6            -1.1183    -0.8214     0.0090 N.pl3   
   7 C7            -2.3916    -0.2575     0.0245 C.ar    
   8 N8            -2.5260     1.0592     0.0324 N.ar    
   9 C9            -3.7140     1.6340     0.0467 C.ar    
  10 C10           -4.8677     0.8768     0.0538 C.ar    
  11 C11           -4.7725    -0.5089     0.0459 C.ar    
  12 C12           -3.5132    -1.0841     0.0257 C.ar    
  13 C13            3.6241     0.1715    -0.0312 C.2     
  14 C14            4.6409     0.8908    -0.6878 C.2     
  15 N15            5.7764     0.2815    -0.4691 N.2     
  16 N16            5.5313    -0.8422     0.3296 N.pl3   
  17 C17            4.2083    -0.8908     0.5933 C.2     
  18 C18           -3.8119     3.1378     0.0557 C.3     
  19 F19           -3.3739    -2.4279     0.0169 F       
  20 C20            2.6064     3.0143    -0.0071 C.3     
  21 H21           -1.0151    -1.7859     0.0032 H       
  22 H22           -5.8351     1.3569     0.0658 H       
  23 H23           -5.6605    -1.1236     0.0513 H       
  24 H24            4.5061     1.7898    -1.2709 H       
  25 H25            6.1975    -1.4740     0.6424 H       
  26 H26            3.7031    -1.6393     1.1857 H       
  27 H27           -3.8451     3.5059    -0.9697 H       
  28 H28           -4.7187     3.4397     0.5797 H       
  29 H29           -2.9426     3.5555     0.5637 H       
  30 H30            2.8050     3.3170    -1.0352 H       
  31 H31            2.0921     3.8204     0.5161 H       
  32 H32            3.5485     2.7973     0.4963 H       
@<TRIPOS>BOND
   1    1    2 1
   2    1    5 1
   3    2    3 2
   4    2    6 1
   5    3    4 1
   6    4    5 2
   7    4   13 1
   8    5   20 1
   9    6    7 1
  10    6   21 1
  11    7    8 ar
  12    7   12 ar
  13    8    9 ar
  14    9   10 ar
  15    9   18 1
  16   10   11 ar
  17   10   22 1
  18   11   12 ar
  19   11   23 1
  20   12   19 1
  21   13   14 1
  22   13   17 2
  23   14   15 2
  24   14   24 1
  25   15   16 1
  26   16   17 1
  27   16   25 1
  28   17   26 1
  29   18   27 1
  30   18   28 1
  31   18   29 1
  32   20   30 1
  33   20   31 1
  34   20   32 1

#	End of record

