#	Name: ASD01917512
#	Creating user name:	WinNT
#	Creation time:	15. 06. 2019 20:09

#	Modifying user name:	WinNT
#	Modification time:	15. 06. 2019 20:09

#	Program:	/corina/corina34_cracker 3.40 0067  02.08.2006

@<TRIPOS>MOLECULE
ASD01917512
  51   54    0    0    0
SMALL
NO_CHARGES


@<TRIPOS>ATOM
   1 S1            -0.0211     1.7053     0.0114 S.3     
   2 C2             0.0021    -0.0041     0.0020 C.2     
   3 N3             1.2212    -0.4385    -0.0120 N.2     
   4 C4             2.1785     0.4550    -0.0163 C.2     
   5 C5             1.7406     1.7389    -0.0052 C.2     
   6 C6             2.5827     2.9399    -0.0072 C.2     
   7 O7             3.7948     2.8331    -0.0198 O.2     
   8 N8             2.0140     4.1618     0.0048 N.am    
   9 C9             2.8551     5.3613     0.0028 C.3     
  10 C10            3.7999     5.4213     1.2158 C.3     
  11 C11            4.7930     6.5681     1.0181 C.3     
  12 C12            4.0472     7.8843     0.7895 C.3     
  13 C13            3.0918     7.7183    -0.4052 C.3     
  14 C14            3.8766     7.0040    -1.5298 C.3     
  15 C15            3.7269     5.4750    -1.2691 C.3     
  16 C16            2.0264     6.6729     0.0183 C.3     
  17 C17            2.7312    11.2804    -1.6905 C.ar    
  18 C18            3.5680    12.3125    -2.1093 C.ar    
  19 C19            3.0052    13.5086    -2.5253 C.ar    
  20 C20            1.6244    13.6311    -2.5080 C.ar    
  21 C21            0.8532    12.5629    -2.0788 C.ar    
  22 N22            1.4135    11.4387    -1.6892 N.ar    
  23 C23            3.3170     9.9932    -1.2485 C.2     
  24 O24            4.5226     9.8411    -1.2524 O.2     
  25 N25            2.5127     8.9910    -0.8422 N.am    
  26 C26           -0.6482    12.6912    -2.0582 C.3     
  27 C27           -1.2235    -0.8810     0.0098 C.3     
  28 H28            3.2260     0.1924    -0.0274 H       
  29 H29            1.0478     4.2469     0.0148 H       
  30 H30            3.2193     5.5938     2.1221 H       
  31 H31            4.3425     4.4799     1.3024 H       
  32 H32            5.4208     6.6585     1.9045 H       
  33 H33            5.4223     6.3553     0.1539 H       
  34 H34            3.4749     8.1388     1.6815 H       
  35 H35            4.7640     8.6772     0.5758 H       
  36 H36            3.4551     7.2602    -2.5018 H       
  37 H37            4.9285     7.2871    -1.4906 H       
  38 H38            4.7047     5.0261    -1.0943 H       
  39 H39            3.2329     4.9834    -2.1071 H       
  40 H40            1.2045     6.6245    -0.6960 H       
  41 H41            1.6584     6.8909     1.0209 H       
  42 H42            4.6401    12.1824    -2.1094 H       
  43 H43            3.6281    14.3269    -2.8552 H       
  44 H44            1.1545    14.5501    -2.8255 H       
  45 H45            1.5503     9.1124    -0.8392 H       
  46 H46           -1.0538    12.3666    -3.0164 H       
  47 H47           -1.0552    12.0683    -1.2617 H       
  48 H48           -0.9216    13.7315    -1.8816 H       
  49 H49           -1.5294    -1.0869    -1.0159 H       
  50 H50           -0.9959    -1.8189     0.5163 H       
  51 H51           -2.0316    -0.3714     0.5346 H       
@<TRIPOS>BOND
   1    1    2 1
   2    1    5 1
   3    2    3 2
   4    2   27 1
   5    3    4 1
   6    4    5 2
   7    4   28 1
   8    5    6 1
   9    6    7 2
  10    6    8 am
  11    8    9 1
  12    8   29 1
  13    9   10 1
  14    9   15 1
  15    9   16 1
  16   10   11 1
  17   10   30 1
  18   10   31 1
  19   11   12 1
  20   11   32 1
  21   11   33 1
  22   12   13 1
  23   12   34 1
  24   12   35 1
  25   13   14 1
  26   13   16 1
  27   13   25 1
  28   14   15 1
  29   14   36 1
  30   14   37 1
  31   15   38 1
  32   15   39 1
  33   16   40 1
  34   16   41 1
  35   17   18 ar
  36   17   22 ar
  37   17   23 1
  38   18   19 ar
  39   18   42 1
  40   19   20 ar
  41   19   43 1
  42   20   21 ar
  43   20   44 1
  44   21   22 ar
  45   21   26 1
  46   23   24 2
  47   23   25 am
  48   25   45 1
  49   26   46 1
  50   26   47 1
  51   26   48 1
  52   27   49 1
  53   27   50 1
  54   27   51 1

#	End of record

