#	Name: ASD01912436
#	Creating user name:	WinNT
#	Creation time:	15. 06. 2019 19:59

#	Modifying user name:	WinNT
#	Modification time:	15. 06. 2019 19:59

#	Program:	/corina/corina34_cracker 3.40 0067  02.08.2006

@<TRIPOS>MOLECULE
ASD01912436
  47   49    0    0    0
SMALL
NO_CHARGES


@<TRIPOS>ATOM
   1 C1            -0.3204     0.5433    -1.6324 C.1     
   2 C2            -0.1768     1.6985    -0.7984 C.ar    
   3 C3             1.0244     2.4292    -0.7862 C.ar    
   4 C4             1.1086     3.5433     0.0434 C.ar    
   5 C5             0.0236     3.8938     0.8202 C.ar    
   6 N6            -1.0950     3.1929     0.7928 N.ar    
   7 C7            -1.2354     2.1277     0.0194 C.ar    
   8 N8            -0.4343    -0.3731    -2.2940 N.1     
   9 O9             2.0727     2.0580    -1.5614 O.3     
  10 C10            3.2529     2.8600    -1.4839 C.3     
  11 C11            4.3190     2.2904    -2.4220 C.3     
  12 N12           -2.4302     1.4290     0.0211 N.3     
  13 C13           -3.5731     2.3415     0.1509 C.3     
  14 C14           -4.8733     1.5672    -0.0943 C.3     
  15 C15           -4.8953     0.3714     0.8346 C.2     
  16 C16           -3.6607    -0.5039     0.8876 C.3     
  17 C17           -2.4376     0.4020     1.0705 C.3     
  18 C18           -5.9655     0.0987     1.5809 C.2     
  19 C19           -5.9605    -1.0384     2.4512 C.1     
  20 C20           -5.9565    -1.9707     3.1648 C.1     
  21 C21           -5.9515    -3.1079     4.0351 C.ar    
  22 C22           -7.0800    -3.3864     4.8152 C.ar    
  23 C23           -7.0691    -4.4747     5.6451 C.ar    
  24 C24           -5.9183    -5.2771     5.6834 C.ar    
  25 C25           -4.8266    -4.9409     4.8776 C.ar    
  26 N26           -4.8756    -3.8905     4.0885 N.ar    
  27 C27           -5.8629    -6.4252     6.5375 C.1     
  28 N28           -5.8190    -7.3359     7.2150 N.1     
  29 H29            2.0157     4.1284     0.0791 H       
  30 H30            0.0907     4.7585     1.4637 H       
  31 H31            3.0176     3.8824    -1.7796 H       
  32 H32            3.6290     2.8550    -0.4609 H       
  33 H33            5.2193     2.9021    -2.3629 H       
  34 H34            4.5544     1.2680    -2.1264 H       
  35 H35            3.9429     2.2954    -3.4450 H       
  36 H36           -3.5869     2.7665     1.1546 H       
  37 H37           -3.4835     3.1430    -0.5823 H       
  38 H38           -5.7287     2.2100     0.1135 H       
  39 H39           -4.9099     1.2290    -1.1299 H       
  40 H40           -3.7355    -1.1945     1.7276 H       
  41 H41           -3.5672    -1.0644    -0.0426 H       
  42 H42           -1.5288    -0.1957     1.0006 H       
  43 H43           -2.4834     0.8816     2.0482 H       
  44 H44           -6.8363     0.7354     1.5292 H       
  45 H45           -7.9501    -2.7488     4.7629 H       
  46 H46           -7.9271    -4.7106     6.2571 H       
  47 H47           -3.9364    -5.5520     4.9004 H       
@<TRIPOS>BOND
   1    1    2 1
   2    1    8 3
   3    2    3 ar
   4    2    7 ar
   5    3    4 ar
   6    3    9 1
   7    4    5 ar
   8    4   29 1
   9    5    6 ar
  10    5   30 1
  11    6    7 ar
  12    7   12 1
  13    9   10 1
  14   10   11 1
  15   10   31 1
  16   10   32 1
  17   11   33 1
  18   11   34 1
  19   11   35 1
  20   12   13 1
  21   12   17 1
  22   13   14 1
  23   13   36 1
  24   13   37 1
  25   14   15 1
  26   14   38 1
  27   14   39 1
  28   15   16 1
  29   15   18 2
  30   16   17 1
  31   16   40 1
  32   16   41 1
  33   17   42 1
  34   17   43 1
  35   18   19 1
  36   18   44 1
  37   19   20 3
  38   20   21 1
  39   21   22 ar
  40   21   26 ar
  41   22   23 ar
  42   22   45 1
  43   23   24 ar
  44   23   46 1
  45   24   25 ar
  46   24   27 1
  47   25   26 ar
  48   25   47 1
  49   27   28 3

#	End of record

