#	Name: ASD03091172
#	Creating user name:	WinNT
#	Creation time:	15. 06. 2019 20:30

#	Modifying user name:	WinNT
#	Modification time:	15. 06. 2019 20:30

#	Program:	/corina/corina34_cracker 3.40 0067  02.08.2006

@<TRIPOS>MOLECULE
ASD03091172
  61   65    0    0    0
SMALL
NO_CHARGES


@<TRIPOS>ATOM
   1 C1            -0.1043     1.4346     0.0304 C.3     
   2 N2            -0.0533    -0.0295     0.0209 N.am    
   3 C3             0.1022    -0.7126     1.1969 C.2     
   4 N4             0.1554    -2.0175     1.2627 N.2     
   5 C5             0.0592    -2.7872     0.1595 C.ar    
   6 C6            -0.1035    -2.1674    -1.1006 C.ar    
   7 C7            -0.1659    -0.6990    -1.1500 C.2     
   8 C8             0.2157     0.0611     2.4512 C.ar    
   9 O9            -0.3049    -0.1077    -2.2049 O.2     
  10 C10            0.1174    -4.1822     0.2361 C.ar    
  11 C11            0.0171    -4.9314    -0.9007 C.ar    
  12 C12           -0.1436    -4.3246    -2.1466 C.ar    
  13 C13           -0.2039    -2.9452    -2.2518 C.ar    
  14 N14           -0.2434    -5.1137    -3.2956 N.3     
  15 C15            0.2091    -4.3762    -4.4812 C.3     
  16 C16            0.3012    -5.2616    -5.7141 C.3     
  17 N17           -1.0221    -5.7958    -6.0703 N.3     
  18 C18           -1.2059    -7.1248    -5.4697 C.3     
  19 C19           -1.6073    -7.0273    -4.0117 C.3     
  20 C20           -1.6172    -5.6012    -3.4821 C.3     
  21 C21           -2.1492    -4.9159    -5.8469 C.3     
  22 C22            1.2982     1.9860     0.0291 C.2     
  23 N23            1.4983     3.3188     0.0370 N.am    
  24 O24            2.2469     1.2304     0.0211 O.2     
  25 C25            2.8617     3.8549     0.0357 C.3     
  26 C26            0.3524     4.2315     0.0467 C.3     
  27 C27           -2.3734    -4.6307    -4.3710 C.3     
  28 C28           -0.7716     0.9855     2.7962 C.ar    
  29 C29           -0.6602     1.7048     3.9684 C.ar    
  30 C30            0.4272     1.5123     4.8013 C.ar    
  31 C31            1.4109     0.5972     4.4652 C.ar    
  32 C32            1.3078    -0.1337     3.2985 C.ar    
  33 Cl33           2.7721     0.3630     5.5168 Cl      
  34 H34           -0.6334     1.7855    -0.8555 H       
  35 H35           -0.6274     1.7741     0.9244 H       
  36 H36            0.2418    -4.6664     1.1934 H       
  37 H37            0.0631    -6.0084    -0.8347 H       
  38 H38           -0.3283    -2.4769    -3.2170 H       
  39 H39           -0.4909    -3.5648    -4.6807 H       
  40 H40            1.1917    -3.9503    -4.2782 H       
  41 H41            0.6887    -4.6766    -6.5482 H       
  42 H42            0.9801    -6.0900    -5.5114 H       
  43 H43           -1.9824    -7.6586    -6.0176 H       
  44 H44           -0.2720    -7.6817    -5.5452 H       
  45 H45           -2.6050    -7.4505    -3.8948 H       
  46 H46           -0.9090    -7.6161    -3.4169 H       
  47 H47           -2.1086    -5.6049    -2.5091 H       
  48 H48           -1.9706    -3.9741    -6.3658 H       
  49 H49           -3.0462    -5.3792    -6.2577 H       
  50 H50            3.1963     3.9944    -0.9922 H       
  51 H51            2.8759     4.8128     0.5556 H       
  52 H52            3.5272     3.1563     0.5428 H       
  53 H53            0.0717     4.4513     1.0768 H       
  54 H54            0.6209     5.1573    -0.4621 H       
  55 H55           -0.4881     3.7650    -0.4672 H       
  56 H56           -3.4387    -4.7072    -4.1532 H       
  57 H57           -2.0404    -3.6163    -4.1516 H       
  58 H58           -1.6210     1.1376     2.1467 H       
  59 H59           -1.4237     2.4203     4.2360 H       
  60 H60            0.5096     2.0783     5.7174 H       
  61 H61            2.0750    -0.8474     3.0373 H       
@<TRIPOS>BOND
   1    1    2 1
   2    1   22 1
   3    1   34 1
   4    1   35 1
   5    2    3 1
   6    2    7 am
   7    3    4 2
   8    3    8 1
   9    4    5 1
  10    5    6 ar
  11    5   10 ar
  12    6    7 1
  13    6   13 ar
  14    7    9 2
  15    8   28 ar
  16    8   32 ar
  17   10   11 ar
  18   10   36 1
  19   11   12 ar
  20   11   37 1
  21   12   13 ar
  22   12   14 1
  23   13   38 1
  24   14   15 1
  25   14   20 1
  26   15   16 1
  27   15   39 1
  28   15   40 1
  29   16   17 1
  30   16   41 1
  31   16   42 1
  32   17   18 1
  33   17   21 1
  34   18   19 1
  35   18   43 1
  36   18   44 1
  37   19   20 1
  38   19   45 1
  39   19   46 1
  40   20   27 1
  41   20   47 1
  42   21   27 1
  43   21   48 1
  44   21   49 1
  45   22   23 am
  46   22   24 2
  47   23   25 1
  48   23   26 1
  49   25   50 1
  50   25   51 1
  51   25   52 1
  52   26   53 1
  53   26   54 1
  54   26   55 1
  55   27   56 1
  56   27   57 1
  57   28   29 ar
  58   28   58 1
  59   29   30 ar
  60   29   59 1
  61   30   31 ar
  62   30   60 1
  63   31   32 ar
  64   31   33 1
  65   32   61 1

#	End of record

