#	Name: ASD01900057
#	Creating user name:	WinNT
#	Creation time:	15. 06. 2019 19:51

#	Modifying user name:	WinNT
#	Modification time:	15. 06. 2019 19:51

#	Program:	/corina/corina34_cracker 3.40 0067  02.08.2006

@<TRIPOS>MOLECULE
ASD01900057
  35   36    0    0    0
SMALL
NO_CHARGES


@<TRIPOS>ATOM
   1 C1            -0.4916     1.0210    -0.0050 C.3     
   2 C2            -0.2262    -0.4828     0.0912 C.3     
   3 C3             0.6574    -0.7679     1.3073 C.3     
   4 C4             1.9861    -0.0240     1.1580 C.3     
   5 C5             1.7207     1.4797     1.0617 C.3     
   6 C6             0.8370     1.7648    -0.1544 C.3     
   7 C7             2.6858    -0.4916    -0.0921 C.2     
   8 N8             3.0219    -1.7894    -0.2309 N.am    
   9 O9             3.0414     3.5507     0.8116 O.3     
  10 C10            3.0293     2.2124     0.9146 C.2     
  11 O11            4.0677     1.5952     0.8893 O.2     
  12 O12            2.9466     0.2999    -0.9733 O.2     
  13 C13            3.5826    -2.2425    -1.4301 C.ar    
  14 C14            4.4455    -1.4244    -2.1473 C.ar    
  15 C15            3.2817    -3.5133    -1.9022 C.ar    
  16 C16            3.8370    -3.9585    -3.0872 C.ar    
  17 C17            4.6921    -3.1390    -3.8029 C.ar    
  18 C18            4.9981    -1.8744    -3.3318 C.ar    
  19 Cl19           3.4617    -5.5472    -3.6778 Cl      
  20 Cl20           6.0708    -0.8492    -4.2329 Cl      
  21 H21           -1.1211     1.2241    -0.8714 H       
  22 H22           -0.9977     1.3592     0.8992 H       
  23 H23           -1.1727    -1.0127     0.1976 H       
  24 H24            0.2800    -0.8210    -0.8129 H       
  25 H25            0.1513    -0.4296     2.2115 H       
  26 H26            0.8465    -1.8391     1.3759 H       
  27 H27            2.6156    -0.2271     2.0243 H       
  28 H28            1.2145     1.8180     1.9659 H       
  29 H29            1.3432     1.4266    -1.0586 H       
  30 H30            0.6480     2.8361    -0.2230 H       
  31 H31            2.8750    -2.4094     0.5005 H       
  32 H32            3.9048     3.9761     0.7190 H       
  33 H33            4.6843    -0.4372    -1.7801 H       
  34 H34            2.6147    -4.1533    -1.3438 H       
  35 H35            5.1252    -3.4889    -4.7284 H       
@<TRIPOS>BOND
   1    1    2 1
   2    1    6 1
   3    1   21 1
   4    1   22 1
   5    2    3 1
   6    2   23 1
   7    2   24 1
   8    3    4 1
   9    3   25 1
  10    3   26 1
  11    4    5 1
  12    4    7 1
  13    4   27 1
  14    5    6 1
  15    5   10 1
  16    5   28 1
  17    6   29 1
  18    6   30 1
  19    7    8 am
  20    7   12 2
  21    8   13 1
  22    8   31 1
  23    9   10 1
  24    9   32 1
  25   10   11 2
  26   13   14 ar
  27   13   15 ar
  28   14   18 ar
  29   14   33 1
  30   15   16 ar
  31   15   34 1
  32   16   17 ar
  33   16   19 1
  34   17   18 ar
  35   17   35 1
  36   18   20 1

#	End of record

