#	Name: ASD03092211
#	Creating user name:	WinNT
#	Creation time:	15. 06. 2019 20:32

#	Modifying user name:	WinNT
#	Modification time:	15. 06. 2019 20:32

#	Program:	/corina/corina34_cracker 3.40 0067  02.08.2006

@<TRIPOS>MOLECULE
ASD03092211
  41   43    0    0    0
SMALL
NO_CHARGES


@<TRIPOS>ATOM
   1 C1             0.3269     1.3042     0.1248 C.3     
   2 C2             0.1908    -0.1949     0.0524 C.2     
   3 C3             0.1527    -0.9804    -1.1153 C.2     
   4 C4             0.0217    -2.2621    -0.6453 C.2     
   5 O5            -0.0085    -2.1663     0.6964 O.3     
   6 N6             0.0912    -1.0173     1.0591 N.2     
   7 C7            -0.0688    -3.4954    -1.4479 C.2     
   8 C8             0.9194    -4.4345    -1.3703 C.2     
   9 N9             0.7638    -5.6393    -1.9861 N.pl3   
  10 C10            1.8229    -6.5520    -2.0145 C.ar    
  11 C11            3.0322    -6.2332    -1.4101 C.ar    
  12 C12            4.0768    -7.1360    -1.4394 C.ar    
  13 C13            3.9195    -8.3583    -2.0712 C.ar    
  14 F14            4.9427    -9.2400    -2.0986 F       
  15 C15            2.7147    -8.6783    -2.6744 C.ar    
  16 C16            1.6654    -7.7810    -2.6423 C.ar    
  17 C17           -1.2204    -3.7137    -2.3298 C.2     
  18 O18           -1.2385    -4.6710    -3.0814 O.2     
  19 N19           -2.2584    -2.8543    -2.3080 N.am    
  20 C20           -3.4031    -3.1201    -3.0683 C.ar    
  21 C21           -4.1119    -2.0753    -3.6464 C.ar    
  22 C22           -5.2410    -2.3398    -4.3966 C.ar    
  23 C23           -5.6665    -3.6458    -4.5721 C.ar    
  24 F24           -6.7714    -3.9023    -5.3059 F       
  25 C25           -4.9609    -4.6892    -3.9969 C.ar    
  26 C26           -3.8283    -4.4295    -3.2503 C.ar    
  27 H27            1.3827     1.5716     0.1671 H       
  28 H28           -0.1265     1.7533    -0.7589 H       
  29 H29           -0.1772     1.6721     1.0185 H       
  30 H30            0.2125    -0.6506    -2.1419 H       
  31 H31            1.8244    -4.2219    -0.8206 H       
  32 H32           -0.0817    -5.8643    -2.4050 H       
  33 H33            3.1556    -5.2798    -0.9178 H       
  34 H34            5.0172    -6.8886    -0.9695 H       
  35 H35            2.5942    -9.6320    -3.1666 H       
  36 H36            0.7244    -8.0330    -3.1087 H       
  37 H37           -2.2121    -2.0516    -1.7655 H       
  38 H38           -3.7808    -1.0565    -3.5091 H       
  39 H39           -5.7925    -1.5274    -4.8463 H       
  40 H40           -5.2945    -5.7071    -4.1350 H       
  41 H41           -3.2760    -5.2439    -2.8052 H       
@<TRIPOS>BOND
   1    1    2 1
   2    1   27 1
   3    1   28 1
   4    1   29 1
   5    2    6 2
   6    2    3 1
   7    3    4 2
   8    3   30 1
   9    4    5 1
  10    4    7 1
  11    5    6 1
  12    7    8 2
  13    7   17 1
  14    8    9 1
  15    8   31 1
  16    9   10 1
  17    9   32 1
  18   10   16 ar
  19   10   11 ar
  20   11   12 ar
  21   11   33 1
  22   12   13 ar
  23   12   34 1
  24   13   14 1
  25   13   15 ar
  26   15   16 ar
  27   15   35 1
  28   16   36 1
  29   17   18 2
  30   17   19 am
  31   19   20 1
  32   19   37 1
  33   20   26 ar
  34   20   21 ar
  35   21   22 ar
  36   21   38 1
  37   22   23 ar
  38   22   39 1
  39   23   24 1
  40   23   25 ar
  41   25   26 ar
  42   25   40 1
  43   26   41 1

#	End of record

