#	Name: ASD09116084
#	Creating user name:	WinNT
#	Creation time:	15. 06. 2019 21:20

#	Modifying user name:	WinNT
#	Modification time:	15. 06. 2019 21:20

#	Program:	/corina/corina34_cracker 3.40 0067  02.08.2006

@<TRIPOS>MOLECULE
ASD09116084
  62   66    0    0    0
SMALL
NO_CHARGES


@<TRIPOS>ATOM
   1 C1            -2.0798     0.9546    -2.2886 C.ar    
   2 N2            -1.7743    -0.3599    -1.9295 N.pl3   
   3 N3            -0.4980    -0.9433    -1.8799 N.2     
   4 C4            -0.6601    -2.1867    -1.4960 C.2     
   5 N5            -1.9641    -2.4167    -1.3019 N.2     
   6 C6            -2.6494    -1.3222    -1.5546 C.2     
   7 N7            -4.0211    -1.1824    -1.4618 N.pl3   
   8 N8             0.3620    -3.1195    -1.3188 N.pl3   
   9 C9            -1.1203     1.9494    -2.1411 C.ar    
  10 N10           -3.2784     1.2406    -2.7713 N.ar    
  11 C11           -3.6080     2.4686    -3.1225 C.ar    
  12 C12           -2.7062     3.5070    -2.9977 C.ar    
  13 C13           -1.4361     3.2478    -2.5007 C.ar    
  14 C14            0.0698    -4.3884    -0.8117 C.ar    
  15 C15           -0.9912    -4.5548     0.0705 C.ar    
  16 C16           -1.2741    -5.8240     0.5296 C.ar    
  17 C17           -0.5173    -6.9085     0.1232 C.ar    
  18 C18            0.5787    -6.7639    -0.7033 C.ar    
  19 C19            0.8313    -5.4734    -1.1924 C.ar    
  20 C20           -0.9763    -8.2854     0.5546 C.3     
  21 C21           -1.5884    -9.0675    -0.6054 C.3     
  22 C22           -0.6161    -9.2002    -1.7668 C.3     
  23 N23            0.5104    -9.9852    -1.3050 N.3     
  24 C24            1.4340    -9.1588    -0.5293 C.3     
  25 C25            1.6198    -7.7701    -1.1260 C.3     
  26 C26            1.1995   -10.6300    -2.4308 C.3     
  27 C27            2.3697   -11.4845    -1.9129 C.3     
  28 C28            2.0785   -12.9373    -2.3425 C.3     
  29 C29            1.1335   -12.7909    -3.5610 C.3     
  30 C30            0.2381   -11.5933    -3.1571 C.3     
  31 C31           -3.0945     4.9056    -3.4029 C.3     
  32 F32           -4.4117     4.9059    -3.8741 F       
  33 F33           -2.9947     5.7563    -2.2967 F       
  34 F34           -2.2374     5.3531    -4.4141 F       
  35 H35           -4.5681    -1.9356    -1.1892 H       
  36 H36           -4.4369    -0.3310    -1.6694 H       
  37 H37            1.2756    -2.8873    -1.5476 H       
  38 H38           -0.1416     1.7123    -1.7507 H       
  39 H39           -4.5957     2.6644    -3.5131 H       
  40 H40           -0.7125     4.0423    -2.3930 H       
  41 H41           -1.5811    -3.7084     0.3898 H       
  42 H42           -2.0956    -5.9730     1.2147 H       
  43 H43            1.6503    -5.3240    -1.8804 H       
  44 H44           -0.1216    -8.8387     0.9438 H       
  45 H45           -1.7208    -8.1803     1.3437 H       
  46 H46           -1.8642   -10.0628    -0.2570 H       
  47 H47           -2.4845    -8.5508    -0.9491 H       
  48 H48           -1.1025    -9.7054    -2.6012 H       
  49 H49           -0.2761    -8.2130    -2.0799 H       
  50 H50            1.0488    -9.0575     0.4853 H       
  51 H51            2.4027    -9.6569    -0.4883 H       
  52 H52            1.5975    -7.8550    -2.2124 H       
  53 H53            2.6008    -7.3964    -0.8326 H       
  54 H54            1.5674    -9.8747    -3.1251 H       
  55 H55            3.3054   -11.1444    -2.3565 H       
  56 H56            2.4263   -11.4207    -0.8262 H       
  57 H57            3.0003   -13.4412    -2.6331 H       
  58 H58            1.5827   -13.4808    -1.5383 H       
  59 H59            1.6999   -12.5625    -4.4638 H       
  60 H60            0.5355   -13.6920    -3.6964 H       
  61 H61           -0.5550   -11.9199    -2.4844 H       
  62 H62           -0.1833   -11.1165    -4.0421 H       
@<TRIPOS>BOND
   1    1    2 1
   2    1    9 ar
   3    1   10 ar
   4    2    3 1
   5    2    6 1
   6    3    4 2
   7    4    5 1
   8    4    8 1
   9    5    6 2
  10    6    7 1
  11    7   35 1
  12    7   36 1
  13    8   14 1
  14    8   37 1
  15    9   13 ar
  16    9   38 1
  17   10   11 ar
  18   11   12 ar
  19   11   39 1
  20   12   13 ar
  21   12   31 1
  22   13   40 1
  23   14   15 ar
  24   14   19 ar
  25   15   16 ar
  26   15   41 1
  27   16   17 ar
  28   16   42 1
  29   17   18 ar
  30   17   20 1
  31   18   19 ar
  32   18   25 1
  33   19   43 1
  34   20   21 1
  35   20   44 1
  36   20   45 1
  37   21   22 1
  38   21   46 1
  39   21   47 1
  40   22   23 1
  41   22   48 1
  42   22   49 1
  43   23   24 1
  44   23   26 1
  45   24   25 1
  46   24   50 1
  47   24   51 1
  48   25   52 1
  49   25   53 1
  50   26   27 1
  51   26   30 1
  52   26   54 1
  53   27   28 1
  54   27   55 1
  55   27   56 1
  56   28   29 1
  57   28   57 1
  58   28   58 1
  59   29   30 1
  60   29   59 1
  61   29   60 1
  62   30   61 1
  63   30   62 1
  64   31   32 1
  65   31   33 1
  66   31   34 1

#	End of record

