#	Name: ASD03091094
#	Creating user name:	WinNT
#	Creation time:	15. 06. 2019 20:30

#	Modifying user name:	WinNT
#	Modification time:	15. 06. 2019 20:30

#	Program:	/corina/corina34_cracker 3.40 0067  02.08.2006

@<TRIPOS>MOLECULE
ASD03091094
  58   60    0    0    0
SMALL
NO_CHARGES


@<TRIPOS>ATOM
   1 C1             0.1204     1.3598     0.7780 C.2     
   2 C2             0.0693    -0.0577     0.3757 C.ar    
   3 C3             1.2188    -0.6922    -0.1190 C.ar    
   4 C4             1.1620    -2.0276    -0.4957 C.ar    
   5 C5            -0.0208    -2.7292    -0.3846 C.ar    
   6 C6            -1.1643    -2.1063     0.1052 C.ar    
   7 C7            -1.1224    -0.7778     0.4906 C.ar    
   8 O8             1.1816     1.9535     0.7799 O.2     
   9 N9            -1.0101     1.9992     1.1382 N.am    
  10 N10           -2.3597    -2.8272     0.2139 N.pl3   
  11 C11           -3.6686    -6.3775     0.0273 C.3     
  12 C12           -3.5355    -4.9435     0.5644 C.3     
  13 C13           -2.4050    -4.2354    -0.1877 C.3     
  14 C14           -2.6509    -4.3271    -1.6964 C.3     
  15 C15           -2.8439    -5.8030    -2.0802 C.3     
  16 C16           -1.7076    -6.6162    -1.4185 C.3     
  17 C17           -2.2526    -6.9959    -0.0259 C.3     
  18 N18           -4.0777    -6.2778    -1.3990 N.3     
  19 C19           -4.4960    -7.5863    -1.9194 C.3     
  20 C20           -0.9594     3.4077     1.5379 C.3     
  21 C21           -2.3465     3.8803     1.8896 C.2     
  22 O22           -3.2850     3.1159     1.8139 O.2     
  23 N23           -2.5440     5.1525     2.2883 N.am    
  24 C24           -3.8925     5.6119     2.6303 C.3     
  25 C25           -4.1958     5.2625     4.0887 C.3     
  26 C26           -3.9782     7.1277     2.4405 C.3     
  27 N27            2.4121     0.0147    -0.2324 N.pl3   
  28 H28            2.0455    -2.5181    -0.8767 H       
  29 H29           -0.0593    -3.7674    -0.6797 H       
  30 H30           -2.0102    -0.2974     0.8747 H       
  31 H31           -1.8572     1.5268     1.1328 H       
  32 H32           -3.1579    -2.3943     0.5552 H       
  33 H33           -4.3579    -6.9765     0.6225 H       
  34 H34           -4.4710    -4.4065     0.4071 H       
  35 H35           -3.3037    -4.9724     1.6290 H       
  36 H36           -1.4549    -4.7120     0.0537 H       
  37 H37           -3.5465    -3.7624    -1.9553 H       
  38 H38           -1.7930    -3.9199    -2.2315 H       
  39 H39           -2.8775    -5.9452    -3.1604 H       
  40 H40           -1.4948    -7.5132    -2.0000 H       
  41 H41           -0.8106    -6.0047    -1.3210 H       
  42 H42           -1.6236    -6.5711     0.7564 H       
  43 H43           -2.3078    -8.0796     0.0773 H       
  44 H44           -5.3413    -7.9551    -1.3384 H       
  45 H45           -4.7898    -7.4848    -2.9642 H       
  46 H46           -3.6672    -8.2900    -1.8419 H       
  47 H47           -0.3078     3.5161     2.4049 H       
  48 H48           -0.5700     4.0055     0.7138 H       
  49 H49           -1.7934     5.7639     2.3489 H       
  50 H50           -4.6185     5.1228     1.9809 H       
  51 H51           -5.1990     5.6043     4.3431 H       
  52 H52           -4.1347     4.1827     4.2238 H       
  53 H53           -3.4697     5.7517     4.7380 H       
  54 H54           -3.7622     7.3766     1.4016 H       
  55 H55           -4.9815     7.4695     2.6949 H       
  56 H56           -3.2522     7.6168     3.0899 H       
  57 H57            2.3981     0.9822    -0.3008 H       
  58 H58            3.2579    -0.4600    -0.2429 H       
@<TRIPOS>BOND
   1    1    2 1
   2    1    8 2
   3    1    9 am
   4    2    3 ar
   5    2    7 ar
   6    3    4 ar
   7    3   27 1
   8    4    5 ar
   9    4   28 1
  10    5    6 ar
  11    5   29 1
  12    6    7 ar
  13    6   10 1
  14    7   30 1
  15    9   20 1
  16    9   31 1
  17   10   13 1
  18   10   32 1
  19   11   12 1
  20   11   17 1
  21   11   18 1
  22   11   33 1
  23   12   13 1
  24   12   34 1
  25   12   35 1
  26   13   14 1
  27   13   36 1
  28   14   15 1
  29   14   37 1
  30   14   38 1
  31   15   16 1
  32   15   18 1
  33   15   39 1
  34   16   17 1
  35   16   40 1
  36   16   41 1
  37   17   42 1
  38   17   43 1
  39   18   19 1
  40   19   44 1
  41   19   45 1
  42   19   46 1
  43   20   21 1
  44   20   47 1
  45   20   48 1
  46   21   22 2
  47   21   23 am
  48   23   24 1
  49   23   49 1
  50   24   25 1
  51   24   26 1
  52   24   50 1
  53   25   51 1
  54   25   52 1
  55   25   53 1
  56   26   54 1
  57   26   55 1
  58   26   56 1
  59   27   57 1
  60   27   58 1

#	End of record

