#	Name: ASD01670008
#	Creating user name:	WinNT
#	Creation time:	15. 06. 2019 19:22

#	Modifying user name:	WinNT
#	Modification time:	15. 06. 2019 19:22

#	Program:	/corina/corina34_cracker 3.40 0067  02.08.2006

@<TRIPOS>MOLECULE
ASD01670008
  38   41    0    0    0
SMALL
NO_CHARGES


@<TRIPOS>ATOM
   1 O1            -3.6691    -0.3245    -1.7462 O.2     
   2 C2            -2.5481    -0.5348    -1.3329 C.2     
   3 C3            -1.6937    -1.7252    -1.6534 C.2     
   4 O4            -1.9725    -2.6656    -2.3680 O.2     
   5 C5            -0.4404    -1.5016    -0.9090 C.ar    
   6 C6             0.7399    -2.2344    -0.7902 C.ar    
   7 C7             1.7659    -1.7556     0.0009 C.ar    
   8 C8             1.6204    -0.5528     0.6726 C.ar    
   9 C9             0.4539     0.1811     0.5610 C.ar    
  10 C10           -0.5897    -0.2815    -0.2292 C.ar    
  11 N11           -1.8430     0.2595    -0.5089 N.am    
  12 C12           -2.3317     1.5312     0.0297 C.3     
  13 C13           -2.9740     1.2943     1.3723 C.ar    
  14 C14           -3.1284     0.0101     1.8455 C.ar    
  15 C15           -3.7188    -0.2150     3.0780 C.ar    
  16 C16           -4.1603     0.8483     3.8494 C.ar    
  17 O17           -4.7412     0.6021     5.0558 O.3     
  18 C18           -4.8333     1.7061     5.9627 C.3     
  19 C19           -5.3531     2.9236     5.1863 C.3     
  20 O20           -4.4313     3.2067     4.1279 O.3     
  21 C21           -4.0098     2.1501     3.3863 C.ar    
  22 C22           -3.4084     2.3784     2.1411 C.ar    
  23 C23           -3.2395     3.7551     1.6418 C.2     
  24 O24           -4.1068     4.2648     0.9602 O.2     
  25 O25           -2.1235     4.4482     1.9412 O.3     
  26 Br26           3.3700    -2.7429     0.1678 Br      
  27 H27            0.8511    -3.1723    -1.3141 H       
  28 H28            2.4264    -0.1846     1.2901 H       
  29 H29            0.3541     1.1170     1.0906 H       
  30 H30           -1.4967     2.2226     0.1433 H       
  31 H31           -3.0658     1.9573    -0.6541 H       
  32 H32           -2.7877    -0.8256     1.2523 H       
  33 H33           -3.8363    -1.2257     3.4400 H       
  34 H34           -5.5244     1.4623     6.7696 H       
  35 H35           -3.8487     1.9261     6.3752 H       
  36 H36           -6.3352     2.7016     4.7689 H       
  37 H37           -5.4222     3.7829     5.8533 H       
  38 H38           -2.0798     5.3641     1.6339 H       
@<TRIPOS>BOND
   1    1    2 2
   2    2    3 1
   3    2   11 am
   4    3    4 2
   5    3    5 1
   6    5    6 ar
   7    5   10 ar
   8    6    7 ar
   9    6   27 1
  10    7    8 ar
  11    7   26 1
  12    8    9 ar
  13    8   28 1
  14    9   10 ar
  15    9   29 1
  16   10   11 1
  17   11   12 1
  18   12   13 1
  19   12   30 1
  20   12   31 1
  21   13   14 ar
  22   13   22 ar
  23   14   15 ar
  24   14   32 1
  25   15   16 ar
  26   15   33 1
  27   16   17 1
  28   16   21 ar
  29   17   18 1
  30   18   19 1
  31   18   34 1
  32   18   35 1
  33   19   20 1
  34   19   36 1
  35   19   37 1
  36   20   21 1
  37   21   22 ar
  38   22   23 1
  39   23   24 2
  40   23   25 1
  41   25   38 1

#	End of record

