#	Name: ASD03331866
#	Creating user name:	WinNT
#	Creation time:	15. 06. 2019 20:40

#	Modifying user name:	WinNT
#	Modification time:	15. 06. 2019 20:40

#	Program:	/corina/corina34_cracker 3.40 0067  02.08.2006

@<TRIPOS>MOLECULE
ASD03331866
  70   73    0    0    0
SMALL
NO_CHARGES


@<TRIPOS>ATOM
   1 C1            -0.0597     2.0026     1.7825 C.2     
   2 N2            -0.1483     0.7112     2.1976 N.pl3   
   3 C3             1.0691     0.1306     1.9923 C.2     
   4 N4             1.8823     1.0300     1.4898 N.2     
   5 C5             1.2170     2.1978     1.3507 C.2     
   6 C6             1.7733     3.4570     0.8249 C.2     
   7 O7             1.0706     4.4467     0.7475 O.2     
   8 N8             3.0607     3.5120     0.4299 N.am    
   9 C9             3.6137     4.7639    -0.0927 C.3     
  10 C10            3.3035     4.8739    -1.5869 C.3     
  11 C11            1.4150    -1.2768     2.2872 C.ar    
  12 C12            4.0103     3.7444    -2.3390 C.3     
  13 C13            5.1065     4.7781     0.1128 C.2     
  14 C14            1.7929     4.7638    -1.8037 C.3     
  15 C15            3.7970     6.2234    -2.1122 C.3     
  16 O16            5.6898     3.7524     0.3931 O.2     
  17 N17            5.7934     5.9306    -0.0150 N.am    
  18 C18            7.2529     5.9314     0.1116 C.3     
  19 C19            1.0526    -1.8466     3.5082 C.ar    
  20 C20            2.1011    -2.0437     1.3421 C.ar    
  21 C21            2.4207    -3.3587     1.6253 C.ar    
  22 C22            2.0627    -3.9134     2.8401 C.ar    
  23 C23            1.3780    -3.1597     3.7774 C.ar    
  24 C24           -1.3402     0.0832     2.7743 C.3     
  25 C25           -2.5566     0.4255     1.9083 C.3     
  26 C26           -3.1656     1.7446     2.3727 C.3     
  27 N27           -2.1314     2.6607     2.8577 N.3     
  28 C28           -1.1816     3.0085     1.7904 C.3     
  29 C29           -2.7299     3.8676     3.4436 C.3     
  30 C30           -1.6469     4.6788     4.1576 C.3     
  31 C31            2.4142    -5.3473     3.1425 C.3     
  32 F32            2.4506    -1.5021     0.1548 F       
  33 C33           -2.0478     6.0373     4.7361 C.3     
  34 C34           -1.7800     4.8565     5.6714 C.3     
  35 H35            3.6211     2.7227     0.4917 H       
  36 H36            3.1663     5.6067     0.4342 H       
  37 H37            3.6587     2.7830    -1.9648 H       
  38 H38            3.7893     3.8228    -3.4035 H       
  39 H39            5.0864     3.8229    -2.1846 H       
  40 H40            1.2894     5.5684    -1.2678 H       
  41 H41            1.5719     4.8421    -2.8681 H       
  42 H42            1.4413     3.8023    -1.4294 H       
  43 H43            4.8413     6.3624    -1.8324 H       
  44 H44            3.7058     6.2460    -3.1982 H       
  45 H45            3.1956     7.0234    -1.6804 H       
  46 H46            5.3214     6.7596    -0.1907 H       
  47 H47            7.5321     5.5666     1.1001 H       
  48 H48            7.6840     5.2821    -0.6504 H       
  49 H49            7.6286     6.9460    -0.0207 H       
  50 H50            0.5186    -1.2604     4.2414 H       
  51 H51            2.9507    -3.9537     0.8963 H       
  52 H52            1.1016    -3.5996     4.7242 H       
  53 H53           -1.2052    -0.9980     2.8019 H       
  54 H54           -1.4961     0.4579     3.7859 H       
  55 H55           -2.2465     0.5161     0.8673 H       
  56 H56           -3.2991    -0.3675     1.9967 H       
  57 H57           -3.6920     2.2088     1.5387 H       
  58 H58           -3.8747     1.5477     3.1768 H       
  59 H59           -0.7772     4.0041     1.9725 H       
  60 H60           -1.6928     2.9919     0.8279 H       
  61 H61           -3.1755     4.4723     2.6538 H       
  62 H62           -3.5000     3.5804     4.1595 H       
  63 H63           -0.6412     4.5831     3.7483 H       
  64 H64            3.3940    -5.3886     3.6182 H       
  65 H65            1.6666    -5.7710     3.8131 H       
  66 H66            2.4362    -5.9194     2.2150 H       
  67 H67           -1.3058     6.8352     4.7077 H       
  68 H68           -3.0831     6.3531     4.6080 H       
  69 H69           -2.6391     4.3954     6.1587 H       
  70 H70           -0.8617     4.8775     6.2584 H       
@<TRIPOS>BOND
   1    1    2 1
   2    1    5 2
   3    1   28 1
   4    2    3 1
   5    2   24 1
   6    3    4 2
   7    3   11 1
   8    4    5 1
   9    5    6 1
  10    6    7 2
  11    6    8 am
  12    8    9 1
  13    8   35 1
  14    9   10 1
  15    9   13 1
  16    9   36 1
  17   10   12 1
  18   10   14 1
  19   10   15 1
  20   11   20 ar
  21   11   19 ar
  22   12   37 1
  23   12   38 1
  24   12   39 1
  25   13   16 2
  26   13   17 am
  27   14   40 1
  28   14   41 1
  29   14   42 1
  30   15   43 1
  31   15   44 1
  32   15   45 1
  33   17   18 1
  34   17   46 1
  35   18   47 1
  36   18   48 1
  37   18   49 1
  38   19   23 ar
  39   19   50 1
  40   20   21 ar
  41   20   32 1
  42   21   22 ar
  43   21   51 1
  44   22   23 ar
  45   22   31 1
  46   23   52 1
  47   24   25 1
  48   24   53 1
  49   24   54 1
  50   25   26 1
  51   25   55 1
  52   25   56 1
  53   26   27 1
  54   26   57 1
  55   26   58 1
  56   27   28 1
  57   27   29 1
  58   28   59 1
  59   28   60 1
  60   29   30 1
  61   29   61 1
  62   29   62 1
  63   30   33 1
  64   30   34 1
  65   30   63 1
  66   31   64 1
  67   31   65 1
  68   31   66 1
  69   33   34 1
  70   33   67 1
  71   33   68 1
  72   34   69 1
  73   34   70 1

#	End of record

