#	Name: ASD03330161
#	Creating user name:	WinNT
#	Creation time:	15. 06. 2019 20:36

#	Modifying user name:	WinNT
#	Modification time:	15. 06. 2019 20:36

#	Program:	/corina/corina34_cracker 3.40 0067  02.08.2006

@<TRIPOS>MOLECULE
ASD03330161
  31   32    0    0    0
SMALL
NO_CHARGES


@<TRIPOS>ATOM
   1 C1            -0.0184     1.5028     0.0103 C.2     
   2 C2             0.0021    -0.0041     0.0020 C.3     
   3 C3            -1.4117    -0.5257     0.0127 C.ar    
   4 C4            -2.0706    -0.7581    -1.1804 C.ar    
   5 C5            -3.3667    -1.2363    -1.1733 C.ar    
   6 C6            -4.0071    -1.4832     0.0324 C.ar    
   7 C7            -3.3438    -1.2492     1.2281 C.ar    
   8 C8            -2.0458    -0.7764     1.2156 C.ar    
   9 O9            -5.2822    -1.9532     0.0420 O.3     
  10 C10           -5.8787    -2.1846     1.3198 C.3     
  11 C11            1.2452     2.2554     0.0023 C.ar    
  12 C12            1.2307     3.6555     0.0099 C.ar    
  13 C13            2.4216     4.3537     0.0028 C.ar    
  14 C14            3.6261     3.6733    -0.0123 C.ar    
  15 C15            3.6481     2.2891    -0.0204 C.ar    
  16 C16            2.4681     1.5765    -0.0072 C.ar    
  17 Cl17          -0.2800     4.5106     0.0278 Cl      
  18 O18           -1.0767     2.0948     0.0185 O.2     
  19 H19            0.5123    -0.3556    -0.8948 H       
  20 H20            0.5293    -0.3651     0.8851 H       
  21 H21           -1.5718    -0.5654    -2.1187 H       
  22 H22           -3.8811    -1.4174    -2.1055 H       
  23 H23           -3.8402    -1.4406     2.1680 H       
  24 H24           -1.5273    -0.5985     2.1461 H       
  25 H25           -6.8939    -2.5575     1.1847 H       
  26 H26           -5.2908    -2.9215     1.8671 H       
  27 H27           -5.9062    -1.2514     1.8823 H       
  28 H28            2.4130     5.4336     0.0087 H       
  29 H29            4.5545     4.2251    -0.0182 H       
  30 H30            4.5928     1.7659    -0.0326 H       
  31 H31            2.4877     0.4967    -0.0087 H       
@<TRIPOS>BOND
   1    1    2 1
   2    1   11 1
   3    1   18 2
   4    2    3 1
   5    2   19 1
   6    2   20 1
   7    3    4 ar
   8    3    8 ar
   9    4    5 ar
  10    4   21 1
  11    5    6 ar
  12    5   22 1
  13    6    7 ar
  14    6    9 1
  15    7    8 ar
  16    7   23 1
  17    8   24 1
  18    9   10 1
  19   10   25 1
  20   10   26 1
  21   10   27 1
  22   11   12 ar
  23   11   16 ar
  24   12   13 ar
  25   12   17 1
  26   13   14 ar
  27   13   28 1
  28   14   15 ar
  29   14   29 1
  30   15   16 ar
  31   15   30 1
  32   16   31 1

#	End of record

