#	Name: ASD01911134
#	Creating user name:	WinNT
#	Creation time:	15. 06. 2019 19:57

#	Modifying user name:	WinNT
#	Modification time:	15. 06. 2019 19:57

#	Program:	/corina/corina34_cracker 3.40 0067  02.08.2006

@<TRIPOS>MOLECULE
ASD01911134
  44   47    0    0    0
SMALL
NO_CHARGES


@<TRIPOS>ATOM
   1 C1             0.1076     1.0195     0.1794 C.2     
   2 O2             1.1275     1.6794     0.2224 O.2     
   3 C3             1.1824    -1.0566    -0.6958 C.ar    
   4 C4             0.1839    -0.4529     0.0699 C.ar    
   5 C5            -0.7438    -1.2650     0.7327 C.ar    
   6 C6            -0.6282    -2.6375     0.5980 C.ar    
   7 C7             0.3902    -3.1580    -0.1796 C.ar    
   8 N8             1.2507    -2.3679    -0.7932 N.ar    
   9 N9            -1.0928     1.6296     0.2373 N.am    
  10 C10           -2.3318     0.8638     0.0449 C.3     
  11 C11           -3.1588     1.5328    -1.0575 C.3     
  12 C12           -3.3786     3.0051    -0.7023 C.3     
  13 C13           -2.0270     3.7174    -0.6128 C.3     
  14 C14           -1.1874     3.0721     0.5002 C.3     
  15 O15           -5.4161     0.7244    -0.2189 O.3     
  16 N16           -6.3733     0.1094    -0.6394 N.2     
  17 C17           -6.1774    -0.2314    -1.8835 C.2     
  18 N18           -4.9635     0.2363    -2.2406 N.2     
  19 C19           -4.4916     0.8398    -1.1771 C.2     
  20 O20           -7.0348    -0.9269    -2.6712 O.3     
  21 C21           -8.1726    -1.4088    -2.1057 C.ar    
  22 C22           -8.5014    -1.0628    -0.8031 C.ar    
  23 C23           -9.6603    -1.5549    -0.2300 C.ar    
  24 C24          -10.4909    -2.3922    -0.9565 C.ar    
  25 C25          -10.1637    -2.7371    -2.2542 C.ar    
  26 C26           -9.0099    -2.2431    -2.8322 C.ar    
  27 F27           -9.9817    -1.2192     1.0386 F       
  28 H28            1.9025    -0.4429    -1.2166 H       
  29 H29           -1.5293    -0.8316     1.3340 H       
  30 H30           -1.3258    -3.2952     1.0952 H       
  31 H31            0.4830    -4.2288    -0.2862 H       
  32 H32           -2.0884    -0.1571    -0.2495 H       
  33 H33           -2.9022     0.8523     0.9737 H       
  34 H34           -2.6255     1.4630    -2.0055 H       
  35 H35           -3.9877     3.4776    -1.4730 H       
  36 H36           -3.8900     3.0747     0.2578 H       
  37 H37           -1.5044     3.6269    -1.5650 H       
  38 H38           -2.1855     4.7710    -0.3829 H       
  39 H39           -1.6664     3.2370     1.4653 H       
  40 H40           -0.1887     3.5087     0.5062 H       
  41 H41           -7.8532    -0.4102    -0.2371 H       
  42 H42          -11.3953    -2.7762    -0.5081 H       
  43 H43          -10.8128    -3.3901    -2.8187 H       
  44 H44           -8.7579    -2.5096    -3.8480 H       
@<TRIPOS>BOND
   1    1    2 2
   2    1    4 1
   3    1    9 am
   4    3    4 ar
   5    3    8 ar
   6    3   28 1
   7    4    5 ar
   8    5    6 ar
   9    5   29 1
  10    6    7 ar
  11    6   30 1
  12    7    8 ar
  13    7   31 1
  14    9   10 1
  15    9   14 1
  16   10   11 1
  17   10   32 1
  18   10   33 1
  19   11   12 1
  20   11   19 1
  21   11   34 1
  22   12   13 1
  23   12   35 1
  24   12   36 1
  25   13   14 1
  26   13   37 1
  27   13   38 1
  28   14   39 1
  29   14   40 1
  30   15   16 1
  31   15   19 1
  32   16   17 2
  33   17   18 1
  34   17   20 1
  35   18   19 2
  36   20   21 1
  37   21   22 ar
  38   21   26 ar
  39   22   23 ar
  40   22   41 1
  41   23   24 ar
  42   23   27 1
  43   24   25 ar
  44   24   42 1
  45   25   26 ar
  46   25   43 1
  47   26   44 1

#	End of record

