#	Name: ASD01028168
#	Creating user name:	WinNT
#	Creation time:	15. 06. 2019 18:56

#	Modifying user name:	WinNT
#	Modification time:	15. 06. 2019 18:56

#	Program:	/corina/corina34_cracker 3.40 0067  02.08.2006

@<TRIPOS>MOLECULE
ASD01028168
  55   59    0    0    0
SMALL
NO_CHARGES


@<TRIPOS>ATOM
   1 C1            -0.2684     1.7769    -0.1544 C.2     
   2 C2             0.2806     0.4381     0.1264 C.ar    
   3 C3            -0.4450    -0.4842     0.8897 C.ar    
   4 C4             0.1142    -1.7275     1.1244 C.ar    
   5 C5             1.3622    -2.0229     0.6041 C.ar    
   6 N6             2.0303    -1.1404    -0.1121 N.ar    
   7 C7             1.5397     0.0620    -0.3721 C.ar    
   8 O8             0.4243     2.6167    -0.6964 O.2     
   9 N9            -1.5399     2.0684     0.1845 N.am    
  10 N10            2.2731     0.9547    -1.1333 N.pl3   
  11 N11            6.8836     2.1324    -2.4479 N.pl3   
  12 N12            7.9510     1.2664    -2.7145 N.2     
  13 C13            7.5647     0.0327    -2.5667 C.2     
  14 C14            6.1998     0.0270    -2.1889 C.ar    
  15 C15            5.2829    -0.9932    -1.9015 C.ar    
  16 C16            4.0023    -0.6797    -1.5580 C.ar    
  17 C17            3.5908     0.6528    -1.4879 C.ar    
  18 C18            4.4785     1.6755    -1.7673 C.ar    
  19 C19            5.7898     1.3723    -2.1201 C.ar    
  20 C20           -5.2064     5.1618    -0.8003 C.3     
  21 N21           -5.6384     6.5191    -0.4525 N.3     
  22 C22           -4.6869     7.5080    -0.9840 C.3     
  23 C23           -3.3941     7.4222    -0.1723 C.3     
  24 C24           -2.9319     5.9897    -0.0902 C.ar    
  25 C25           -1.6208     5.7398     0.2890 C.ar    
  26 C26           -1.1547     4.4453     0.3814 C.ar    
  27 C27           -2.0038     3.3846     0.0925 C.ar    
  28 C28           -3.3132     3.6363    -0.2879 C.ar    
  29 C29           -3.7771     4.9393    -0.3801 C.ar    
  30 C30           -2.3126     8.2669    -0.8489 C.3     
  31 C31           -3.6443     7.9569     1.2392 C.3     
  32 H32           -1.4173    -0.2312     1.2858 H       
  33 H33           -0.4189    -2.4621     1.7096 H       
  34 H34            1.7970    -2.9941     0.7886 H       
  35 H35           -2.1332     1.3655     0.4923 H       
  36 H36            1.8727     1.7901    -1.4210 H       
  37 H37            6.9135     3.1013    -2.4845 H       
  38 H38            8.1823    -0.8418    -2.7089 H       
  39 H39            5.5910    -2.0271    -1.9528 H       
  40 H40            3.2990    -1.4691    -1.3377 H       
  41 H41            4.1554     2.7046    -1.7124 H       
  42 H42           -5.8468     4.4396    -0.2940 H       
  43 H43           -5.2903     5.0227    -1.8782 H       
  44 H44           -6.5725     6.6988    -0.7892 H       
  45 H45           -4.4773     7.2885    -2.0309 H       
  46 H46           -5.1100     8.5085    -0.8942 H       
  47 H47           -0.9610     6.5647     0.5137 H       
  48 H48           -0.1331     4.2569     0.6769 H       
  49 H49           -3.9751     2.8131    -0.5131 H       
  50 H50           -2.6417     9.3047    -0.9008 H       
  51 H51           -1.3903     8.2067    -0.2712 H       
  52 H52           -2.1354     7.8910    -1.8565 H       
  53 H53           -4.4177     7.3597     1.7222 H       
  54 H54           -2.7234     7.8963     1.8192 H       
  55 H55           -3.9700     8.9955     1.1819 H       
@<TRIPOS>BOND
   1    1    2 1
   2    1    8 2
   3    1    9 am
   4    2    3 ar
   5    2    7 ar
   6    3    4 ar
   7    3   32 1
   8    4    5 ar
   9    4   33 1
  10    5    6 ar
  11    5   34 1
  12    6    7 ar
  13    7   10 1
  14    9   27 1
  15    9   35 1
  16   10   17 1
  17   10   36 1
  18   11   12 1
  19   11   19 1
  20   11   37 1
  21   12   13 2
  22   13   14 1
  23   13   38 1
  24   14   15 ar
  25   14   19 ar
  26   15   16 ar
  27   15   39 1
  28   16   17 ar
  29   16   40 1
  30   17   18 ar
  31   18   19 ar
  32   18   41 1
  33   20   21 1
  34   20   29 1
  35   20   42 1
  36   20   43 1
  37   21   22 1
  38   21   44 1
  39   22   23 1
  40   22   45 1
  41   22   46 1
  42   23   24 1
  43   23   30 1
  44   23   31 1
  45   24   25 ar
  46   24   29 ar
  47   25   26 ar
  48   25   47 1
  49   26   27 ar
  50   26   48 1
  51   27   28 ar
  52   28   29 ar
  53   28   49 1
  54   30   50 1
  55   30   51 1
  56   30   52 1
  57   31   53 1
  58   31   54 1
  59   31   55 1

#	End of record

