#	Name: ASD05430086
#	Creating user name:	WinNT
#	Creation time:	15. 06. 2019 20:59

#	Modifying user name:	WinNT
#	Modification time:	15. 06. 2019 20:59

#	Program:	/corina/corina34_cracker 3.40 0067  02.08.2006

@<TRIPOS>MOLECULE
ASD05430086
  63   68    0    0    0
SMALL
NO_CHARGES


@<TRIPOS>ATOM
   1 C1             0.0140     1.5188    -0.0070 C.ar    
   2 C2            -0.0243     0.3405    -0.7517 C.ar    
   3 C3             1.1409    -0.1720    -1.3075 C.ar    
   4 C4             2.3403     0.4814    -1.1255 C.ar    
   5 C5             2.3863     1.6637    -0.3798 C.ar    
   6 C6             1.2134     2.1796     0.1796 C.ar    
   7 C7             4.8348     0.1418    -0.0588 C.3     
   8 C8             4.8130     1.6612    -0.1136 C.2     
   9 C9             3.6668     2.3630    -0.1839 C.2     
  10 C10            5.8776    -0.2861     0.9811 C.3     
  11 C11            7.2953     0.1835     0.6340 C.3     
  12 N12            7.2695     1.6167     0.3547 N.pl3   
  13 C13            6.1409     2.3138    -0.0836 C.2     
  14 N14            6.4587     3.5120    -0.4435 N.2     
  15 C15            9.6297     2.0696    -0.0891 C.ar    
  16 C16           10.3657     2.8334    -0.9757 C.ar    
  17 C17           11.5506     2.3440    -1.4919 C.ar    
  18 C18           12.0004     1.0882    -1.1209 C.ar    
  19 C19           11.2623     0.3241    -0.2329 C.ar    
  20 C20           10.0778     0.8156     0.2821 C.ar    
  21 F21           13.1583     0.6086    -1.6253 F       
  22 N22           -1.2414    -0.3285    -0.9396 N.pl3   
  23 C23           -1.7555    -0.7653    -2.1330 C.2     
  24 C24           -2.9361    -1.3519    -1.8578 C.2     
  25 N25           -3.1420    -1.2780    -0.5345 N.2     
  26 C26           -2.1317    -0.6717     0.0272 C.2     
  27 C27           -1.0163     3.2310     1.2818 C.3     
  28 O28           -1.1294     2.0206     0.5308 O.3     
  29 C29            5.4677     0.0547     2.4150 C.3     
  30 S30            6.3466    -1.4161     3.0119 S.o     
  31 C31            5.8076    -1.7771     1.3176 C.3     
  32 O32            7.7446    -1.1617     3.0201 O.2     
  33 C33           -3.8655    -1.9819    -2.8630 C.3     
  34 C34            8.3410     2.6069     0.4780 C.3     
  35 O35            7.8593     3.7141    -0.3122 O.3     
  36 C36            8.5246     3.0251     1.9382 C.3     
  37 H37            1.1069    -1.0851    -1.8833 H       
  38 H38            3.2448     0.0804    -1.5585 H       
  39 H39            1.2446     3.0925     0.7559 H       
  40 H40            3.8521    -0.2297     0.2316 H       
  41 H41            5.1053    -0.2574    -1.0364 H       
  42 H42            3.6865     3.4393    -0.0966 H       
  43 H43            7.9601    -0.0119     1.4754 H       
  44 H44            7.6516    -0.3528    -0.2455 H       
  45 H45           10.0145     3.8128    -1.2652 H       
  46 H46           12.1252     2.9407    -2.1848 H       
  47 H47           11.6122    -0.6556     0.0572 H       
  48 H48            9.5020     0.2197     0.9747 H       
  49 H49           -1.3009    -0.6595    -3.1069 H       
  50 H50           -2.0247    -0.4707     1.0829 H       
  51 H51           -0.6228     4.0205     0.6415 H       
  52 H52           -1.9990     3.5210     1.6538 H       
  53 H53           -0.3409     3.0750     2.1230 H       
  54 H54            5.9011     0.9880     2.7742 H       
  55 H55            4.3908     0.0051     2.5761 H       
  56 H56            4.7964    -2.1810     1.2664 H       
  57 H57            6.5255    -2.3768     0.7581 H       
  58 H58           -3.6126    -3.0355    -2.9811 H       
  59 H59           -4.8939    -1.8921    -2.5131 H       
  60 H60           -3.7621    -1.4737    -3.8217 H       
  61 H61            8.7817     2.1512     2.5368 H       
  62 H62            9.3255     3.7612     2.0074 H       
  63 H63            7.5975     3.4607     2.3107 H       
@<TRIPOS>BOND
   1    1    2 ar
   2    1    6 ar
   3    1   28 1
   4    2    3 ar
   5    2   22 1
   6    3    4 ar
   7    3   37 1
   8    4    5 ar
   9    4   38 1
  10    5    6 ar
  11    5    9 1
  12    6   39 1
  13    7    8 1
  14    7   10 1
  15    7   40 1
  16    7   41 1
  17    8    9 2
  18    8   13 1
  19    9   42 1
  20   10   11 1
  21   10   29 1
  22   10   31 1
  23   11   12 1
  24   11   43 1
  25   11   44 1
  26   12   13 1
  27   12   34 1
  28   13   14 2
  29   14   35 1
  30   15   16 ar
  31   15   20 ar
  32   15   34 1
  33   16   17 ar
  34   16   45 1
  35   17   18 ar
  36   17   46 1
  37   18   19 ar
  38   18   21 1
  39   19   20 ar
  40   19   47 1
  41   20   48 1
  42   22   23 1
  43   22   26 1
  44   23   24 2
  45   23   49 1
  46   24   25 1
  47   24   33 1
  48   25   26 2
  49   26   50 1
  50   27   28 1
  51   27   51 1
  52   27   52 1
  53   27   53 1
  54   29   30 1
  55   29   54 1
  56   29   55 1
  57   30   31 1
  58   30   32 2
  59   31   56 1
  60   31   57 1
  61   33   58 1
  62   33   59 1
  63   33   60 1
  64   34   35 1
  65   34   36 1
  66   36   61 1
  67   36   62 1
  68   36   63 1

#	End of record

