#	Name: ASD01912371
#	Creating user name:	WinNT
#	Creation time:	15. 06. 2019 19:59

#	Modifying user name:	WinNT
#	Modification time:	15. 06. 2019 19:59

#	Program:	/corina/corina34_cracker 3.40 0067  02.08.2006

@<TRIPOS>MOLECULE
ASD01912371
  44   46    0    0    0
SMALL
NO_CHARGES


@<TRIPOS>ATOM
   1 C1             0.0711     1.5064     0.9542 C.ar    
   2 C2             0.0909     0.1269     1.0551 C.ar    
   3 C3             1.3060    -0.5433     1.0122 C.ar    
   4 C4             2.4649     0.1979     0.8688 C.ar    
   5 C5             2.3728     1.5891     0.7725 C.ar    
   6 N6             1.1876     2.1913     0.8182 N.ar    
   7 C7             3.5627     2.3718     0.6237 C.1     
   8 C8             4.5383     3.0135     0.5016 C.1     
   9 C9             5.7282     3.7961     0.3527 C.2     
  10 N10            5.4055     7.5473    -1.0182 N.am    
  11 C11            6.7084     6.8770    -1.1187 C.3     
  12 C12            6.8910     5.9673     0.1029 C.3     
  13 C13            5.6457     5.1227     0.2605 C.2     
  14 C14            4.3046     5.8211     0.3115 C.3     
  15 C15            4.1867     6.7345    -0.9153 C.3     
  16 O16            2.8330     8.9469    -1.2590 O.3     
  17 C17            4.0212     9.5538    -1.0595 C.2     
  18 C18            3.7922    10.8911    -0.9063 C.2     
  19 C19            2.4059    11.0788    -1.0210 C.2     
  20 C20            1.8565     9.8632    -1.2364 C.2     
  21 C21            5.3297     8.8930    -1.0150 C.2     
  22 O22            6.3471     9.5596    -0.9751 O.2     
  23 C23            4.8272    11.9588    -0.6615 C.3     
  24 C24           -1.2472     2.2354     0.9942 C.3     
  25 H25           -0.8313    -0.4242     1.1667 H       
  26 H26            1.3454    -1.6198     1.0895 H       
  27 H27            3.4270    -0.2913     0.8321 H       
  28 H28            6.6924     3.3111     0.3152 H       
  29 H29            6.7419     6.2780    -2.0287 H       
  30 H30            7.5025     7.6233    -1.1405 H       
  31 H31            7.7561     5.3213    -0.0468 H       
  32 H32            7.0370     6.5760     0.9952 H       
  33 H33            3.5046     5.0809     0.2961 H       
  34 H34            4.2358     6.4177     1.2211 H       
  35 H35            3.3208     7.3870    -0.8032 H       
  36 H36            4.0755     6.1273    -1.8136 H       
  37 H37            1.8776    12.0181    -0.9498 H       
  38 H38            0.8034     9.6635    -1.3689 H       
  39 H39            5.1787    12.3498    -1.6163 H       
  40 H40            4.3850    12.7667    -0.0787 H       
  41 H41            5.6666    11.5320    -0.1125 H       
  42 H42           -1.4921     2.4869     2.0262 H       
  43 H43           -1.1751     3.1494     0.4047 H       
  44 H44           -2.0280     1.5970     0.5808 H       
@<TRIPOS>BOND
   1    1    2 ar
   2    1    6 ar
   3    1   24 1
   4    2    3 ar
   5    2   25 1
   6    3    4 ar
   7    3   26 1
   8    4    5 ar
   9    4   27 1
  10    5    6 ar
  11    5    7 1
  12    7    8 3
  13    8    9 1
  14    9   13 2
  15    9   28 1
  16   10   11 1
  17   10   15 1
  18   10   21 am
  19   11   12 1
  20   11   29 1
  21   11   30 1
  22   12   13 1
  23   12   31 1
  24   12   32 1
  25   13   14 1
  26   14   15 1
  27   14   33 1
  28   14   34 1
  29   15   35 1
  30   15   36 1
  31   16   17 1
  32   16   20 1
  33   17   18 2
  34   17   21 1
  35   18   19 1
  36   18   23 1
  37   19   20 2
  38   19   37 1
  39   20   38 1
  40   21   22 2
  41   23   39 1
  42   23   40 1
  43   23   41 1
  44   24   42 1
  45   24   43 1
  46   24   44 1

#	End of record

