#	Name: ASD03330324
#	Creating user name:	WinNT
#	Creation time:	15. 06. 2019 20:37

#	Modifying user name:	WinNT
#	Modification time:	15. 06. 2019 20:37

#	Program:	/corina/corina34_cracker 3.40 0067  02.08.2006

@<TRIPOS>MOLECULE
ASD03330324
  67   71    0    0    0
SMALL
NO_CHARGES


@<TRIPOS>ATOM
   1 C1             0.2475     1.6651    -0.0321 C.3     
   2 N2             0.1810     0.1959    -0.0472 N.am    
   3 C3             0.7390    -0.5107    -1.2161 C.3     
   4 C4             2.0477     0.1611    -1.5525 C.2     
   5 N5             2.4631     1.3327    -1.0088 N.pl3   
   6 C6             1.7156     2.1054    -0.0139 C.3     
   7 C7             3.0104    -0.2507    -2.4162 C.2     
   8 N8             3.9986     0.6721    -2.3978 N.2     
   9 C9             3.6756     1.6271    -1.5561 C.2     
  10 C10            4.4919     2.8234    -1.2534 C.ar    
  11 C11            5.5513     3.1783    -2.0888 C.ar    
  12 C12            2.9839    -1.4813    -3.2266 C.2     
  13 O13            2.0335    -2.2366    -3.1543 O.2     
  14 C14            3.9866    -2.9929    -4.8534 C.3     
  15 N15            4.0130    -1.7696    -4.0478 N.am    
  16 S16           -0.4991    -0.6400     1.2101 S.o2    
  17 O17           -0.3439     0.2222     2.3289 O.2     
  18 C18           -2.2500    -0.7895     0.7597 C.3     
  19 O19            0.1361    -1.9105     1.1706 O.2     
  20 C20           -2.9953    -1.5529     1.8563 C.3     
  21 C21            4.3892    -2.6851    -6.3138 C.3     
  22 C22            4.6945    -1.1952    -6.4802 C.3     
  23 C23            6.3085     4.2953    -1.8013 C.ar    
  24 C24            6.0189     5.0629    -0.6873 C.ar    
  25 C25            4.9696     4.7163     0.1450 C.ar    
  26 C26            4.2017     3.6046    -0.1345 C.ar    
  27 C27            5.0669    -3.9985    -4.3503 C.3     
  28 C28            6.3672    -3.1465    -4.2296 C.3     
  29 C29            6.7698    -2.8387    -5.6900 C.3     
  30 C30            5.6748    -3.5337    -6.5555 C.3     
  31 C31            5.3620    -4.7924    -5.6717 C.3     
  32 C32            3.2773    -3.1112    -7.2746 C.3     
  33 C33            4.6907    -4.8230    -3.1176 C.3     
  34 H34           -0.2399     2.0607    -0.9232 H       
  35 H35           -0.2567     2.0431     0.8573 H       
  36 H36            0.9111    -1.5586    -0.9701 H       
  37 H37            0.0533    -0.4333    -2.0599 H       
  38 H38            1.7804     3.1668    -0.2534 H       
  39 H39            2.1365     1.9284     0.9759 H       
  40 H40            5.7786     2.5797    -2.9586 H       
  41 H41            2.9975    -3.4496    -4.8201 H       
  42 H42            4.7710    -1.1672    -4.1054 H       
  43 H43           -2.6832     0.2047     0.6504 H       
  44 H44           -2.3378    -1.3297    -0.1830 H       
  45 H45           -4.0473    -1.6427     1.5857 H       
  46 H46           -2.5621    -2.5471     1.9656 H       
  47 H47           -2.9075    -1.0127     2.7990 H       
  48 H48            5.4140    -0.8849    -5.7225 H       
  49 H49            5.1117    -1.0183    -7.4716 H       
  50 H50            3.7752    -0.6209    -6.3651 H       
  51 H51            7.1291     4.5709    -2.4471 H       
  52 H52            6.6147     5.9361    -0.4664 H       
  53 H53            4.7486     5.3195     1.0132 H       
  54 H54            3.3828     3.3350     0.5161 H       
  55 H55            6.1669    -2.2221    -3.6878 H       
  56 H56            7.1509    -3.7176    -3.7317 H       
  57 H57            6.7674    -1.7630    -5.8662 H       
  58 H58            7.7513    -3.2585    -5.9101 H       
  59 H59            5.9361    -3.7164    -7.5979 H       
  60 H60            6.2280    -5.4466    -5.5708 H       
  61 H61            4.4856    -5.3342    -6.0274 H       
  62 H62            2.3631    -2.5676    -7.0364 H       
  63 H63            3.5766    -2.8877    -8.2986 H       
  64 H64            3.1002    -4.1820    -7.1734 H       
  65 H65            3.8021    -5.4158    -3.3344 H       
  66 H66            5.5158    -5.4865    -2.8586 H       
  67 H67            4.4862    -4.1541    -2.2816 H       
@<TRIPOS>BOND
   1    1    2 1
   2    1    6 1
   3    1   34 1
   4    1   35 1
   5    2    3 1
   6    2   16 am
   7    3    4 1
   8    3   36 1
   9    3   37 1
  10    4    5 1
  11    4    7 2
  12    5    6 1
  13    5    9 1
  14    6   38 1
  15    6   39 1
  16    7    8 1
  17    7   12 1
  18    8    9 2
  19    9   10 1
  20   10   11 ar
  21   10   26 ar
  22   11   23 ar
  23   11   40 1
  24   12   13 2
  25   12   15 am
  26   14   21 1
  27   14   27 1
  28   14   15 1
  29   14   41 1
  30   15   42 1
  31   16   17 2
  32   16   18 1
  33   16   19 2
  34   18   20 1
  35   18   43 1
  36   18   44 1
  37   20   45 1
  38   20   46 1
  39   20   47 1
  40   21   22 1
  41   21   30 1
  42   21   32 1
  43   22   48 1
  44   22   49 1
  45   22   50 1
  46   23   24 ar
  47   23   51 1
  48   24   25 ar
  49   24   52 1
  50   25   26 ar
  51   25   53 1
  52   26   54 1
  53   27   28 1
  54   27   33 1
  55   27   31 1
  56   28   29 1
  57   28   55 1
  58   28   56 1
  59   29   30 1
  60   29   57 1
  61   29   58 1
  62   30   31 1
  63   30   59 1
  64   31   60 1
  65   31   61 1
  66   32   62 1
  67   32   63 1
  68   32   64 1
  69   33   65 1
  70   33   66 1
  71   33   67 1

#	End of record

