#	Name: ASD01885867
#	Creating user name:	WinNT
#	Creation time:	15. 06. 2019 19:50

#	Modifying user name:	WinNT
#	Modification time:	15. 06. 2019 19:50

#	Program:	/corina/corina34_cracker 3.40 0067  02.08.2006

@<TRIPOS>MOLECULE
ASD01885867
  44   47    0    0    0
SMALL
NO_CHARGES


@<TRIPOS>ATOM
   1 C1            -0.0170     1.4035     0.0098 C.ar    
   2 C2             1.2136     2.1080     0.0018 C.ar    
   3 C3             1.1959     3.5250     0.0097 C.ar    
   4 C4            -0.0391     4.1595     0.0249 C.ar    
   5 C5            -1.2086     3.3912     0.0319 C.ar    
   6 N6            -1.1706     2.0721     0.0299 N.ar    
   7 C7             0.0021    -0.0041     0.0020 C.ar    
   8 C8             1.1921    -0.6642    -0.0129 C.ar    
   9 C9             2.3993     0.0298    -0.0203 C.ar    
  10 C10            2.4217     1.3949    -0.0132 C.ar    
  11 C11            1.2035    -2.1712    -0.0211 C.3     
  12 C12            2.4548     4.3045     0.0024 C.ar    
  13 C13           -2.5235     4.0765     0.0486 C.2     
  14 N14           -3.6605     3.3528     0.0556 N.am    
  15 O15           -2.5760     5.2903     0.0561 O.2     
  16 C16            2.6330     5.3375    -0.9182 C.ar    
  17 C17            3.8074     6.0606    -0.9210 C.ar    
  18 C18            4.8096     5.7625    -0.0113 C.ar    
  19 C19            4.6374     4.7372     0.9052 C.ar    
  20 C20            3.4644     4.0121     0.9198 C.ar    
  21 F21            5.9584     6.4734    -0.0183 F       
  22 F22            3.6004     2.0551    -0.0211 F       
  23 N23            1.1940    -2.6521    -1.4049 N.am    
  24 C24            2.3150    -2.8813    -2.1000 C.2     
  25 C25            1.9508    -3.3668    -3.4860 C.3     
  26 C26            0.4086    -3.3786    -3.4713 C.3     
  27 C27            0.0636    -2.9039    -2.0766 C.2     
  28 O28            3.4431    -2.7243    -1.6848 O.2     
  29 O29           -1.0586    -2.7664    -1.6392 O.2     
  30 H30           -0.0967     5.2379     0.0317 H       
  31 H31           -0.9248    -0.5584     0.0083 H       
  32 H32            3.3296    -0.5187    -0.0319 H       
  33 H33            2.1011    -2.5304     0.4822 H       
  34 H34            0.3213    -2.5440     0.4992 H       
  35 H35           -3.6187     2.3837     0.0496 H       
  36 H36           -4.5207     3.8010     0.0665 H       
  37 H37            1.8527     5.5704    -1.6277 H       
  38 H38            3.9464     6.8603    -1.6335 H       
  39 H39            5.4213     4.5087     1.6121 H       
  40 H40            3.3311     3.2133     1.6343 H       
  41 H41            2.3219    -2.6770    -4.2440 H       
  42 H42            2.3405    -4.3706    -3.6556 H       
  43 H43            0.0126    -2.6947    -4.2220 H       
  44 H44            0.0311    -4.3882    -3.6336 H       
@<TRIPOS>BOND
   1    1    7 ar
   2    1    2 ar
   3    1    6 ar
   4    2    3 ar
   5    2   10 ar
   6    3    4 ar
   7    3   12 1
   8    4    5 ar
   9    4   30 1
  10    5    6 ar
  11    5   13 1
  12    7    8 ar
  13    7   31 1
  14    8   11 1
  15    8    9 ar
  16    9   10 ar
  17    9   32 1
  18   10   22 1
  19   11   23 1
  20   11   33 1
  21   11   34 1
  22   12   16 ar
  23   12   20 ar
  24   13   14 am
  25   13   15 2
  26   14   35 1
  27   14   36 1
  28   16   17 ar
  29   16   37 1
  30   17   18 ar
  31   17   38 1
  32   18   19 ar
  33   18   21 1
  34   19   20 ar
  35   19   39 1
  36   20   40 1
  37   23   24 am
  38   23   27 am
  39   24   25 1
  40   24   28 2
  41   25   26 1
  42   25   41 1
  43   25   42 1
  44   26   27 1
  45   26   43 1
  46   26   44 1
  47   27   29 2

#	End of record

