#	Name: ASD02030340
#	Creating user name:	WinNT
#	Creation time:	15. 06. 2019 20:15

#	Modifying user name:	WinNT
#	Modification time:	15. 06. 2019 20:15

#	Program:	/corina/corina34_cracker 3.40 0067  02.08.2006

@<TRIPOS>MOLECULE
ASD02030340
  49   50    0    0    0
SMALL
NO_CHARGES


@<TRIPOS>ATOM
   1 N1             0.0611     1.3755     0.2442 N.3     
   2 C2             0.0580    -0.0889     0.1268 C.3     
   3 C3             0.6647    -0.4914    -1.2216 C.3     
   4 N4             1.9877     0.1392    -1.3454 N.am    
   5 C5             2.0934     1.5866    -1.1063 C.3     
   6 C6             1.4297     1.9081     0.2368 C.3     
   7 C7             1.3902     3.4247     0.4330 C.3     
   8 C8             0.7339     3.7492     1.7764 C.3     
   9 C9             1.5786     1.5919     2.7110 C.3     
  10 C10            2.2352     1.2667     1.3679 C.3     
  11 C11            3.0741    -0.5898    -1.6689 C.2     
  12 O12            2.9891    -1.7988    -1.7620 O.2     
  13 C13            4.3693     0.0810    -1.9105 C.ar    
  14 C14            5.5542    -0.4987    -1.4552 C.ar    
  15 C15            6.7606     0.1332    -1.6843 C.ar    
  16 C16            6.7952     1.3392    -2.3634 C.ar    
  17 C17            5.6233     1.9186    -2.8165 C.ar    
  18 C18            4.4126     1.2940    -2.5999 C.ar    
  19 Cl19           8.2363    -0.5856    -1.1191 Cl      
  20 C20            1.5421     3.1089     2.9068 C.3     
  21 H21           -0.4953     1.7978    -0.4839 H       
  22 H22            0.6492    -0.5198     0.9348 H       
  23 H23           -0.9663    -0.4565     0.1890 H       
  24 H24            0.7701    -1.5753    -1.2667 H       
  25 H25            0.0189    -0.1495    -2.0304 H       
  26 H26            3.1437     1.8766    -1.0744 H       
  27 H27            1.5854     2.1277    -1.9046 H       
  28 H28            2.4063     3.8191     0.4205 H       
  29 H29            0.8139     3.8803    -0.3722 H       
  30 H30            0.7069     4.8298     1.9160 H       
  31 H31           -0.2826     3.3558     1.7886 H       
  32 H32            0.5617     1.1995     2.7228 H       
  33 H33            2.1536     1.1353     3.5166 H       
  34 H34            2.2605     0.1860     1.2282 H       
  35 H35            3.2524     1.6582     1.3567 H       
  36 H36            5.5278    -1.4391    -0.9248 H       
  37 H37            7.7410     1.8299    -2.5399 H       
  38 H38            5.6570     2.8598    -3.3450 H       
  39 H39            3.4988     1.7477    -2.9543 H       
  40 H40            2.5588     3.5015     2.8941 H       
  41 H41            1.0749     3.3406     3.8640 H       
  42 C42           15.2115    11.0380    10.0107 C.2     
  43 O43           15.2278     9.8298    10.0040 O.2     
  44 C44           16.5062    11.8092    10.0025 C.3     
  45 O45           14.0400    11.6932    10.0198 O.3     
  46 F46           17.5817    10.9146     9.9874 F       
  47 F47           16.5584    12.6205     8.8640 F       
  48 F48           16.5803    12.6082    11.1484 F       
  49 H49           13.2363    11.1556    10.0207 H       
@<TRIPOS>BOND
   1    1    2 1
   2    1    6 1
   3    1   21 1
   4    2    3 1
   5    2   22 1
   6    2   23 1
   7    3    4 1
   8    3   24 1
   9    3   25 1
  10    4    5 1
  11    4   11 am
  12    5    6 1
  13    5   26 1
  14    5   27 1
  15    6    7 1
  16    6   10 1
  17    7    8 1
  18    7   28 1
  19    7   29 1
  20    8   20 1
  21    8   30 1
  22    8   31 1
  23    9   10 1
  24    9   20 1
  25    9   32 1
  26    9   33 1
  27   10   34 1
  28   10   35 1
  29   11   12 2
  30   11   13 1
  31   13   14 ar
  32   13   18 ar
  33   14   15 ar
  34   14   36 1
  35   15   16 ar
  36   15   19 1
  37   16   17 ar
  38   16   37 1
  39   17   18 ar
  40   17   38 1
  41   18   39 1
  42   20   40 1
  43   20   41 1
  44   42   43 2
  45   42   44 1
  46   42   45 1
  47   44   46 1
  48   44   47 1
  49   44   48 1
  50   45   49 1

#	End of record

