#	Name: ASD03730595
#	Creating user name:	WinNT
#	Creation time:	15. 06. 2019 20:44

#	Modifying user name:	WinNT
#	Modification time:	15. 06. 2019 20:44

#	Program:	/corina/corina34_cracker 3.40 0067  02.08.2006

@<TRIPOS>MOLECULE
ASD03730595
  61   66    0    0    0
SMALL
NO_CHARGES


@<TRIPOS>ATOM
   1 O1            -0.5403     0.8323     3.4294 O.3     
   2 C2            -0.3632    -0.5864     3.6001 C.3     
   3 O3             0.3807    -0.9814     2.4325 O.3     
   4 C4             1.0836     0.1269     2.0548 C.ar    
   5 C5             0.5158     1.2420     2.6668 C.ar    
   6 C6             2.1806     0.2764     1.2256 C.ar    
   7 C7             2.7234     1.5368     0.9950 C.ar    
   8 C8             2.1420     2.6446     1.6045 C.ar    
   9 C9             1.0518     2.4979     2.4365 C.ar    
  10 O10            3.7988     1.8976     0.2377 O.3     
  11 C11            2.9231     3.8463     1.1446 C.3     
  12 C12            3.7280     3.3081    -0.0463 C.3     
  13 N13            2.3855     6.0362     1.5152 N.am    
  14 C14            2.0305     4.9867     0.7473 C.2     
  15 C15            3.8136     4.3949     2.2194 C.ar    
  16 C16            4.8401     3.8556     2.9825 C.ar    
  17 C17            5.4917     4.6481     3.9270 C.ar    
  18 C18            5.1103     5.9644     4.0960 C.ar    
  19 C19            4.0901     6.5001     3.3365 C.ar    
  20 C20            3.4298     5.7204     2.3884 C.ar    
  21 O21            1.1616     4.9675    -0.0986 O.2     
  22 C22            1.7504     7.3544     1.4428 C.3     
  23 C23            0.5716     7.4068     2.4168 C.3     
  24 C24           -0.0917     8.7835     2.3412 C.3     
  25 C25           -1.2705     8.8358     3.3151 C.3     
  26 C26           -1.9337    10.2125     3.2395 C.3     
  27 C27            5.2425     2.4399     2.7942 C.ar    
  28 C28            4.4502     1.4126     3.3087 C.ar    
  29 C29            4.8284     0.0949     3.1313 C.ar    
  30 C30            5.9898    -0.2079     2.4453 C.ar    
  31 C31            6.7823     0.8086     1.9311 C.ar    
  32 C32            6.4088     2.1318     2.0987 C.ar    
  33 O33            7.9235     0.5052     1.2573 O.3     
  34 C34            8.2449    -0.8801     1.1165 C.3     
  35 F35            3.3150     1.7057     3.9799 F       
  36 H36            0.2064    -0.7950     4.5058 H       
  37 H37           -1.3283    -1.0921     3.6285 H       
  38 H38            2.6190    -0.5908     0.7543 H       
  39 H39            0.6148     3.3649     2.9095 H       
  40 H40            4.7247     3.7487    -0.0708 H       
  41 H41            3.2008     3.4884    -0.9831 H       
  42 H42            6.2909     4.2341     4.5238 H       
  43 H43            5.6140     6.5791     4.8274 H       
  44 H44            3.8010     7.5310     3.4780 H       
  45 H45            2.4763     8.1226     1.7093 H       
  46 H46            1.3917     7.5297     0.4286 H       
  47 H47           -0.1543     6.6386     2.1503 H       
  48 H48            0.9303     7.2315     3.4311 H       
  49 H49            0.6342     9.5517     2.6077 H       
  50 H50           -0.4503     8.9587     1.3269 H       
  51 H51           -1.9964     8.0676     3.0486 H       
  52 H52           -0.9118     8.6606     4.3294 H       
  53 H53           -2.7735    10.2498     3.9334 H       
  54 H54           -1.2078    10.9807     3.5060 H       
  55 H55           -2.2924    10.3878     2.2253 H       
  56 H56            4.2153    -0.6999     3.5299 H       
  57 H57            6.2815    -1.2389     2.3095 H       
  58 H58            7.0229     2.9229     1.6944 H       
  59 H59            9.1770    -0.9821     0.5607 H       
  60 H60            8.3594    -1.3286     2.1033 H       
  61 H61            7.4436    -1.3861     0.5782 H       
@<TRIPOS>BOND
   1    1    2 1
   2    1    5 1
   3    2    3 1
   4    2   36 1
   5    2   37 1
   6    3    4 1
   7    4    5 ar
   8    4    6 ar
   9    5    9 ar
  10    6    7 ar
  11    6   38 1
  12    7    8 ar
  13    7   10 1
  14    8    9 ar
  15    8   11 1
  16    9   39 1
  17   10   12 1
  18   11   12 1
  19   11   14 1
  20   11   15 1
  21   12   40 1
  22   12   41 1
  23   13   14 am
  24   13   20 1
  25   13   22 1
  26   14   21 2
  27   15   16 ar
  28   15   20 ar
  29   16   17 ar
  30   16   27 1
  31   17   18 ar
  32   17   42 1
  33   18   19 ar
  34   18   43 1
  35   19   20 ar
  36   19   44 1
  37   22   23 1
  38   22   45 1
  39   22   46 1
  40   23   24 1
  41   23   47 1
  42   23   48 1
  43   24   25 1
  44   24   49 1
  45   24   50 1
  46   25   26 1
  47   25   51 1
  48   25   52 1
  49   26   53 1
  50   26   54 1
  51   26   55 1
  52   27   28 ar
  53   27   32 ar
  54   28   29 ar
  55   28   35 1
  56   29   30 ar
  57   29   56 1
  58   30   31 ar
  59   30   57 1
  60   31   32 ar
  61   31   33 1
  62   32   58 1
  63   33   34 1
  64   34   59 1
  65   34   60 1
  66   34   61 1

#	End of record

