#	Name: ASD06660085
#	Creating user name:	WinNT
#	Creation time:	15. 06. 2019 21:08

#	Modifying user name:	WinNT
#	Modification time:	15. 06. 2019 21:08

#	Program:	/corina/corina34_cracker 3.40 0067  02.08.2006

@<TRIPOS>MOLECULE
ASD06660085
  69   72    0    0    0
SMALL
NO_CHARGES


@<TRIPOS>ATOM
   1 C1            -0.4346     1.5271     1.0387 C.2     
   2 C2            -0.2898     0.0821     0.6364 C.3     
   3 C3            -1.3070    -0.2469    -0.4581 C.3     
   4 O4             0.4982     2.2851     0.9150 O.2     
   5 O5            -1.6015     1.9735     1.5294 O.3     
   6 C6            -1.2617    -1.7229    -0.7588 C.ar    
   7 C7            -2.0472    -2.5987    -0.0308 C.ar    
   8 C8            -2.0098    -3.9512    -0.3009 C.ar    
   9 C9            -1.1780    -4.4350    -1.3109 C.ar    
  10 C10           -0.3888    -3.5468    -2.0418 C.ar    
  11 C11           -0.4390    -2.1959    -1.7655 C.ar    
  12 O12           -1.8700    -6.7956    -0.9366 O.3     
  13 C13           -1.1328    -5.8846    -1.6055 C.2     
  14 N14           -0.3816    -6.3957    -2.5302 N.2     
  15 C15           -0.5960    -7.8558    -2.5521 C.3     
  16 C16           -1.8971    -8.0025    -1.7260 C.3     
  17 C17           -0.7980    -8.3570    -3.9834 C.3     
  18 N18            0.3523    -7.9693    -4.8036 N.pl3   
  19 C19            0.3953    -8.3162    -6.1489 C.ar    
  20 C20           -0.6576    -9.0319    -6.7103 C.ar    
  21 C21           -0.6019    -9.3704    -8.0501 C.ar    
  22 C22            0.5092    -8.9806    -8.7865 C.ar    
  23 C23            1.5177    -8.2722    -8.1651 C.ar    
  24 N24            1.4352    -7.9582    -6.8859 N.ar    
  25 C25            2.0926    -0.2859     0.9912 C.2     
  26 C26            3.4723    -0.4285     0.4795 C.ar    
  27 C27            4.0427    -1.6955     0.3453 C.ar    
  28 C28            5.3303    -1.8217    -0.1332 C.ar    
  29 C29            6.0564    -0.6957    -0.4794 C.ar    
  30 C30            5.4971     0.5628    -0.3488 C.ar    
  31 C31            4.2081     0.7025     0.1231 C.ar    
  32 O32            1.8850    -0.2908     2.1889 O.2     
  33 N33            1.0650    -0.1504     0.1297 N.am    
  34 C34            7.4630    -0.8411    -1.0005 C.3     
  35 F35            7.4336    -0.9652    -2.3937 F       
  36 F36            8.2097     0.2884    -0.6486 F       
  37 F37            8.0513    -1.9814    -0.4430 F       
  38 C38            3.5983     2.0739     0.2594 C.3     
  39 C39            3.2538    -2.9228     0.7227 C.3     
  40 C40            2.4142    -3.3771    -0.4729 C.3     
  41 H41           -0.4684    -0.5558     1.5020 H       
  42 H42           -2.3067     0.0241    -0.1185 H       
  43 H43           -1.0649     0.3152    -1.3601 H       
  44 H44           -1.6463     2.9081     1.7737 H       
  45 H45           -2.6907    -2.2229     0.7509 H       
  46 H46           -2.6229    -4.6340     0.2686 H       
  47 H47            0.2574    -3.9154    -2.8247 H       
  48 H48            0.1686    -1.5068    -2.3333 H       
  49 H49            0.2313    -8.3780    -2.0714 H       
  50 H50           -1.8595    -8.8871    -1.0902 H       
  51 H51           -2.7724    -8.0261    -2.3752 H       
  52 H52           -0.8911    -9.4430    -3.9784 H       
  53 H53           -1.7048    -7.9166    -4.3981 H       
  54 H54            1.0840    -7.4704    -4.4078 H       
  55 H55           -1.5068    -9.3193    -6.1080 H       
  56 H56           -1.4041    -9.9258    -8.5131 H       
  57 H57            0.5835    -9.2296    -9.8348 H       
  58 H58            2.3835    -7.9671    -8.7341 H       
  59 H59            5.7728    -2.8013    -0.2375 H       
  60 H60            6.0691     1.4375    -0.6207 H       
  61 H61            1.2225    -0.2068    -0.8257 H       
  62 H62            3.8142     2.4706     1.2514 H       
  63 H63            4.0205     2.7360    -0.4966 H       
  64 H64            2.5190     2.0069     0.1219 H       
  65 H65            3.9384    -3.7207     1.0101 H       
  66 H66            2.5965    -2.6888     1.5602 H       
  67 H67            1.7690    -4.2022    -0.1713 H       
  68 H68            1.8017    -2.5463    -0.8234 H       
  69 H69            3.0738    -3.7063    -1.2759 H       
@<TRIPOS>BOND
   1    1    2 1
   2    1    4 2
   3    1    5 1
   4    2    3 1
   5    2   33 1
   6    2   41 1
   7    3    6 1
   8    3   42 1
   9    3   43 1
  10    5   44 1
  11    6    7 ar
  12    6   11 ar
  13    7    8 ar
  14    7   45 1
  15    8    9 ar
  16    8   46 1
  17    9   10 ar
  18    9   13 1
  19   10   11 ar
  20   10   47 1
  21   11   48 1
  22   12   13 1
  23   12   16 1
  24   13   14 2
  25   14   15 1
  26   15   16 1
  27   15   17 1
  28   15   49 1
  29   16   50 1
  30   16   51 1
  31   17   18 1
  32   17   52 1
  33   17   53 1
  34   18   19 1
  35   18   54 1
  36   19   20 ar
  37   19   24 ar
  38   20   21 ar
  39   20   55 1
  40   21   22 ar
  41   21   56 1
  42   22   23 ar
  43   22   57 1
  44   23   24 ar
  45   23   58 1
  46   25   26 1
  47   25   32 2
  48   25   33 am
  49   26   27 ar
  50   26   31 ar
  51   27   28 ar
  52   27   39 1
  53   28   29 ar
  54   28   59 1
  55   29   30 ar
  56   29   34 1
  57   30   31 ar
  58   30   60 1
  59   31   38 1
  60   33   61 1
  61   34   35 1
  62   34   36 1
  63   34   37 1
  64   38   62 1
  65   38   63 1
  66   38   64 1
  67   39   40 1
  68   39   65 1
  69   39   66 1
  70   40   67 1
  71   40   68 1
  72   40   69 1

#	End of record

