#	Name: ASD01910823
#	Creating user name:	WinNT
#	Creation time:	15. 06. 2019 19:56

#	Modifying user name:	WinNT
#	Modification time:	15. 06. 2019 19:56

#	Program:	/corina/corina34_cracker 3.40 0067  02.08.2006

@<TRIPOS>MOLECULE
ASD01910823
  44   45    0    0    0
SMALL
NO_CHARGES


@<TRIPOS>ATOM
   1 N1            -0.0169     1.3965     0.0097 N.2     
   2 N2             0.0021    -0.0041     0.0020 N.pl3   
   3 C3             1.2284     1.8226     0.0001 C.2     
   4 C4             2.0723     0.6949    -0.0140 C.2     
   5 C5             1.2908    -0.4070    -0.0125 C.2     
   6 C6             1.7726    -1.8349    -0.0240 C.3     
   7 C7             1.6661     3.2407     0.0031 C.ar    
   8 C8             0.7197     4.2632     0.0177 C.ar    
   9 C9             1.1295     5.5804     0.0204 C.ar    
  10 C10            2.4830     5.8875     0.0086 C.ar    
  11 C11            3.4282     4.8707    -0.0064 C.ar    
  12 C12            3.0246     3.5521    -0.0029 C.ar    
  13 C13           -1.1724    -0.8798     0.0093 C.3     
  14 C14           -1.5892    -1.1729    -1.4090 C.2     
  15 O15           -2.6495    -1.9605    -1.6477 O.3     
  16 O16           -0.9688    -0.6990    -2.3312 O.2     
  17 C17           -2.9934    -2.1996    -3.0380 C.3     
  18 O18            2.8837     7.1860     0.0113 O.3     
  19 C19            3.0474    -1.9362    -0.8639 C.3     
  20 C20            2.0684    -2.2849     1.4081 C.3     
  21 C21            4.2916     7.4304    -0.0013 C.3     
  22 C22            0.1066     6.6869     0.0357 C.3     
  23 H23            3.1521     0.7088    -0.0248 H       
  24 H24            1.0022    -2.4748    -0.4541 H       
  25 H25           -0.3336     4.0248     0.0265 H       
  26 H26            4.4807     5.1127    -0.0159 H       
  27 H27            3.7603     2.7615    -0.0146 H       
  28 H28           -0.9266    -1.8130     0.5160 H       
  29 H29           -1.9905    -0.3861     0.5337 H       
  30 H30           -3.8666    -2.8500    -3.0897 H       
  31 H31           -3.2178    -1.2507    -3.5252 H       
  32 H32           -2.1539    -2.6777    -3.5429 H       
  33 H33            3.8178    -1.2963    -0.4338 H       
  34 H34            3.3959    -2.9690    -0.8723 H       
  35 H35            2.8367    -1.6156    -1.8842 H       
  36 H36            2.4168    -3.3176     1.3998 H       
  37 H37            2.8388    -1.6449     1.8383 H       
  38 H38            1.1602    -2.2127     2.0065 H       
  39 H39            4.4738     8.5051     0.0024 H       
  40 H40            4.7462     6.9818     0.8819 H       
  41 H41            4.7287     6.9909    -0.8979 H       
  42 H42           -0.1303     6.9486     1.0670 H       
  43 H43            0.5085     7.5604    -0.4776 H       
  44 H44           -0.7984     6.3521    -0.4713 H       
@<TRIPOS>BOND
   1    1    2 1
   2    1    3 2
   3    2   13 1
   4    2    5 1
   5    3    4 1
   6    3    7 1
   7    4    5 2
   8    4   23 1
   9    5    6 1
  10    6   19 1
  11    6   20 1
  12    6   24 1
  13    7    8 ar
  14    7   12 ar
  15    8    9 ar
  16    8   25 1
  17    9   10 ar
  18    9   22 1
  19   10   11 ar
  20   10   18 1
  21   11   12 ar
  22   11   26 1
  23   12   27 1
  24   13   14 1
  25   13   28 1
  26   13   29 1
  27   14   15 1
  28   14   16 2
  29   15   17 1
  30   17   30 1
  31   17   31 1
  32   17   32 1
  33   18   21 1
  34   19   33 1
  35   19   34 1
  36   19   35 1
  37   20   36 1
  38   20   37 1
  39   20   38 1
  40   21   39 1
  41   21   40 1
  42   21   41 1
  43   22   42 1
  44   22   43 1
  45   22   44 1

#	End of record

