#	Name: ASD08150994
#	Creating user name:	WinNT
#	Creation time:	15. 06. 2019 21:16

#	Modifying user name:	WinNT
#	Modification time:	15. 06. 2019 21:16

#	Program:	/corina/corina34_cracker 3.40 0067  02.08.2006

@<TRIPOS>MOLECULE
ASD08150994
  24   25    0    0    0
SMALL
NO_CHARGES


@<TRIPOS>ATOM
   1 C1            -0.0187     1.5258     0.0104 C.3     
   2 C2             0.0021    -0.0041     0.0020 C.3     
   3 S3             5.6296     3.5741     0.2917 S.3     
   4 C4             5.4095     3.3221     1.9651 C.2     
   5 N5             4.2419     2.8670     2.2217 N.2     
   6 C6             3.4041     2.6650     1.1868 C.ar    
   7 C7             3.9947     3.0069    -0.0347 C.ar    
   8 C8             2.0804     2.1789     1.1821 C.ar    
   9 C9             1.3951     2.0474    -0.0003 C.ar    
  10 C10            1.9922     2.3899    -1.2051 C.ar    
  11 C11            3.2833     2.8671    -1.2243 C.ar    
  12 C12            6.4594     3.6005     3.0097 C.3     
  13 Br13           1.2459     1.7050     2.8115 Br      
  14 O14           -0.7098     1.9991    -1.1473 O.3     
  15 H15           -0.5289     1.8773     0.9072 H       
  16 H16            0.5123    -0.3556    -0.8948 H       
  17 H17            0.5293    -0.3651     0.8851 H       
  18 H18           -1.0205    -0.3814     0.0098 H       
  19 H19            1.4433     2.2822    -2.1289 H       
  20 H20            3.7458     3.1330    -2.1633 H       
  21 H21            7.3599     3.9807     2.5274 H       
  22 H22            6.0834     4.3426     3.7140 H       
  23 H23            6.6943     2.6794     3.5432 H       
  24 H24           -1.6280     1.7017    -1.2062 H       
@<TRIPOS>BOND
   1    1    2 1
   2    1    9 1
   3    1   14 1
   4    1   15 1
   5    2   16 1
   6    2   17 1
   7    2   18 1
   8    3    4 1
   9    3    7 1
  10    4    5 2
  11    4   12 1
  12    5    6 1
  13    6    7 ar
  14    6    8 ar
  15    7   11 ar
  16    8    9 ar
  17    8   13 1
  18    9   10 ar
  19   10   11 ar
  20   10   19 1
  21   11   20 1
  22   12   21 1
  23   12   22 1
  24   12   23 1
  25   14   24 1

#	End of record

