#	Name: ASD05430215
#	Creating user name:	WinNT
#	Creation time:	15. 06. 2019 21:00

#	Modifying user name:	WinNT
#	Modification time:	15. 06. 2019 21:00

#	Program:	/corina/corina34_cracker 3.40 0067  02.08.2006

@<TRIPOS>MOLECULE
ASD05430215
  74   79    0    0    0
SMALL
NO_CHARGES


@<TRIPOS>ATOM
   1 C1             0.1871     1.9325    -1.1127 C.ar    
   2 C2             0.1871     0.5672    -1.3953 C.ar    
   3 C3             1.3783    -0.1467    -1.3896 C.ar    
   4 C4             2.5663     0.4910    -1.1046 C.ar    
   5 C5             2.5742     1.8606    -0.8205 C.ar    
   6 C6             1.3747     2.5791    -0.8263 C.ar    
   7 O7             4.9510     0.4601    -0.3352 O.3     
   8 C8             4.9759     1.8267    -0.3679 C.2     
   9 C9             3.8416     2.5434    -0.5155 C.2     
  10 C10            6.0866    -0.1867     0.2482 C.3     
  11 C11            6.8719     0.6421     1.2731 C.3     
  12 N12            7.1946     1.9353     0.6665 N.pl3   
  13 C13            6.2894     2.4908    -0.2355 C.2     
  14 N14           -1.0189    -0.0870    -1.6855 N.pl3   
  15 C15           -2.1650    -0.0268    -0.9595 C.2     
  16 C16           -1.2652    -0.9032    -2.7588 C.2     
  17 C17           -2.5426    -1.3160    -2.6500 C.2     
  18 N18           -3.0673    -0.7667    -1.5447 N.2     
  19 C19           -3.2597    -2.2330    -3.6071 C.3     
  20 C20           -0.9063     4.0245    -0.8256 C.3     
  21 O21           -0.9804     2.6291    -1.1243 O.3     
  22 C22            5.9944    -1.6946     0.4870 C.3     
  23 C23            6.8818    -1.1499    -0.6342 C.3     
  24 C24            8.4198     2.6638     0.9903 C.3     
  25 C25            8.9183     3.3597    -0.2809 C.3     
  26 O26            7.8729     4.1402    -0.8514 O.3     
  27 N27            6.6054     3.5306    -0.9352 N.2     
  28 C28            8.1326     3.6930     2.0531 C.ar    
  29 C29            9.1567     4.4783     2.5490 C.ar    
  30 C30            6.8449     3.8551     2.5272 C.ar    
  31 C31            6.5803     4.8014     3.5031 C.ar    
  32 C32            7.6065     5.5840     4.0034 C.ar    
  33 C33            8.8943     5.4234     3.5245 C.ar    
  34 C34            9.4834     1.6857     1.4932 C.3     
  35 C35            9.7767     0.6485     0.4073 C.3     
  36 S36           10.9650    -0.5682     1.0383 S.o2    
  37 C37           11.1603    -1.6747    -0.3858 C.3     
  38 O38           12.2029     0.0884     1.2746 O.2     
  39 O39           10.3518    -1.2940     2.0949 O.2     
  40 C40           12.1482    -2.7889    -0.0342 C.3     
  41 F41            5.3212     4.9608     3.9663 F       
  42 Cl42          10.1821     6.4044     4.1513 Cl      
  43 H43            1.3737    -1.2042    -1.6087 H       
  44 H44            3.4911    -0.0668    -1.1002 H       
  45 H45            1.3762     3.6368    -0.6079 H       
  46 H46            3.8642     3.6180    -0.4096 H       
  47 H47            6.2641     0.7957     2.1648 H       
  48 H48            7.7917     0.1214     1.5397 H       
  49 H49           -2.3063     0.5386    -0.0502 H       
  50 H50           -0.5688    -1.1649    -3.5417 H       
  51 H51           -3.1233    -3.2671    -3.2906 H       
  52 H52           -4.3227    -1.9922    -3.6135 H       
  53 H53           -2.8517    -2.1030    -4.6094 H       
  54 H54           -1.9051     4.4589    -0.8689 H       
  55 H55           -0.4940     4.1607     0.1742 H       
  56 H56           -0.2633     4.5184    -1.5541 H       
  57 H57            6.4899    -2.0954     1.3713 H       
  58 H58            5.0694    -2.1942     0.1992 H       
  59 H59            6.5405    -1.2912    -1.6597 H       
  60 H60            7.9610    -1.1924    -0.4875 H       
  61 H61            9.7591     4.0075    -0.0327 H       
  62 H62            9.2429     2.6085    -1.0009 H       
  63 H63           10.1621     4.3536     2.1748 H       
  64 H64            6.0446     3.2441     2.1364 H       
  65 H65            7.4011     6.3225     4.7643 H       
  66 H66           10.3965     2.2319     1.7301 H       
  67 H67            9.1191     1.1814     2.3883 H       
  68 H68            8.8522     0.1428     0.1287 H       
  69 H69           10.1962     1.1465    -0.4669 H       
  70 H70           10.1951    -2.1121    -0.6411 H       
  71 H71           11.5390    -1.1084    -1.2366 H       
  72 H72           12.2655    -3.4538    -0.8899 H       
  73 H73           13.1134    -2.3515     0.2211 H       
  74 H74           11.7694    -3.3552     0.8167 H       
@<TRIPOS>BOND
   1    1    2 ar
   2    1    6 ar
   3    1   21 1
   4    2    3 ar
   5    2   14 1
   6    3    4 ar
   7    3   43 1
   8    4    5 ar
   9    4   44 1
  10    5    6 ar
  11    5    9 1
  12    6   45 1
  13    7    8 1
  14    7   10 1
  15    8    9 2
  16    8   13 1
  17    9   46 1
  18   10   11 1
  19   10   22 1
  20   10   23 1
  21   11   12 1
  22   11   47 1
  23   11   48 1
  24   12   13 1
  25   12   24 1
  26   13   27 2
  27   14   15 1
  28   14   16 1
  29   15   18 2
  30   15   49 1
  31   16   17 2
  32   16   50 1
  33   17   18 1
  34   17   19 1
  35   19   51 1
  36   19   52 1
  37   19   53 1
  38   20   21 1
  39   20   54 1
  40   20   55 1
  41   20   56 1
  42   22   23 1
  43   22   57 1
  44   22   58 1
  45   23   59 1
  46   23   60 1
  47   24   25 1
  48   24   28 1
  49   24   34 1
  50   25   26 1
  51   25   61 1
  52   25   62 1
  53   26   27 1
  54   28   29 ar
  55   28   30 ar
  56   29   33 ar
  57   29   63 1
  58   30   31 ar
  59   30   64 1
  60   31   32 ar
  61   31   41 1
  62   32   33 ar
  63   32   65 1
  64   33   42 1
  65   34   35 1
  66   34   66 1
  67   34   67 1
  68   35   36 1
  69   35   68 1
  70   35   69 1
  71   36   37 1
  72   36   38 2
  73   36   39 2
  74   37   40 1
  75   37   70 1
  76   37   71 1
  77   40   72 1
  78   40   73 1
  79   40   74 1

#	End of record

