#	Name: ASD01913096
#	Creating user name:	WinNT
#	Creation time:	15. 06. 2019 20:00

#	Modifying user name:	WinNT
#	Modification time:	15. 06. 2019 20:00

#	Program:	/corina/corina34_cracker 3.40 0067  02.08.2006

@<TRIPOS>MOLECULE
ASD01913096
  39   40    0    0    0
SMALL
NO_CHARGES


@<TRIPOS>ATOM
   1 C1             0.1665     1.1233     0.3371 C.ar    
   2 C2             0.2888    -0.2612     0.3462 C.ar    
   3 C3             1.5422    -0.8527     0.2412 C.ar    
   4 C4             2.6684    -0.0684     0.1276 C.ar    
   5 C5             2.5497     1.3239     0.1177 C.ar    
   6 C6             1.2877     1.9147     0.2235 C.ar    
   7 N7             3.6376     3.5109    -0.0128 N.am    
   8 C8             3.7540     2.1683    -0.0033 C.2     
   9 O9             4.8515     1.6525    -0.0945 O.2     
  10 O10           -0.8186    -1.0376     0.4584 O.3     
  11 C11            4.7854     4.3134    -0.0418 C.ar    
  12 C12            4.7449     5.6055     0.4702 C.ar    
  13 C13            5.8799     6.3952     0.4400 C.ar    
  14 C14            7.0547     5.8994    -0.0995 C.ar    
  15 C15            7.0959     4.6128    -0.6101 C.ar    
  16 C16            5.9666     3.8179    -0.5766 C.ar    
  17 F17            3.5982     6.0891     0.9961 F       
  18 F18            8.1624     6.6722    -0.1282 F       
  19 C19           -3.1140    -5.3750     0.7306 C.3     
  20 C20           -1.7618    -4.6716     0.5972 C.3     
  21 C21           -1.9733    -3.1563     0.5944 C.3     
  22 C22           -0.6211    -2.4529     0.4610 C.3     
  23 H23           -0.8095     1.5790     0.4148 H       
  24 H24            1.6331    -1.9288     0.2489 H       
  25 H25            3.6420    -0.5288     0.0468 H       
  26 H26            1.1918     2.9904     0.2158 H       
  27 H27            2.7589     3.9216     0.0006 H       
  28 H28            5.8497     7.3992     0.8370 H       
  29 H29            8.0135     4.2287    -1.0307 H       
  30 H30            6.0001     2.8147    -0.9752 H       
  31 H31           -3.7517    -5.0987    -0.1091 H       
  32 H32           -2.9634    -6.4545     0.7327 H       
  33 H33           -3.5903    -5.0729     1.6634 H       
  34 H34           -1.1242    -4.9479     1.4370 H       
  35 H35           -1.2856    -4.9738    -0.3355 H       
  36 H36           -2.6110    -2.8800    -0.2453 H       
  37 H37           -2.4496    -2.8542     1.5271 H       
  38 H38           -0.1449    -2.7551    -0.4717 H       
  39 H39            0.0165    -2.7292     1.3007 H       
@<TRIPOS>BOND
   1    1    2 ar
   2    1    6 ar
   3    1   23 1
   4    2    3 ar
   5    2   10 1
   6    3    4 ar
   7    3   24 1
   8    4    5 ar
   9    4   25 1
  10    5    6 ar
  11    5    8 1
  12    6   26 1
  13    7    8 am
  14    7   11 1
  15    7   27 1
  16    8    9 2
  17   10   22 1
  18   11   12 ar
  19   11   16 ar
  20   12   13 ar
  21   12   17 1
  22   13   14 ar
  23   13   28 1
  24   14   15 ar
  25   14   18 1
  26   15   16 ar
  27   15   29 1
  28   16   30 1
  29   19   20 1
  30   19   31 1
  31   19   32 1
  32   19   33 1
  33   20   21 1
  34   20   34 1
  35   20   35 1
  36   21   22 1
  37   21   36 1
  38   21   37 1
  39   22   38 1
  40   22   39 1

#	End of record

