#	Name: ASD03331264
#	Creating user name:	WinNT
#	Creation time:	15. 06. 2019 20:38

#	Modifying user name:	WinNT
#	Modification time:	15. 06. 2019 20:38

#	Program:	/corina/corina34_cracker 3.40 0067  02.08.2006

@<TRIPOS>MOLECULE
ASD03331264
  51   54    0    0    0
SMALL
NO_CHARGES


@<TRIPOS>ATOM
   1 N1            -0.0157     1.4691    -0.0022 N.am    
   2 C2             0.0059    -0.0015    -0.0073 C.3     
   3 C3             0.9026    -0.4712    -1.1578 C.3     
   4 N4             2.2196     0.1690    -1.0407 N.3     
   5 C5             2.1164     1.6283    -1.1737 C.3     
   6 C6             1.2695     2.1841    -0.0238 C.3     
   7 C7            -1.1823     2.1437     0.0160 C.2     
   8 O8            -2.2346     1.5406    -0.0676 O.2     
   9 N9            -1.1824     3.4869     0.1270 N.am    
  10 C10           -2.3787     4.1932     0.0327 C.ar    
  11 C11           -2.5767     5.3506     0.8011 C.ar    
  12 C12           -3.7821     6.0502     0.6970 C.ar    
  13 C13           -4.7658     5.6009    -0.1565 C.ar    
  14 C14           -4.5669     4.4572    -0.9135 C.ar    
  15 C15           -3.3795     3.7591    -0.8262 C.ar    
  16 C16            3.1627    -0.3837    -2.0221 C.3     
  17 C17            4.4150     0.4544    -2.0425 C.ar    
  18 C18            5.4759     0.1431    -1.1954 C.ar    
  19 N19            6.5805     0.8494    -1.1848 N.ar    
  20 C20            6.7384     1.9041    -1.9904 C.ar    
  21 C21            5.6980     2.2756    -2.8779 C.ar    
  22 C22            4.5129     1.5167    -2.8957 C.ar    
  23 C23            7.9250     2.6583    -1.9745 C.ar    
  24 C24            8.0567     3.7273    -2.8061 C.ar    
  25 C25            7.0320     4.0910    -3.6778 C.ar    
  26 C26            5.8689     3.3848    -3.7221 C.ar    
  27 C27           -1.5204     5.8253     1.7125 C.2     
  28 O28           -0.4411     5.2674     1.7344 O.2     
  29 O29           -1.7513     6.8779     2.5215 O.3     
  30 H30            0.4048    -0.3651     0.9397 H       
  31 H31           -1.0051    -0.3821    -0.1522 H       
  32 H32            1.0189    -1.5539    -1.1096 H       
  33 H33            0.4476    -0.1958    -2.1093 H       
  34 H34            3.1130     2.0683    -1.1370 H       
  35 H35            1.6445     1.8744    -2.1249 H       
  36 H36            1.0938     3.2485    -0.1797 H       
  37 H37            1.7898     2.0306     0.9216 H       
  38 H38           -0.3491     3.9616     0.2725 H       
  39 H39           -3.9425     6.9416     1.2852 H       
  40 H40           -5.6967     6.1425    -0.2359 H       
  41 H41           -5.3442     4.1127    -1.5795 H       
  42 H42           -3.2306     2.8715    -1.4232 H       
  43 H43            3.4152    -1.4076    -1.7466 H       
  44 H44            2.7042    -0.3759    -3.0109 H       
  45 H45            5.3862    -0.7023    -0.5293 H       
  46 H46            3.7004     1.7719    -3.5599 H       
  47 H47            8.7286     2.3904    -1.3045 H       
  48 H48            8.9700     4.3034    -2.7901 H       
  49 H49            7.1623     4.9443    -4.3268 H       
  50 H50            5.0822     3.6762    -4.4021 H       
  51 H51           -1.0282     7.1527     3.1017 H       
@<TRIPOS>BOND
   1    1    2 1
   2    1    6 1
   3    1    7 am
   4    2    3 1
   5    2   30 1
   6    2   31 1
   7    3    4 1
   8    3   32 1
   9    3   33 1
  10    4    5 1
  11    4   16 1
  12    5    6 1
  13    5   34 1
  14    5   35 1
  15    6   36 1
  16    6   37 1
  17    7    8 2
  18    7    9 am
  19    9   10 1
  20    9   38 1
  21   10   11 ar
  22   10   15 ar
  23   11   12 ar
  24   11   27 1
  25   12   13 ar
  26   12   39 1
  27   13   14 ar
  28   13   40 1
  29   14   15 ar
  30   14   41 1
  31   15   42 1
  32   16   17 1
  33   16   43 1
  34   16   44 1
  35   17   18 ar
  36   17   22 ar
  37   18   19 ar
  38   18   45 1
  39   19   20 ar
  40   20   21 ar
  41   20   23 ar
  42   21   22 ar
  43   21   26 ar
  44   22   46 1
  45   23   24 ar
  46   23   47 1
  47   24   25 ar
  48   24   48 1
  49   25   26 ar
  50   25   49 1
  51   26   50 1
  52   27   28 2
  53   27   29 1
  54   29   51 1

#	End of record

