#	Name: ASD02560231
#	Creating user name:	WinNT
#	Creation time:	15. 06. 2019 20:24

#	Modifying user name:	WinNT
#	Modification time:	15. 06. 2019 20:24

#	Program:	/corina/corina34_cracker 3.40 0067  02.08.2006

@<TRIPOS>MOLECULE
ASD02560231
  55   58    0    0    0
SMALL
NO_CHARGES


@<TRIPOS>ATOM
   1 Br1            1.7349     2.5461    -1.7503 Br      
   2 N2            -0.0845     1.3165     0.0417 N.2     
   3 N3            -0.0935     0.0830    -0.0173 N.2     
   4 C4             1.2880     1.8390     0.0289 C.3     
   5 N5             2.1420     0.6673     0.3490 N.3     
   6 C6             1.2712    -0.4559    -0.0809 C.3     
   7 S7             1.4485    -1.8619     1.0515 S.3     
   8 C8             0.9359    -1.1679     2.6471 C.3     
   9 C9             1.0291    -2.2315     3.7107 C.2     
  10 O10            1.4045    -3.3477     3.4208 O.2     
  11 N11            0.6954    -1.9422     4.9841 N.am    
  12 C12            3.3233     0.6939    -0.3890 C.ar    
  13 C13            0.6680    -2.9563     5.9478 C.ar    
  14 C14            1.0210    -2.6773     7.2618 C.ar    
  15 C15            0.9929    -3.6804     8.2105 C.ar    
  16 C16            0.6139    -4.9616     7.8534 C.ar    
  17 C17            0.2624    -5.2427     6.5461 C.ar    
  18 C18            0.2824    -4.2423     5.5937 C.ar    
  19 S19            0.5794    -6.2387     9.0669 S.o2    
  20 C20            3.2924     0.5184    -1.7892 C.ar    
  21 C21            4.5328     0.8976     0.2409 C.ar    
  22 C22            5.7182     0.9259    -0.4871 C.ar    
  23 C23            5.7180     0.7543    -1.8379 C.ar    
  24 C24            4.5062     0.5492    -2.5191 C.ar    
  25 C25            2.0828     0.3138    -2.4711 C.ar    
  26 C26            4.4759     0.3686    -3.9129 C.ar    
  27 C27            3.2846     0.1719    -4.5408 C.ar    
  28 C28            2.0907     0.1476    -3.8225 C.ar    
  29 O29            0.7088    -7.4657     8.3620 O.2     
  30 O30            1.4710    -5.8368    10.0978 O.2     
  31 N31           -0.9363    -6.2402     9.7340 N.am    
  32 C32            1.4346    -1.2817     7.6518 C.3     
  33 C33            4.5711     1.0922     1.7348 C.3     
  34 H34            1.4065     2.6134     0.7868 H       
  35 H35            1.5138    -0.7556    -1.1004 H       
  36 H36            1.5890    -0.3351     2.9078 H       
  37 H37           -0.0928    -0.8145     2.5760 H       
  38 H38            0.4743    -1.0310     5.2325 H       
  39 H39            1.2676    -3.4642     9.2324 H       
  40 H40           -0.0328    -6.2442     6.2703 H       
  41 H41            0.0075    -4.4624     4.5727 H       
  42 H42            6.6539     1.0869     0.0277 H       
  43 H43            6.6482     0.7798    -2.3860 H       
  44 H44            1.1505     0.2878    -1.9266 H       
  45 H45            5.3933     0.3863    -4.4825 H       
  46 H46            3.2641     0.0334    -5.6117 H       
  47 H47            1.1587    -0.0107    -4.3447 H       
  48 H48           -1.6013    -5.6035     9.4285 H       
  49 H49           -1.1592    -6.8778    10.4302 H       
  50 H50            0.5558    -0.7150     7.9597 H       
  51 H51            2.1435    -1.3303     8.4783 H       
  52 H52            1.9035    -0.7902     6.7993 H       
  53 H53            4.7716     0.1373     2.2206 H       
  54 H54            5.3589     1.8014     1.9887 H       
  55 H55            3.6106     1.4787     2.0757 H       
@<TRIPOS>BOND
   1    1    4 1
   2    2    3 2
   3    2    4 1
   4    3    6 1
   5    4    5 1
   6    4   34 1
   7    5    6 1
   8    5   12 1
   9    6    7 1
  10    6   35 1
  11    7    8 1
  12    8    9 1
  13    8   36 1
  14    8   37 1
  15    9   10 2
  16    9   11 am
  17   11   13 1
  18   11   38 1
  19   12   20 ar
  20   12   21 ar
  21   13   14 ar
  22   13   18 ar
  23   14   15 ar
  24   14   32 1
  25   15   16 ar
  26   15   39 1
  27   16   17 ar
  28   16   19 1
  29   17   18 ar
  30   17   40 1
  31   18   41 1
  32   19   29 2
  33   19   30 2
  34   19   31 am
  35   20   24 ar
  36   20   25 ar
  37   21   22 ar
  38   21   33 1
  39   22   23 ar
  40   22   42 1
  41   23   24 ar
  42   23   43 1
  43   24   26 ar
  44   25   28 ar
  45   25   44 1
  46   26   27 ar
  47   26   45 1
  48   27   28 ar
  49   27   46 1
  50   28   47 1
  51   31   48 1
  52   31   49 1
  53   32   50 1
  54   32   51 1
  55   32   52 1
  56   33   53 1
  57   33   54 1
  58   33   55 1

#	End of record

