#	Name: ASD05430129
#	Creating user name:	WinNT
#	Creation time:	15. 06. 2019 20:59

#	Modifying user name:	WinNT
#	Modification time:	15. 06. 2019 20:59

#	Program:	/corina/corina34_cracker 3.40 0067  02.08.2006

@<TRIPOS>MOLECULE
ASD05430129
  65   70    0    0    0
SMALL
NO_CHARGES


@<TRIPOS>ATOM
   1 C1             0.1594     1.2001    -0.9877 C.ar    
   2 C2             0.0192    -0.0130    -0.3144 C.ar    
   3 C3             1.0657    -0.5114     0.4509 C.ar    
   4 C4             2.2472     0.1907     0.5489 C.ar    
   5 C5             2.3950     1.4081    -0.1237 C.ar    
   6 C6             1.3418     1.9095    -0.8944 C.ar    
   7 C7             4.8868    -0.0016    -0.0939 C.3     
   8 C8             4.8270     1.5012     0.0670 C.2     
   9 C9             3.6566     2.1597    -0.0203 C.2     
  10 C10            6.3057    -0.4167    -0.4933 C.3     
  11 C11            7.1277     0.6384    -1.2426 C.3     
  12 N12            7.2013     1.8459    -0.4196 N.pl3   
  13 C13            6.0851     2.2243     0.3224 C.2     
  14 C14            8.2635     3.8375    -1.3152 C.ar    
  15 C15            9.2853     4.7605    -1.4343 C.ar    
  16 C16            9.1583     5.8258    -2.3098 C.ar    
  17 C17            8.0074     5.9662    -3.0658 C.ar    
  18 C18            6.9846     5.0412    -2.9458 C.ar    
  19 C19            7.1138     3.9767    -2.0696 C.ar    
  20 N20           -1.1807    -0.7309    -0.4097 N.pl3   
  21 C21           -1.3128    -2.0601    -0.7182 C.2     
  22 C22           -2.6309    -2.3354    -0.7006 C.2     
  23 N23           -3.2899    -1.2092    -0.3906 N.2     
  24 C24           -2.4320    -0.2424    -0.2083 C.2     
  25 C25           -3.2572    -3.6770    -0.9816 C.3     
  26 N26            6.1664     3.1627     1.2096 N.2     
  27 C27           -0.6521     2.9304    -2.4025 C.3     
  28 O28           -0.8650     1.6821    -1.7404 O.3     
  29 C29            7.0597    -1.3513     0.4547 C.3     
  30 C30            6.5278    -1.8811    -0.8784 C.3     
  31 F31           10.1571     6.7281    -2.4256 F       
  32 F32            5.8605     5.1772    -3.6827 F       
  33 C33            8.4055     2.6752    -0.3667 C.3     
  34 C34            8.5714     3.1948     1.0654 C.3     
  35 O35            7.3727     3.8317     1.4951 O.3     
  36 C36            9.6255     1.8377    -0.7557 C.3     
  37 O37           10.7987     2.6519    -0.7025 O.3     
  38 H38            0.9530    -1.4513     0.9708 H       
  39 H39            3.0591    -0.1988     1.1452 H       
  40 H40            1.4519     2.8490    -1.4156 H       
  41 H41            4.6207    -0.4788     0.8493 H       
  42 H42            4.1858    -0.3122    -0.8686 H       
  43 H43            3.6429     3.2396    -0.0145 H       
  44 H44            8.1328     0.2578    -1.4243 H       
  45 H45            6.6452     0.8716    -2.1918 H       
  46 H46           10.1831     4.6510    -0.8440 H       
  47 H47            7.9073     6.7969    -3.7486 H       
  48 H48            6.3160     3.2549    -1.9758 H       
  49 H49           -0.5132    -2.7533    -0.9339 H       
  50 H50           -2.6766     0.7769     0.0516 H       
  51 H51           -3.3452    -4.2388    -0.0517 H       
  52 H52           -4.2474    -3.5323    -1.4138 H       
  53 H53           -2.6322    -4.2302    -1.6826 H       
  54 H54           -1.5450     3.1993    -2.9668 H       
  55 H55           -0.4434     3.7032    -1.6626 H       
  56 H56            0.1946     2.8410    -3.0831 H       
  57 H57            8.1369    -1.2123     0.5472 H       
  58 H58            6.5467    -1.6679     1.3628 H       
  59 H59            5.6647    -2.5461    -0.8474 H       
  60 H60            7.2549    -2.0905    -1.6630 H       
  61 H61            8.7955     2.3599     1.7293 H       
  62 H62            9.3928     3.9107     1.0974 H       
  63 H63            9.7301     1.0039    -0.0615 H       
  64 H64            9.4951     1.4540    -1.7675 H       
  65 H65           11.6123     2.1851    -0.9377 H       
@<TRIPOS>BOND
   1    1    2 ar
   2    1    6 ar
   3    1   28 1
   4    2    3 ar
   5    2   20 1
   6    3    4 ar
   7    3   38 1
   8    4    5 ar
   9    4   39 1
  10    5    6 ar
  11    5    9 1
  12    6   40 1
  13    7    8 1
  14    7   10 1
  15    7   41 1
  16    7   42 1
  17    8    9 2
  18    8   13 1
  19    9   43 1
  20   10   11 1
  21   10   29 1
  22   10   30 1
  23   11   12 1
  24   11   44 1
  25   11   45 1
  26   12   13 1
  27   12   33 1
  28   13   26 2
  29   14   15 ar
  30   14   19 ar
  31   14   33 1
  32   15   16 ar
  33   15   46 1
  34   16   17 ar
  35   16   31 1
  36   17   18 ar
  37   17   47 1
  38   18   19 ar
  39   18   32 1
  40   19   48 1
  41   20   21 1
  42   20   24 1
  43   21   22 2
  44   21   49 1
  45   22   23 1
  46   22   25 1
  47   23   24 2
  48   24   50 1
  49   25   51 1
  50   25   52 1
  51   25   53 1
  52   26   35 1
  53   27   28 1
  54   27   54 1
  55   27   55 1
  56   27   56 1
  57   29   30 1
  58   29   57 1
  59   29   58 1
  60   30   59 1
  61   30   60 1
  62   33   34 1
  63   33   36 1
  64   34   35 1
  65   34   61 1
  66   34   62 1
  67   36   37 1
  68   36   63 1
  69   36   64 1
  70   37   65 1

#	End of record

