#	Name: ASD04270007
#	Creating user name:	WinNT
#	Creation time:	15. 06. 2019 20:48

#	Modifying user name:	WinNT
#	Modification time:	15. 06. 2019 20:48

#	Program:	/corina/corina34_cracker 3.40 0067  02.08.2006

@<TRIPOS>MOLECULE
ASD04270007
  56   55    0    0    0
SMALL
NO_CHARGES


@<TRIPOS>ATOM
   1 C1            -0.0187     1.5258     0.0104 C.3     
   2 C2             0.0021    -0.0041     0.0020 C.3     
   3 C3            -1.4333    -0.5336     0.0129 C.3     
   4 C4            -1.4126    -2.0635     0.0045 C.3     
   5 C5            -2.8479    -2.5931     0.0153 C.3     
   6 C6            -2.8272    -4.1229     0.0069 C.3     
   7 C7             1.4167     2.0553    -0.0004 C.3     
   8 C8             1.3963     3.5622     0.0079 C.2     
   9 O9             2.5495     4.2491     0.0005 O.3     
  10 O10            0.3418     4.1520     0.0211 O.2     
  11 C11           -4.2626    -4.6525     0.0178 C.3     
  12 C12           -4.2418    -6.1823     0.0094 C.3     
  13 C13           -5.6772    -6.7119     0.0202 C.3     
  14 C14           -5.6565    -8.2417     0.0118 C.3     
  15 C15           -7.0918    -8.7713     0.0227 C.3     
  16 C16           -7.0711   -10.3012     0.0143 C.3     
  17 C17           -8.5065   -10.8307     0.0251 C.3     
  18 C18           -8.4857   -12.3606     0.0167 C.3     
  19 C19           -9.9211   -12.8902     0.0276 C.3     
  20 C20           -9.9004   -14.4200     0.0191 C.3     
  21 H21           -0.5459     1.8868    -0.8726 H       
  22 H22           -0.5289     1.8773     0.9072 H       
  23 H23            0.5123    -0.3556    -0.8948 H       
  24 H24            0.5293    -0.3651     0.8851 H       
  25 H25           -1.9435    -0.1821     0.9097 H       
  26 H26           -1.9605    -0.1726    -0.8702 H       
  27 H27           -0.9024    -2.4150    -0.8923 H       
  28 H28           -0.8854    -2.4246     0.8875 H       
  29 H29           -3.3581    -2.2415     0.9121 H       
  30 H30           -3.3751    -2.2320    -0.8677 H       
  31 H31           -2.3170    -4.4744    -0.8899 H       
  32 H32           -2.3000    -4.4840     0.8900 H       
  33 H33            1.9439     1.6943     0.8826 H       
  34 H34            1.9269     1.7038    -0.8972 H       
  35 H35            2.4858     5.2140     0.0063 H       
  36 H36           -4.7728    -4.3010     0.9146 H       
  37 H37           -4.7898    -4.2914    -0.8653 H       
  38 H38           -3.7316    -6.5338    -0.8874 H       
  39 H39           -3.7146    -6.5434     0.8924 H       
  40 H40           -6.1874    -6.3604     0.9170 H       
  41 H41           -6.2044    -6.3508    -0.8628 H       
  42 H42           -5.1463    -8.5933    -0.8850 H       
  43 H43           -5.1293    -8.6028     0.8949 H       
  44 H44           -7.6020    -8.4198     0.9195 H       
  45 H45           -7.6190    -8.4102    -0.8604 H       
  46 H46           -6.5609   -10.6527    -0.8825 H       
  47 H47           -6.5439   -10.6622     0.8973 H       
  48 H48           -9.0167   -10.4792     0.9219 H       
  49 H49           -9.0337   -10.4697    -0.8579 H       
  50 H50           -7.9755   -12.7121    -0.8801 H       
  51 H51           -7.9586   -12.7217     0.8998 H       
  52 H52          -10.4313   -12.5386     0.9244 H       
  53 H53          -10.4483   -12.5291    -0.8555 H       
  54 H54          -10.9230   -14.7973     0.0269 H       
  55 H55           -9.3902   -14.7715    -0.8776 H       
  56 H56           -9.3732   -14.7811     0.9022 H       
@<TRIPOS>BOND
   1    1    2 1
   2    1    7 1
   3    1   21 1
   4    1   22 1
   5    2    3 1
   6    2   23 1
   7    2   24 1
   8    3    4 1
   9    3   25 1
  10    3   26 1
  11    4    5 1
  12    4   27 1
  13    4   28 1
  14    5    6 1
  15    5   29 1
  16    5   30 1
  17    6   11 1
  18    6   31 1
  19    6   32 1
  20    7    8 1
  21    7   33 1
  22    7   34 1
  23    8    9 1
  24    8   10 2
  25    9   35 1
  26   11   12 1
  27   11   36 1
  28   11   37 1
  29   12   13 1
  30   12   38 1
  31   12   39 1
  32   13   14 1
  33   13   40 1
  34   13   41 1
  35   14   15 1
  36   14   42 1
  37   14   43 1
  38   15   16 1
  39   15   44 1
  40   15   45 1
  41   16   17 1
  42   16   46 1
  43   16   47 1
  44   17   18 1
  45   17   48 1
  46   17   49 1
  47   18   19 1
  48   18   50 1
  49   18   51 1
  50   19   20 1
  51   19   52 1
  52   19   53 1
  53   20   54 1
  54   20   55 1
  55   20   56 1

#	End of record

