#	Name: ASD04170039
#	Creating user name:	WinNT
#	Creation time:	15. 06. 2019 20:48

#	Modifying user name:	WinNT
#	Modification time:	15. 06. 2019 20:48

#	Program:	/corina/corina34_cracker 3.40 0067  02.08.2006

@<TRIPOS>MOLECULE
ASD04170039
  37   39    0    0    0
SMALL
NO_CHARGES


@<TRIPOS>ATOM
   1 O1             0.0014    -0.0037     0.0052 O.2     
   2 C2            -0.0146     1.2113     0.0142 C.2     
   3 N3             1.1435     1.9006     0.0013 N.am    
   4 C4             2.3638     1.2207     0.0917 C.ar    
   5 C5             3.4755     1.6927    -0.5935 C.ar    
   6 C6             4.6783     1.0202    -0.5022 C.ar    
   7 C7             4.7763    -0.1229     0.2711 C.ar    
   8 C8             3.6701    -0.5957     0.9545 C.ar    
   9 C9             2.4663     0.0762     0.8713 C.ar    
  10 Br10           6.4249    -1.0411     0.3937 Br      
  11 O11           -1.1894     1.8690     0.0312 O.3     
  12 C12           -2.3966     1.0622     0.0381 C.3     
  13 C13           -2.8078     0.7668     1.4822 C.3     
  14 N14           -4.1446     1.3059     1.7433 N.4     
  15 C15           -5.1349     0.6758     0.8670 C.3     
  16 C16           -4.8009     0.9689    -0.5974 C.3     
  17 C17           -3.5316     1.8293    -0.6528 C.3     
  18 C18           -3.7895     3.1224     0.1318 C.3     
  19 C19           -4.1562     2.7607     1.5728 C.3     
  20 H20            1.1314     2.8679    -0.0705 H       
  21 H21            3.3995     2.5847    -1.1976 H       
  22 H22            5.5432     1.3867    -1.0353 H       
  23 H23            3.7492    -1.4884     1.5572 H       
  24 H24            1.6032    -0.2931     1.4053 H       
  25 H25           -2.2128     0.1255    -0.4882 H       
  26 H26           -2.8148    -0.3112     1.6430 H       
  27 H27           -2.0925     1.2278     2.1634 H       
  28 H28           -4.3897     1.1020     2.7006 H       
  29 H29           -5.1289    -0.4019     1.0307 H       
  30 H30           -6.1247     1.0695     1.0980 H       
  31 H31           -4.6306     0.0320    -1.1277 H       
  32 H32           -5.6279     1.5076    -1.0599 H       
  33 H33           -3.2664     2.0449    -1.6878 H       
  34 H34           -2.8899     3.7379     0.1272 H       
  35 H35           -4.6119     3.6707    -0.3278 H       
  36 H36           -5.1511     3.1435     1.7998 H       
  37 H37           -3.4334     3.2104     2.2536 H       
@<TRIPOS>BOND
   1    1    2 2
   2    2    3 am
   3    2   11 1
   4    3    4 1
   5    3   20 1
   6    4    5 ar
   7    4    9 ar
   8    5    6 ar
   9    5   21 1
  10    6    7 ar
  11    6   22 1
  12    7    8 ar
  13    7   10 1
  14    8    9 ar
  15    8   23 1
  16    9   24 1
  17   11   12 1
  18   12   13 1
  19   12   17 1
  20   12   25 1
  21   13   14 1
  22   13   26 1
  23   13   27 1
  24   14   15 1
  25   14   19 1
  26   14   28 1
  27   15   16 1
  28   15   29 1
  29   15   30 1
  30   16   17 1
  31   16   31 1
  32   16   32 1
  33   17   18 1
  34   17   33 1
  35   18   19 1
  36   18   34 1
  37   18   35 1
  38   19   36 1
  39   19   37 1

#	End of record

