#	Name: ASD09116274
#	Creating user name:	WinNT
#	Creation time:	15. 06. 2019 21:21

#	Modifying user name:	WinNT
#	Modification time:	15. 06. 2019 21:21

#	Program:	/corina/corina34_cracker 3.40 0067  02.08.2006

@<TRIPOS>MOLECULE
ASD09116274
  64   69    0    0    0
SMALL
NO_CHARGES


@<TRIPOS>ATOM
   1 N1            -0.0296     1.4193     0.1488 N.pl3   
   2 N2            -0.0209     0.0205     0.2719 N.2     
   3 C3             1.2669     1.8081     0.1161 C.2     
   4 N4             2.0156     0.7299     0.2118 N.2     
   5 C5             1.2358    -0.3531     0.3061 C.2     
   6 N6             1.7236     3.1080     0.0023 N.pl3   
   7 C7             3.0943     3.3795     0.0964 C.ar    
   8 C8             3.6352     4.4645    -0.5808 C.ar    
   9 C9             4.9882     4.7324    -0.4873 C.ar    
  10 C10            5.8063     3.9150     0.2848 C.ar    
  11 C11            5.2640     2.8309     0.9609 C.ar    
  12 C12            3.9113     2.5668     0.8714 C.ar    
  13 C13           -1.1525     2.2448     0.0698 C.ar    
  14 N14           -1.0703     3.5125     0.4451 N.ar    
  15 N15           -2.0763     4.3117     0.4016 N.ar    
  16 C16           -3.2635     3.9101    -0.0233 C.ar    
  17 C17           -3.4395     2.5939    -0.4599 C.ar    
  18 C18           -2.3617     1.7355    -0.4104 C.ar    
  19 C19           -4.4373     4.8137    -0.0234 C.ar    
  20 C20           -5.6325     4.3670     0.5425 C.ar    
  21 C21           -5.6820     3.0077     1.1848 C.3     
  22 C22           -5.7581     1.8997     0.1379 C.3     
  23 C23           -4.7719     2.1597    -0.9976 C.3     
  24 C24           -4.3634     6.0863    -0.5787 C.ar    
  25 C25           -5.4826     6.8962    -0.5836 C.ar    
  26 C26           -6.6709     6.4415    -0.0413 C.ar    
  27 C27           -6.7461     5.1789     0.5208 C.ar    
  28 N28            1.6867    -1.6675     0.4227 N.pl3   
  29 N29            7.1778     4.1854     0.3798 N.3     
  30 F30            5.5154     5.7875    -1.1461 F       
  31 C31            7.5699     4.4358     1.7738 C.3     
  32 C32            9.0840     4.6477     1.8448 C.3     
  33 N33            9.4588     5.7783     0.9841 N.3     
  34 C34            9.0667     5.5278    -0.4099 C.3     
  35 C35            7.5526     5.3160    -0.4810 C.3     
  36 C36           10.8967     6.0618     1.0837 C.3     
  37 H37            1.0946     3.8321    -0.1427 H       
  38 H38            2.9991     5.0987    -1.1805 H       
  39 H39            5.8994     2.1960     1.5606 H       
  40 H40            3.4900     1.7231     1.3978 H       
  41 H41           -2.4510     0.7056    -0.7231 H       
  42 H42           -4.7861     2.8662     1.7893 H       
  43 H43           -6.5588     2.9498     1.8297 H       
  44 H44           -5.5208     0.9452     0.6078 H       
  45 H45           -6.7691     1.8578    -0.2674 H       
  46 H46           -5.1690     2.9413    -1.6453 H       
  47 H47           -4.6438     1.2456    -1.5774 H       
  48 H48           -3.4357     6.4400    -1.0036 H       
  49 H49           -5.4296     7.8861    -1.0120 H       
  50 H50           -7.5451     7.0756    -0.0560 H       
  51 H51           -7.6773     4.8298     0.9421 H       
  52 H52            2.6384    -1.8541     0.4401 H       
  53 H53            1.0486    -2.3953     0.4863 H       
  54 H54            7.0604     5.3270     2.1403 H       
  55 H55            7.2933     3.5795     2.3888 H       
  56 H56            9.3733     4.8623     2.8736 H       
  57 H57            9.5937     3.7465     1.5039 H       
  58 H58            9.3433     6.3841    -1.0250 H       
  59 H59            9.5762     4.6367    -0.7764 H       
  60 H60            7.2633     5.1013    -1.5097 H       
  61 H61            7.0429     6.2171    -0.1400 H       
  62 H62           11.4626     5.1835     0.7730 H       
  63 H63           11.1469     6.9027     0.4368 H       
  64 H64           11.1476     6.3096     2.1151 H       
@<TRIPOS>BOND
   1    1    2 1
   2    1    3 1
   3    1   13 1
   4    2    5 2
   5    3    4 2
   6    3    6 1
   7    4    5 1
   8    5   28 1
   9    6    7 1
  10    6   37 1
  11    7    8 ar
  12    7   12 ar
  13    8    9 ar
  14    8   38 1
  15    9   10 ar
  16    9   30 1
  17   10   11 ar
  18   10   29 1
  19   11   12 ar
  20   11   39 1
  21   12   40 1
  22   13   14 ar
  23   13   18 ar
  24   14   15 ar
  25   15   16 ar
  26   16   17 ar
  27   16   19 1
  28   17   18 ar
  29   17   23 1
  30   18   41 1
  31   19   20 ar
  32   19   24 ar
  33   20   21 1
  34   20   27 ar
  35   21   22 1
  36   21   42 1
  37   21   43 1
  38   22   23 1
  39   22   44 1
  40   22   45 1
  41   23   46 1
  42   23   47 1
  43   24   25 ar
  44   24   48 1
  45   25   26 ar
  46   25   49 1
  47   26   27 ar
  48   26   50 1
  49   27   51 1
  50   28   52 1
  51   28   53 1
  52   29   31 1
  53   29   35 1
  54   31   32 1
  55   31   54 1
  56   31   55 1
  57   32   33 1
  58   32   56 1
  59   32   57 1
  60   33   34 1
  61   33   36 1
  62   34   35 1
  63   34   58 1
  64   34   59 1
  65   35   60 1
  66   35   61 1
  67   36   62 1
  68   36   63 1
  69   36   64 1

#	End of record

