#	Name: ASD05430439
#	Creating user name:	WinNT
#	Creation time:	15. 06. 2019 21:00

#	Modifying user name:	WinNT
#	Modification time:	15. 06. 2019 21:00

#	Program:	/corina/corina34_cracker 3.40 0067  02.08.2006

@<TRIPOS>MOLECULE
ASD05430439
  60   63    0    0    0
SMALL
NO_CHARGES


@<TRIPOS>ATOM
   1 C1            -0.2246     2.3714     0.5134 C.ar    
   2 C2            -0.0366     0.9928     0.4165 C.ar    
   3 C3            -1.1327     0.1424     0.3435 C.ar    
   4 C4            -2.4105     0.6566     0.3669 C.ar    
   5 C5            -2.6068     2.0383     0.4644 C.ar    
   6 C6            -1.5035     2.8940     0.5427 C.ar    
   7 C7            -5.0323     1.7637     0.4178 C.2     
   8 C8            -3.9710     2.5896     0.4891 C.2     
   9 O9             0.8504     3.2007     0.5847 O.3     
  10 C10            1.7390    -0.5577     1.1708 C.2     
  11 N11            1.2606     0.4645     0.3923 N.pl3   
  12 C12            3.0266    -0.7431     0.8229 C.2     
  13 N13            3.3313     0.1386    -0.1408 N.2     
  14 C14            2.2819     0.8676    -0.4075 C.2     
  15 C15            3.9636    -1.7643     1.4148 C.3     
  16 C16           -7.2987     0.1177     0.3485 C.2     
  17 N17           -7.4679     1.4528     0.2758 N.am    
  18 C18           -8.7981     2.0289     0.0239 C.3     
  19 C19           -8.9021     2.4797    -1.4345 C.3     
  20 C20           -8.2962    -0.8049    -0.3033 C.3     
  21 C21           -9.8642     1.0061     0.3211 C.ar    
  22 C22           -9.9601     0.4559     1.5857 C.ar    
  23 C23          -10.7490     0.6229    -0.6696 C.ar    
  24 C24          -11.7276    -0.3143    -0.3980 C.ar    
  25 C25          -11.8214    -0.8700     0.8668 C.ar    
  26 C26          -10.9376    -0.4819     1.8595 C.ar    
  27 F27          -12.7776    -1.7863     1.1334 F       
  28 O28           -6.3438    -0.3412     0.9384 O.2     
  29 C29            0.5840     4.6012     0.6823 C.3     
  30 N30           -6.5513     3.5868     0.6196 N.2     
  31 C31           -6.3925     2.3134     0.4425 C.2     
  32 C32           -8.9580     3.2385     0.9571 C.3     
  33 C33           -7.8499     4.2451     0.6424 C.3     
  34 H34           -0.9826    -0.9244     0.2679 H       
  35 H35           -3.2608    -0.0069     0.3097 H       
  36 H36           -1.6505     3.9613     0.6181 H       
  37 H37           -4.8823     0.6969     0.3426 H       
  38 H38           -4.1210     3.6564     0.5644 H       
  39 H39            1.1898    -1.1058     1.9221 H       
  40 H40            2.2337     1.6584    -1.1414 H       
  41 H41            3.8988    -2.6907     0.8441 H       
  42 H42            4.9848    -1.3851     1.3773 H       
  43 H43            3.6848    -1.9557     2.4510 H       
  44 H44           -8.7510     1.6231    -2.0912 H       
  45 H45           -9.8895     2.9052    -1.6137 H       
  46 H46           -8.1400     3.2321    -1.6374 H       
  47 H47           -9.0078    -0.2184    -0.8845 H       
  48 H48           -7.7733    -1.4984    -0.9620 H       
  49 H49           -8.8289    -1.3652     0.4650 H       
  50 H50           -9.2707     0.7588     2.3599 H       
  51 H51          -10.6757     1.0564    -1.6560 H       
  52 H52          -12.4192    -0.6130    -1.1719 H       
  53 H53          -11.0096    -0.9148     2.8463 H       
  54 H54            1.5258     5.1476     0.7318 H       
  55 H55            0.0211     4.9259    -0.1929 H       
  56 H56            0.0017     4.7985     1.5824 H       
  57 H57           -9.9310     3.7015     0.7929 H       
  58 H58           -8.8740     2.9143     1.9944 H       
  59 H59           -7.8427     5.0220     1.4069 H       
  60 H60           -8.0433     4.7001    -0.3291 H       
@<TRIPOS>BOND
   1    1    2 ar
   2    1    9 1
   3    1    6 ar
   4    2    3 ar
   5    2   11 1
   6    3    4 ar
   7    3   34 1
   8    4    5 ar
   9    4   35 1
  10    5    6 ar
  11    5    8 1
  12    6   36 1
  13    7    8 2
  14    7   31 1
  15    7   37 1
  16    8   38 1
  17    9   29 1
  18   10   11 1
  19   10   12 2
  20   10   39 1
  21   11   14 1
  22   12   13 1
  23   12   15 1
  24   13   14 2
  25   14   40 1
  26   15   41 1
  27   15   42 1
  28   15   43 1
  29   16   17 am
  30   16   20 1
  31   16   28 2
  32   17   18 1
  33   17   31 1
  34   18   19 1
  35   18   21 1
  36   18   32 1
  37   19   44 1
  38   19   45 1
  39   19   46 1
  40   20   47 1
  41   20   48 1
  42   20   49 1
  43   21   22 ar
  44   21   23 ar
  45   22   26 ar
  46   22   50 1
  47   23   24 ar
  48   23   51 1
  49   24   25 ar
  50   24   52 1
  51   25   26 ar
  52   25   27 1
  53   26   53 1
  54   29   54 1
  55   29   55 1
  56   29   56 1
  57   30   31 2
  58   30   33 1
  59   32   33 1
  60   32   57 1
  61   32   58 1
  62   33   59 1
  63   33   60 1

#	End of record

