#	Name: ASD01910496
#	Creating user name:	WinNT
#	Creation time:	15. 06. 2019 19:55

#	Modifying user name:	WinNT
#	Modification time:	15. 06. 2019 19:55

#	Program:	/corina/corina34_cracker 3.40 0067  02.08.2006

@<TRIPOS>MOLECULE
ASD01910496
  43   46    0    0    0
SMALL
NO_CHARGES


@<TRIPOS>ATOM
   1 C1             0.0501     1.4633     0.0546 C.2     
   2 C2             0.0550    -0.0144     0.0358 C.2     
   3 N3            -1.0313    -0.8223     0.0395 N.2     
   4 C4            -0.5609    -2.0440     0.0179 C.2     
   5 O5             0.7727    -1.9537     0.0019 O.3     
   6 N6             1.1112    -0.7890     0.0066 N.2     
   7 C7            -1.3714    -3.3145     0.0126 C.3     
   8 C8            -1.0546    -4.1173    -1.2512 C.3     
   9 C9            -1.9014    -5.3919    -1.2737 C.3     
  10 C10           -1.5543    -6.2523    -0.0547 C.3     
  11 N11           -1.7177    -5.4406     1.1591 N.am    
  12 C12           -1.0184    -4.1514     1.2462 C.3     
  13 C13           -2.4944    -5.8704     2.1732 C.2     
  14 C14           -3.2641    -7.1218     2.0340 C.ar    
  15 O15           -2.5609    -5.2272     3.2028 O.2     
  16 C16           -2.6142    -8.3110     1.6950 C.ar    
  17 C17           -3.3375    -9.4766     1.5668 C.ar    
  18 C18           -4.7092    -9.4727     1.7733 C.ar    
  19 C19           -5.3617    -8.2978     2.1097 C.ar    
  20 C20           -4.6472    -7.1233     2.2466 C.ar    
  21 F21           -5.4119   -10.6194     1.6453 F       
  22 C22            1.1389     2.2631     0.0508 C.2     
  23 N23            0.8647     3.5474     0.0706 N.2     
  24 C24           -0.3817     3.8868     0.0910 C.2     
  25 S25           -1.3768     2.4968     0.0784 S.3     
  26 C26           -0.8866     5.3064     0.1155 C.3     
  27 F27           -5.2834    -5.9777     2.5751 F       
  28 H28           -2.4332    -3.0688     0.0309 H       
  29 H29           -1.2819    -3.5148    -2.1306 H       
  30 H30            0.0024    -4.3834    -1.2569 H       
  31 H31           -2.9583    -5.1271    -1.2430 H       
  32 H32           -1.6924    -5.9515    -2.1854 H       
  33 H33           -2.2229    -7.1121    -0.0120 H       
  34 H34           -0.5217    -6.5931    -0.1300 H       
  35 H35            0.0579    -4.3209     1.2769 H       
  36 H36           -1.3333    -3.6250     2.1472 H       
  37 H37           -1.5464    -8.3166     1.5334 H       
  38 H38           -2.8352   -10.3959     1.3044 H       
  39 H39           -6.4299    -8.3008     2.2689 H       
  40 H40            2.1483     1.8793     0.0335 H       
  41 H41           -1.0220     5.6616    -0.9061 H       
  42 H42           -1.8400     5.3439     0.6425 H       
  43 H43           -0.1631     5.9406     0.6277 H       
@<TRIPOS>BOND
   1    1    2 1
   2    1   22 2
   3    1   25 1
   4    2    3 1
   5    2    6 2
   6    3    4 2
   7    4    5 1
   8    4    7 1
   9    5    6 1
  10    7    8 1
  11    7   12 1
  12    7   28 1
  13    8    9 1
  14    8   29 1
  15    8   30 1
  16    9   10 1
  17    9   31 1
  18    9   32 1
  19   10   11 1
  20   10   33 1
  21   10   34 1
  22   11   12 1
  23   11   13 am
  24   12   35 1
  25   12   36 1
  26   13   14 1
  27   13   15 2
  28   14   16 ar
  29   14   20 ar
  30   16   17 ar
  31   16   37 1
  32   17   18 ar
  33   17   38 1
  34   18   19 ar
  35   18   21 1
  36   19   20 ar
  37   19   39 1
  38   20   27 1
  39   22   23 1
  40   22   40 1
  41   23   24 2
  42   24   25 1
  43   24   26 1
  44   26   41 1
  45   26   42 1
  46   26   43 1

#	End of record

