#	Name: ASD01841065
#	Creating user name:	WinNT
#	Creation time:	15. 06. 2019 19:38

#	Modifying user name:	WinNT
#	Modification time:	15. 06. 2019 19:38

#	Program:	/corina/corina34_cracker 3.40 0067  02.08.2006

@<TRIPOS>MOLECULE
ASD01841065
  38   40    0    0    0
SMALL
NO_CHARGES


@<TRIPOS>ATOM
   1 S1            -0.0218     1.7544     0.0117 S.3     
   2 C2             0.0021    -0.0041     0.0020 C.2     
   3 N3             1.2179    -0.4337    -0.0119 N.2     
   4 C4             2.2035     0.4630    -0.0165 C.ar    
   5 C5             1.7400     1.7866    -0.0050 C.ar    
   6 C6             2.6421     2.8507    -0.0079 C.ar    
   7 C7             3.9968     2.6120    -0.0225 C.ar    
   8 C8             4.4750     1.3089    -0.0341 C.ar    
   9 C9             3.6063     0.2431    -0.0315 C.ar    
  10 C10            2.1303     4.2680     0.0046 C.3     
  11 O11            4.0918    -1.0252    -0.0425 O.3     
  12 C12            5.5128    -1.1758    -0.0574 C.3     
  13 C13           -1.1981    -0.8652     0.0096 C.2     
  14 O14           -2.3056    -0.3642     0.0236 O.2     
  15 N15           -1.0653    -2.2064     0.0011 N.am    
  16 C16           -2.2556    -3.0604     0.0086 C.3     
  17 C17           -1.9264    -4.4289    -0.6131 C.3     
  18 C18           -2.1844    -5.4841     0.4823 C.3     
  19 C19           -3.1934    -4.8005     1.4381 C.3     
  20 C20           -2.7022    -3.3317     1.4601 C.3     
  21 H21            4.6898     3.4403    -0.0254 H       
  22 H22            5.5401     1.1304    -0.0456 H       
  23 H23            2.0167     4.6042     1.0352 H       
  24 H24            2.8390     4.9148    -0.5125 H       
  25 H25            1.1649     4.3102    -0.4998 H       
  26 H26            5.7658    -2.2360    -0.0650 H       
  27 H27            5.9194    -0.6988    -0.9491 H       
  28 H28            5.9371    -0.7074     0.8307 H       
  29 H29           -0.1816    -2.6062    -0.0101 H       
  30 H30           -3.0617    -2.5819    -0.5476 H       
  31 H31           -2.5733    -4.6149    -1.4704 H       
  32 H32           -0.8810    -4.4577    -0.9204 H       
  33 H33           -2.6192    -6.3850     0.0493 H       
  34 H34           -1.2600    -5.7208     1.0092 H       
  35 H35           -4.2061    -4.8632     1.0399 H       
  36 H36           -3.1409    -5.2403     2.4341 H       
  37 H37           -1.8614    -3.2208     2.1449 H       
  38 H38           -3.5149    -2.6618     1.7407 H       
@<TRIPOS>BOND
   1    1    2 1
   2    1    5 1
   3    2    3 2
   4    2   13 1
   5    3    4 1
   6    4    5 ar
   7    4    9 ar
   8    5    6 ar
   9    6    7 ar
  10    6   10 1
  11    7    8 ar
  12    7   21 1
  13    8    9 ar
  14    8   22 1
  15    9   11 1
  16   10   23 1
  17   10   24 1
  18   10   25 1
  19   11   12 1
  20   12   26 1
  21   12   27 1
  22   12   28 1
  23   13   14 2
  24   13   15 am
  25   15   16 1
  26   15   29 1
  27   16   17 1
  28   16   20 1
  29   16   30 1
  30   17   18 1
  31   17   31 1
  32   17   32 1
  33   18   19 1
  34   18   33 1
  35   18   34 1
  36   19   20 1
  37   19   35 1
  38   19   36 1
  39   20   37 1
  40   20   38 1

#	End of record

