#	Name: ASD01230318
#	Creating user name:	WinNT
#	Creation time:	15. 06. 2019 19:14

#	Modifying user name:	WinNT
#	Modification time:	15. 06. 2019 19:14

#	Program:	/corina/corina34_cracker 3.40 0067  02.08.2006

@<TRIPOS>MOLECULE
ASD01230318
  46   47    0    0    0
SMALL
NO_CHARGES


@<TRIPOS>ATOM
   1 C1             0.4155    -0.3413    -1.3465 C.3     
   2 C2            -0.2898     1.6345     0.0104 C.3     
   3 C3            -2.3440    -4.7691     1.4708 C.3     
   4 C4             5.3931    -8.9409     7.3449 C.1     
   5 C5             3.5532    -7.3755     6.9313 C.ar    
   6 C6             4.5381    -8.5784     5.0768 C.ar    
   7 C7             2.6838    -6.7534     6.0641 C.ar    
   8 C8             3.6675    -7.9548     4.2119 C.ar    
   9 C9             1.8469    -6.6501     2.4024 C.ar    
  10 C10            0.8649    -5.4522     4.2506 C.ar    
  11 C11            0.9720    -6.0230     1.5390 C.ar    
  12 C12           -0.0045    -4.8305     3.3776 C.ar    
  13 C13           -0.6965    -2.9190     1.1464 C.3     
  14 C14            4.4878    -8.2933     6.4441 C.ar    
  15 C15            2.7353    -7.0386     4.6995 C.ar    
  16 C16            1.7982    -6.3676     3.7667 C.ar    
  17 C17            0.0482    -5.1151     2.0248 C.ar    
  18 C18           -0.1664     0.1096    -0.0052 C.3     
  19 C19           -0.9043    -4.4332     1.0767 C.3     
  20 N20            6.1113    -9.4547     8.0596 N.1     
  21 N21           -1.5364    -2.2640     0.1406 N.am    
  22 O22           -2.2697    -0.4197     1.5488 O.2     
  23 O23           -2.6373    -0.3577    -0.8969 O.2     
  24 S24           -1.8061    -0.6321     0.2225 S.o2    
  25 H25            1.4008     0.1044    -1.4833 H       
  26 H26            0.5034    -1.4277    -1.3576 H       
  27 H27           -0.2431    -0.0218    -2.1541 H       
  28 H28            0.7033     2.0800    -0.0473 H       
  29 H29           -0.8841     1.9597    -0.8435 H       
  30 H30           -0.7766     1.9502     0.9331 H       
  31 H31           -2.5327    -4.4228     2.4870 H       
  32 H32           -3.0329    -4.2758     0.7850 H       
  33 H33           -2.4920    -5.8478     1.4212 H       
  34 H34            3.5160    -7.1512     7.9871 H       
  35 H35            5.2598    -9.2874     4.6989 H       
  36 H36            1.9612    -6.0444     6.4405 H       
  37 H37            3.7063    -8.1746     3.1552 H       
  38 H38            2.5650    -7.3618     2.0226 H       
  39 H39            0.8229    -5.2292     5.3064 H       
  40 H40            1.0087    -6.2411     0.4819 H       
  41 H41           -0.7275    -4.1206     3.7512 H       
  42 H42           -0.9706    -2.5599     2.1384 H       
  43 H43            0.3507    -2.6866     0.9525 H       
  44 H44            0.4922    -0.2099     0.8024 H       
  45 H45           -0.7155    -4.7795     0.0606 H       
  46 H46           -1.9346    -2.7862    -0.5733 H       
@<TRIPOS>BOND
   1    1   18 1
   2    1   25 1
   3    1   26 1
   4    1   27 1
   5    2   18 1
   6    2   28 1
   7    2   29 1
   8    2   30 1
   9    3   19 1
  10    3   31 1
  11    3   32 1
  12    3   33 1
  13    4   14 1
  14    4   20 3
  15    5    7 ar
  16    5   14 ar
  17    5   34 1
  18    6    8 ar
  19    6   14 ar
  20    6   35 1
  21    7   15 ar
  22    7   36 1
  23    8   15 ar
  24    8   37 1
  25    9   11 ar
  26    9   16 ar
  27    9   38 1
  28   10   12 ar
  29   10   16 ar
  30   10   39 1
  31   11   17 ar
  32   11   40 1
  33   12   17 ar
  34   12   41 1
  35   13   19 1
  36   13   21 1
  37   13   42 1
  38   13   43 1
  39   15   16 1
  40   17   19 1
  41   18   24 1
  42   18   44 1
  43   19   45 1
  44   21   24 am
  45   21   46 1
  46   22   24 2
  47   23   24 2

#	End of record

