#	Name: ASD08170427
#	Creating user name:	WinNT
#	Creation time:	15. 06. 2019 21:17

#	Modifying user name:	WinNT
#	Modification time:	15. 06. 2019 21:17

#	Program:	/corina/corina34_cracker 3.40 0067  02.08.2006

@<TRIPOS>MOLECULE
ASD08170427
  52   55    0    0    0
SMALL
NO_CHARGES


@<TRIPOS>ATOM
   1 N1            -0.0156     1.2977     0.0092 N.2     
   2 C2             0.0021    -0.0041     0.0020 C.2     
   3 S3             1.6908    -0.5171    -0.0169 S.3     
   4 C4             2.1707     1.1812    -0.0123 C.2     
   5 N5             1.0934     1.8979     0.0018 N.2     
   6 C6             7.4166     3.0956     2.8330 C.2     
   7 S7             8.8859     2.1181     2.8138 S.3     
   8 C8             9.8346     3.6065     2.8120 C.2     
   9 N9             9.0011     4.6066     2.8252 N.2     
  10 N10            7.7685     4.3408     2.8307 N.2     
  11 C11            3.5841     1.7039    -0.0230 C.3     
  12 C12            4.0762     1.8731     1.4158 C.3     
  13 C13            5.5111     2.4038     1.4049 C.3     
  14 C14            6.0032     2.5729     2.8437 C.3     
  15 N15           -1.1087    -0.8393     0.0085 N.am    
  16 C16           -2.3487    -0.3114     0.0232 C.2     
  17 O17           -2.4955     0.8953     0.0306 O.2     
  18 C18           -3.5299    -1.1996     0.0301 C.ar    
  19 C19           -4.8157    -0.6562     0.0453 C.ar    
  20 C20           -5.9140    -1.4909     0.0512 C.ar    
  21 C21           -5.7433    -2.8639     0.0422 C.ar    
  22 C22           -4.4717    -3.4092     0.0271 C.ar    
  23 C23           -3.3649    -2.5858     0.0157 C.ar    
  24 N24           11.2215     3.6949     2.7993 N.am    
  25 C25           11.8197     4.9026     2.7995 C.2     
  26 O26           11.1462     5.9145     2.8108 O.2     
  27 C27           13.2947     4.9967     2.7861 C.ar    
  28 C28           13.9175     6.2460     2.7862 C.ar    
  29 C29           15.2946     6.3267     2.7741 C.ar    
  30 C30           16.0582     5.1729     2.7618 C.ar    
  31 C31           15.4472     3.9315     2.7615 C.ar    
  32 C32           14.0711     3.8366     2.7789 C.ar    
  33 H33            4.2286     0.9980    -0.5468 H       
  34 H34            3.6113     2.6674    -0.5320 H       
  35 H35            3.4317     2.5790     1.9396 H       
  36 H36            4.0489     0.9096     1.9247 H       
  37 H37            6.1556     1.6978     0.8811 H       
  38 H38            5.5384     3.3673     0.8960 H       
  39 H39            5.9760     1.6094     3.3527 H       
  40 H40            5.3587     3.2789     3.3675 H       
  41 H41           -0.9915    -1.8022     0.0026 H       
  42 H42           -4.9503     0.4154     0.0527 H       
  43 H43           -6.9092    -1.0718     0.0633 H       
  44 H44           -6.6065    -3.5130     0.0472 H       
  45 H45           -4.3454    -4.4817     0.0205 H       
  46 H46           -2.3729    -3.0126    -0.0005 H       
  47 H47           11.7589     2.8874     2.7903 H       
  48 H48           13.3226     7.1473     2.7955 H       
  49 H49           15.7778     7.2926     2.7739 H       
  50 H50           17.1360     5.2416     2.7519 H       
  51 H51           16.0491     3.0348     2.7515 H       
  52 H52           13.5954     2.8669     2.7832 H       
@<TRIPOS>BOND
   1    1    2 2
   2    1    5 1
   3    2    3 1
   4    2   15 1
   5    3    4 1
   6    4    5 2
   7    4   11 1
   8    6    7 1
   9    6   14 1
  10    6   10 2
  11    7    8 1
  12    8    9 2
  13    8   24 1
  14    9   10 1
  15   11   12 1
  16   11   33 1
  17   11   34 1
  18   12   13 1
  19   12   35 1
  20   12   36 1
  21   13   14 1
  22   13   37 1
  23   13   38 1
  24   14   39 1
  25   14   40 1
  26   15   16 am
  27   15   41 1
  28   16   17 2
  29   16   18 1
  30   18   19 ar
  31   18   23 ar
  32   19   20 ar
  33   19   42 1
  34   20   21 ar
  35   20   43 1
  36   21   22 ar
  37   21   44 1
  38   22   23 ar
  39   22   45 1
  40   23   46 1
  41   24   25 am
  42   24   47 1
  43   25   26 2
  44   25   27 1
  45   27   28 ar
  46   27   32 ar
  47   28   29 ar
  48   28   48 1
  49   29   30 ar
  50   29   49 1
  51   30   31 ar
  52   30   50 1
  53   31   32 ar
  54   31   51 1
  55   32   52 1

#	End of record

