#	Name: ASD09116411
#	Creating user name:	WinNT
#	Creation time:	15. 06. 2019 21:21

#	Modifying user name:	WinNT
#	Modification time:	15. 06. 2019 21:21

#	Program:	/corina/corina34_cracker 3.40 0067  02.08.2006

@<TRIPOS>MOLECULE
ASD09116411
  65   71    0    0    0
SMALL
NO_CHARGES


@<TRIPOS>ATOM
   1 N1            -0.0590     1.4809     0.3628 N.2     
   2 N2            -0.0755     0.1227     0.7189 N.pl3   
   3 C3             1.1989     1.8500     0.3194 C.2     
   4 N4             1.9718     0.8019     0.6277 N.2     
   5 C5             1.2175    -0.2483     0.8714 C.2     
   6 N6             1.6659    -1.5075     1.2220 N.pl3   
   7 C7            -1.2022    -0.6850     0.8831 C.ar    
   8 N8             1.6571     3.1287     0.0026 N.pl3   
   9 C9             3.0221     3.4266     0.0968 C.ar    
  10 C10            3.5833     4.3837    -0.7391 C.ar    
  11 C11            3.8131     2.7695     1.0295 C.ar    
  12 C12            5.1599     3.0631     1.1235 C.ar    
  13 C13            5.7232     4.0147     0.2855 C.ar    
  14 C14            4.9305     4.6774    -0.6458 C.ar    
  15 N15           -1.1043    -1.9973     0.7307 N.ar    
  16 N16           -2.1123    -2.7843     0.8614 N.ar    
  17 C17           -3.3175    -2.3247     1.1572 C.ar    
  18 C18           -3.5120    -0.9550     1.3574 C.ar    
  19 C19           -2.4319    -0.1100     1.2138 C.ar    
  20 C20           -4.4914    -3.2229     1.2550 C.ar    
  21 C21           -5.6581    -2.8855     0.5672 C.ar    
  22 C22           -5.6756    -1.6540    -0.2962 C.3     
  23 C23           -5.7991    -0.3862     0.5446 C.3     
  24 C24           -4.8675    -0.4452     1.7521 C.3     
  25 C25           -4.4453    -4.3835     2.0194 C.ar    
  26 C26           -5.5647    -5.1882     2.1088 C.ar    
  27 C27           -6.7256    -4.8392     1.4429 C.ar    
  28 C28           -6.7727    -3.6894     0.6736 C.ar    
  29 N29            7.0892     4.3125     0.3814 N.3     
  30 F30            5.4784     5.6041    -1.4621 F       
  31 C31            7.7620     4.1545    -0.9331 C.3     
  32 C32            9.2564     3.9819    -0.5902 C.3     
  33 C33            9.2713     3.4443     0.8661 C.3     
  34 C34            7.7845     3.3427     1.2657 C.3     
  35 C35            9.8330     2.8323    -1.4424 C.3     
  36 N36           10.6546     2.0361    -0.4954 N.3     
  37 C37            9.8555     2.0205     0.7563 C.3     
  38 H38            2.6171    -1.6773     1.3073 H       
  39 H39            1.0295    -2.2217     1.3828 H       
  40 H40            1.0303     3.8116    -0.2830 H       
  41 H41            2.9672     4.8978    -1.4619 H       
  42 H42            3.3753     2.0286     1.6821 H       
  43 H43            5.7744     2.5519     1.8498 H       
  44 H44           -2.5343     0.9572     1.3441 H       
  45 H45           -4.7523    -1.6103    -0.8738 H       
  46 H46           -6.5213    -1.7111    -0.9816 H       
  47 H47           -5.5388     0.4772    -0.0677 H       
  48 H48           -6.8279    -0.2833     0.8897 H       
  49 H49           -5.2955    -1.1093     2.5030 H       
  50 H50           -4.7653     0.5542     2.1751 H       
  51 H51           -3.5389    -4.6547     2.5403 H       
  52 H52           -5.5330    -6.0918     2.6995 H       
  53 H53           -7.6003    -5.4674     1.5236 H       
  54 H54           -7.6826    -3.4223     0.1568 H       
  55 H55            7.3861     3.2705    -1.4483 H       
  56 H56            7.6131     5.0439    -1.5453 H       
  57 H57            9.8168     4.9106    -0.6980 H       
  58 H58            9.8397     4.0839     1.5413 H       
  59 H59            7.6525     3.6201     2.3115 H       
  60 H60            7.4120     2.3336     1.0896 H       
  61 H61            9.0278     2.2224    -1.8521 H       
  62 H62           10.4555     3.2292    -2.2443 H       
  63 H63           10.8013     1.1001    -0.8425 H       
  64 H64           10.4949     1.8053     1.6124 H       
  65 H65            9.0537     1.2855     0.6858 H       
@<TRIPOS>BOND
   1    1    2 1
   2    1    3 2
   3    2    7 1
   4    2    5 1
   5    3    4 1
   6    3    8 1
   7    4    5 2
   8    5    6 1
   9    6   38 1
  10    6   39 1
  11    7   15 ar
  12    7   19 ar
  13    8    9 1
  14    8   40 1
  15    9   10 ar
  16    9   11 ar
  17   10   14 ar
  18   10   41 1
  19   11   12 ar
  20   11   42 1
  21   12   13 ar
  22   12   43 1
  23   13   14 ar
  24   13   29 1
  25   14   30 1
  26   15   16 ar
  27   16   17 ar
  28   17   18 ar
  29   17   20 1
  30   18   19 ar
  31   18   24 1
  32   19   44 1
  33   20   21 ar
  34   20   25 ar
  35   21   22 1
  36   21   28 ar
  37   22   23 1
  38   22   45 1
  39   22   46 1
  40   23   24 1
  41   23   47 1
  42   23   48 1
  43   24   49 1
  44   24   50 1
  45   25   26 ar
  46   25   51 1
  47   26   27 ar
  48   26   52 1
  49   27   28 ar
  50   27   53 1
  51   28   54 1
  52   29   31 1
  53   29   34 1
  54   31   32 1
  55   31   55 1
  56   31   56 1
  57   32   33 1
  58   32   35 1
  59   32   57 1
  60   33   34 1
  61   33   37 1
  62   33   58 1
  63   34   59 1
  64   34   60 1
  65   35   36 1
  66   35   61 1
  67   35   62 1
  68   36   37 1
  69   36   63 1
  70   37   64 1
  71   37   65 1

#	End of record

