#	Name: ASD01916237
#	Creating user name:	WinNT
#	Creation time:	15. 06. 2019 20:07

#	Modifying user name:	WinNT
#	Modification time:	15. 06. 2019 20:07

#	Program:	/corina/corina34_cracker 3.40 0067  02.08.2006

@<TRIPOS>MOLECULE
ASD01916237
  34   36    0    0    0
SMALL
NO_CHARGES


@<TRIPOS>ATOM
   1 C1             0.4261     1.2275    -0.4143 C.ar    
   2 C2             0.6388    -0.1378    -0.3267 C.ar    
   3 C3             1.7855    -0.6250     0.2723 C.ar    
   4 C4             2.7315     0.2611     0.7897 C.ar    
   5 C5             2.5149     1.6367     0.6997 C.ar    
   6 C6             1.3628     2.1149     0.0982 C.ar    
   7 O7             1.1491     3.4540     0.0092 O.3     
   8 C8             1.6342     4.1065    -1.0798 C.ar    
   9 C9             1.5443     5.4911    -1.1808 C.ar    
  10 N10            2.0288     6.0891    -2.2567 N.ar    
  11 C11            2.5900     5.3912    -3.2235 C.ar    
  12 N12            2.6937     4.0786    -3.1651 N.ar    
  13 C13            2.2387     3.4076    -2.1198 C.ar    
  14 C14            3.9587    -0.2558     1.4314 C.2     
  15 N15            4.1655    -1.5849     1.5175 N.am    
  16 O16            4.7814     0.5178     1.8814 O.2     
  17 C17            5.3195    -2.0710     2.1208 C.2     
  18 S18            6.6007    -1.0837     2.8186 S.3     
  19 C19            7.4818    -2.5450     3.2594 C.2     
  20 C20            6.7674    -3.5999     2.8612 C.2     
  21 N21            5.6223    -3.3248     2.2650 N.2     
  22 F22           -0.2766    -0.9959    -0.8275 F       
  23 F23            8.6749    -2.5898     3.8916 F       
  24 C24            7.2356    -5.0150     3.0832 C.3     
  25 H25           -0.4693     1.6035    -0.8868 H       
  26 H26            1.9490    -1.6904     0.3401 H       
  27 H27            3.2436     2.3266     1.0989 H       
  28 H28            1.0853     6.0692    -0.3925 H       
  29 H29            2.9759     5.9097    -4.0888 H       
  30 H30            2.3272     2.3320    -2.0784 H       
  31 H31            3.5091    -2.2021     1.1584 H       
  32 H32            6.8672    -5.3730     4.0446 H       
  33 H33            6.8530    -5.6535     2.2869 H       
  34 H34            8.3253    -5.0421     3.0787 H       
@<TRIPOS>BOND
   1    1    2 ar
   2    1    6 ar
   3    1   25 1
   4    2    3 ar
   5    2   22 1
   6    3    4 ar
   7    3   26 1
   8    4    5 ar
   9    4   14 1
  10    5    6 ar
  11    5   27 1
  12    6    7 1
  13    7    8 1
  14    8    9 ar
  15    8   13 ar
  16    9   10 ar
  17    9   28 1
  18   10   11 ar
  19   11   12 ar
  20   11   29 1
  21   12   13 ar
  22   13   30 1
  23   14   15 am
  24   14   16 2
  25   15   17 1
  26   15   31 1
  27   17   18 1
  28   17   21 2
  29   18   19 1
  30   19   20 2
  31   19   23 1
  32   20   21 1
  33   20   24 1
  34   24   32 1
  35   24   33 1
  36   24   34 1

#	End of record

