#	Name: ASD03090216
#	Creating user name:	WinNT
#	Creation time:	15. 06. 2019 20:28

#	Modifying user name:	WinNT
#	Modification time:	15. 06. 2019 20:28

#	Program:	/corina/corina34_cracker 3.40 0067  02.08.2006

@<TRIPOS>MOLECULE
ASD03090216
  55   59    0    0    0
SMALL
NO_CHARGES


@<TRIPOS>ATOM
   1 N1             0.4441     1.5091     1.4733 N.ar    
   2 C2             0.4074     0.1908     1.4396 C.ar    
   3 C3             1.5343    -0.5416     1.1280 C.ar    
   4 C4             2.7263     0.1346     0.8458 C.ar    
   5 C5             2.7193     1.5326     0.8933 C.ar    
   6 C6             1.5465     2.1854     1.2141 C.ar    
   7 C7             3.9605    -0.6087     0.5069 C.2     
   8 N8             5.7408    -3.4558    -0.5312 N.pl3   
   9 C9             4.8140    -4.4461    -0.8767 C.ar    
  10 C10            3.5984    -4.0912    -1.4457 C.ar    
  11 C11            2.6824    -5.0682    -1.7879 C.ar    
  12 C12            2.9741    -6.4035    -1.5638 C.ar    
  13 C13            4.1930    -6.7630    -0.9929 C.ar    
  14 C14            5.1125    -5.7843    -0.6557 C.ar    
  15 N15            4.0255    -1.8645     0.1126 N.2     
  16 C16            5.2971    -2.2028    -0.1043 C.2     
  17 N17            6.0649    -1.1674     0.1485 N.2     
  18 N18            5.2193    -0.1175     0.5418 N.pl3   
  19 C19            5.6223     1.2382     0.9236 C.3     
  20 C20            5.7268     2.1109    -0.3288 C.3     
  21 C21           -0.8829    -0.5249     1.7460 C.3     
  22 C22            6.1414     3.5055     0.0639 C.2     
  23 N23            6.2978     4.4534    -0.8814 N.am    
  24 O24            6.3343     3.7749     1.2306 O.2     
  25 C25            6.7008     5.8092    -0.4996 C.3     
  26 C26            6.8053     6.6818    -1.7519 C.3     
  27 O27            2.2547    -7.5394    -1.8063 O.3     
  28 C28            3.2089    -8.6164    -1.7566 C.3     
  29 O29            4.2369    -8.1225    -0.8779 O.3     
  30 F30            2.6211    -9.7698    -1.2260 F       
  31 F31            3.7305    -8.8702    -3.0297 F       
  32 C32            7.1017     8.1697    -1.5535 C.3     
  33 C33            8.1835     7.2417    -2.1099 C.3     
  34 H34            1.4970    -1.6206     1.1025 H       
  35 H35            3.6184     2.0927     0.6825 H       
  36 H36            1.5310     3.2645     1.2533 H       
  37 H37            6.6915    -3.6401    -0.5883 H       
  38 H38            3.3680    -3.0507    -1.6209 H       
  39 H39            1.7374    -4.7898    -2.2304 H       
  40 H40            6.0582    -6.0609    -0.2134 H       
  41 H41            4.8796     1.6611     1.6001 H       
  42 H42            6.5904     1.2024     1.4232 H       
  43 H43            6.4694     1.6881    -1.0054 H       
  44 H44            4.7587     2.1468    -0.8285 H       
  45 H45           -1.4484    -0.6649     0.8248 H       
  46 H46           -0.6633    -1.4965     2.1887 H       
  47 H47           -1.4704     0.0689     2.4463 H       
  48 H48            6.1435     4.2379    -1.8145 H       
  49 H49            5.9581     6.2320     0.1770 H       
  50 H50            7.6689     5.7733     0.0001 H       
  51 H51            6.1450     6.4055    -2.5740 H       
  52 H52            6.6367     8.8721    -2.2452 H       
  53 H53            7.2223     8.5268    -0.5307 H       
  54 H54            9.0157     6.9883    -1.4532 H       
  55 H55            8.4301     7.3336    -3.1676 H       
@<TRIPOS>BOND
   1    1    2 ar
   2    1    6 ar
   3    2    3 ar
   4    2   21 1
   5    3    4 ar
   6    3   34 1
   7    4    5 ar
   8    4    7 1
   9    5    6 ar
  10    5   35 1
  11    6   36 1
  12    7   15 2
  13    7   18 1
  14    8    9 1
  15    8   16 1
  16    8   37 1
  17    9   10 ar
  18    9   14 ar
  19   10   11 ar
  20   10   38 1
  21   11   12 ar
  22   11   39 1
  23   12   13 ar
  24   12   27 1
  25   13   14 ar
  26   13   29 1
  27   14   40 1
  28   15   16 1
  29   16   17 2
  30   17   18 1
  31   18   19 1
  32   19   20 1
  33   19   41 1
  34   19   42 1
  35   20   22 1
  36   20   43 1
  37   20   44 1
  38   21   45 1
  39   21   46 1
  40   21   47 1
  41   22   23 am
  42   22   24 2
  43   23   25 1
  44   23   48 1
  45   25   26 1
  46   25   49 1
  47   25   50 1
  48   26   32 1
  49   26   33 1
  50   26   51 1
  51   27   28 1
  52   28   29 1
  53   28   30 1
  54   28   31 1
  55   32   33 1
  56   32   52 1
  57   32   53 1
  58   33   54 1
  59   33   55 1

#	End of record

