#	Name: ASD01231332
#	Creating user name:	WinNT
#	Creation time:	15. 06. 2019 19:15

#	Modifying user name:	WinNT
#	Modification time:	15. 06. 2019 19:15

#	Program:	/corina/corina34_cracker 3.40 0067  02.08.2006

@<TRIPOS>MOLECULE
ASD01231332
  54   56    0    0    0
SMALL
NO_CHARGES


@<TRIPOS>ATOM
   1 C1             0.5563    -0.5777     1.0774 C.3     
   2 C2            -0.0729    -1.8485     0.5030 C.3     
   3 C3            -0.1005    -2.9354     1.5795 C.3     
   4 S4            -1.7666    -1.4923    -0.0402 S.o2    
   5 O5            -2.2890    -2.5804    -0.7902 O.2     
   6 O6            -2.5150    -0.9031     1.0143 O.2     
   7 N7            -1.5972    -0.2752    -1.1503 N.am    
   8 C8            -0.9031    -0.5289    -2.4152 C.3     
   9 C9            -1.9200    -0.8686    -3.5254 C.3     
  10 C10           -2.1927     0.5123    -4.1587 C.3     
  11 C11           -0.9432     1.3240    -3.8923 C.ar    
  12 C12           -0.4904     2.4935    -4.4799 C.ar    
  13 C13            0.6984     3.0632    -4.0681 C.ar    
  14 C14            1.4396     2.4648    -3.0661 C.ar    
  15 C15            0.9897     1.2986    -2.4789 C.ar    
  16 C16           -0.2022     0.7258    -2.8905 C.ar    
  17 C17            1.1874     4.3356    -4.7107 C.3     
  18 C18            0.6486     5.5209    -3.9519 C.ar    
  19 C19            1.3672     6.0496    -2.8974 C.ar    
  20 C20            0.8699     7.1420    -2.1986 C.ar    
  21 C21           -0.3494     7.6993    -2.5631 C.ar    
  22 C22           -1.0627     7.1658    -3.6183 C.ar    
  23 C23           -0.5618     6.0814    -4.3156 C.ar    
  24 S24            2.9563     8.5740    -1.4224 S.o2    
  25 O25            3.4090     8.9531    -0.1299 O.2     
  26 O26            3.7479     7.7446    -2.2618 O.2     
  27 N27            1.5938     7.6788    -1.1315 N.am    
  28 C28            2.3598    10.0219    -2.3380 C.3     
  29 H29            1.5741    -0.7917     1.4038 H       
  30 H30            0.5760     0.1967     0.3105 H       
  31 H31           -0.0328    -0.2326     1.9271 H       
  32 H32            0.5162    -2.1936    -0.3467 H       
  33 H33           -0.6896    -2.5903     2.4292 H       
  34 H34           -0.5488    -3.8408     1.1702 H       
  35 H35            0.9172    -3.1494     1.9059 H       
  36 H36           -1.9576     0.6057    -0.9630 H       
  37 H37           -0.1870    -1.3420    -2.2965 H       
  38 H38           -1.4835    -1.5503    -4.2554 H       
  39 H39           -2.8324    -1.2869    -3.1003 H       
  40 H40           -2.3562     0.4107    -5.2316 H       
  41 H41           -3.0561     0.9811    -3.6865 H       
  42 H42           -1.0686     2.9613    -5.2629 H       
  43 H43            2.3696     2.9088    -2.7431 H       
  44 H44            1.5692     0.8318    -1.6962 H       
  45 H45            2.2770     4.3567    -4.6916 H       
  46 H46            0.8412     4.3774    -5.7434 H       
  47 H47            2.3146     5.6138    -2.6164 H       
  48 H48           -0.7392     8.5485    -2.0216 H       
  49 H49           -2.0106     7.5985    -3.9022 H       
  50 H50           -1.1195     5.6691    -5.1435 H       
  51 H51            1.2984     7.5273    -0.2201 H       
  52 H52            3.1839    10.7180    -2.4939 H       
  53 H53            1.9650     9.7042    -3.3030 H       
  54 H54            1.5720    10.5135    -1.7671 H       
@<TRIPOS>BOND
   1    1    2 1
   2    1   29 1
   3    1   30 1
   4    1   31 1
   5    2    3 1
   6    2    4 1
   7    2   32 1
   8    3   33 1
   9    3   34 1
  10    3   35 1
  11    4    5 2
  12    4    6 2
  13    4    7 am
  14    7    8 1
  15    7   36 1
  16    8    9 1
  17    8   16 1
  18    8   37 1
  19    9   10 1
  20    9   38 1
  21    9   39 1
  22   10   11 1
  23   10   40 1
  24   10   41 1
  25   11   12 ar
  26   11   16 ar
  27   12   13 ar
  28   12   42 1
  29   13   14 ar
  30   13   17 1
  31   14   15 ar
  32   14   43 1
  33   15   16 ar
  34   15   44 1
  35   17   18 1
  36   17   45 1
  37   17   46 1
  38   18   19 ar
  39   18   23 ar
  40   19   20 ar
  41   19   47 1
  42   20   21 ar
  43   20   27 1
  44   21   22 ar
  45   21   48 1
  46   22   23 ar
  47   22   49 1
  48   23   50 1
  49   24   25 2
  50   24   26 2
  51   24   27 am
  52   24   28 1
  53   27   51 1
  54   28   52 1
  55   28   53 1
  56   28   54 1

#	End of record

