#	Name: ASD04570035
#	Creating user name:	WinNT
#	Creation time:	15. 06. 2019 20:49

#	Modifying user name:	WinNT
#	Modification time:	15. 06. 2019 20:49

#	Program:	/corina/corina34_cracker 3.40 0067  02.08.2006

@<TRIPOS>MOLECULE
ASD04570035
 329  329    0    0    0
SMALL
NO_CHARGES


@<TRIPOS>ATOM
   1 C1            -0.0187     1.5258     0.0104 C.3     
   2 C2             0.0021    -0.0041     0.0020 C.3     
   3 C3            -1.4333    -0.5336     0.0129 C.3     
   4 C4            -1.4126    -2.0635     0.0045 C.3     
   5 C5            -2.8479    -2.5931     0.0153 C.3     
   6 C6            -2.8272    -4.1229     0.0069 C.3     
   7 C7            -4.2626    -4.6525     0.0178 C.3     
   8 C8            -4.2418    -6.1823     0.0094 C.3     
   9 C9            -5.6772    -6.7119     0.0202 C.3     
  10 C10           -5.6565    -8.2417     0.0118 C.3     
  11 C11           -7.0918    -8.7713     0.0227 C.3     
  12 C12           -7.0711   -10.3012     0.0143 C.3     
  13 C13           -8.5065   -10.8307     0.0251 C.3     
  14 C14           -8.4857   -12.3606     0.0167 C.3     
  15 C15           -9.8995   -12.8822     0.0274 C.2     
  16 N16          -10.1278   -14.2105     0.0224 N.am    
  17 O17          -10.8319   -12.1067     0.0405 O.2     
  18 C18          -11.5022   -14.7176     0.0328 C.3     
  19 C19          -11.4818   -16.2244     0.0246 C.2     
  20 N20          -12.6397   -16.9141     0.0319 N.am    
  21 O21          -10.4234   -16.8164     0.0113 O.2     
  22 C22          -12.6198   -18.3789     0.0239 C.3     
  23 C23          -14.0336   -18.9006     0.0345 C.2     
  24 N24          -14.2619   -20.2288     0.0296 N.am    
  25 O25          -14.9660   -18.1251     0.0476 O.2     
  26 C26          -15.6363   -20.7359     0.0400 C.3     
  27 C27          -15.6677   -22.1146    -0.5676 C.2     
  28 O28          -14.6429   -22.6236    -0.9697 O.2     
  29 N29          -16.8345   -22.7821    -0.6641 N.am    
  30 C30          -16.1445   -20.8022     1.4816 C.3     
  31 C31          -16.2295   -19.4087     2.0489 C.ar    
  32 C32          -17.3963   -18.6790     1.9152 C.ar    
  33 C33          -16.8650   -24.1224    -1.2548 C.3     
  34 C34          -16.9741   -24.0068    -2.7765 C.3     
  35 C35          -18.0543   -24.8792    -0.7220 C.2     
  36 O36          -18.8028   -24.3511     0.0728 O.2     
  37 N37          -18.2862   -26.1430    -1.1288 N.am    
  38 C38          -15.7083   -23.3492    -3.3300 C.3     
  39 C39          -15.8157   -23.2353    -4.8289 C.2     
  40 N40          -14.8101   -22.6835    -5.5365 N.am    
  41 C41          -19.4424   -26.8788    -0.6109 C.3     
  42 C42          -20.6788   -26.5390    -1.4457 C.3     
  43 C43          -19.1730   -28.3593    -0.6918 C.2     
  44 O44          -18.1191   -28.7604    -1.1381 O.2     
  45 N45          -20.1034   -29.2376    -0.2681 N.am    
  46 C46          -19.8415   -30.6769    -0.3467 C.3     
  47 C47          -21.1693   -31.4337    -0.4184 C.3     
  48 C48          -19.0667   -31.1228     0.8950 C.3     
  49 C49          -21.8874   -31.0811    -1.7226 C.3     
  50 C50          -23.2152   -31.8379    -1.7943 C.3     
  51 C51          -17.4766   -17.4013     2.4344 C.ar    
  52 C52          -16.3853   -16.8505     3.0903 C.ar    
  53 C53          -15.2157   -17.5846     3.2231 C.ar    
  54 C54          -15.1423   -18.8640     2.7071 C.ar    
  55 O55          -16.4617   -15.5936     3.6015 O.3     
  56 O56          -16.8070   -23.6402    -5.3983 O.2     
  57 C57          -23.9334   -31.4854    -3.0984 C.3     
  58 N58          -25.2083   -32.2120    -3.1673 N.3     
  59 C59            1.4167     2.0553    -0.0004 C.3     
  60 H60           -9.3821   -14.8307     0.0120 H       
  61 C61          -21.0259   -25.0600    -1.2644 C.3     
  62 C62          -22.2623   -24.7202    -2.0992 C.3     
  63 C63          -22.6093   -23.2412    -1.9179 C.3     
  64 N64          -23.7964   -22.9150    -2.7194 N.3     
  65 H65           -0.5459     1.8868    -0.8726 H       
  66 H66           -0.5289     1.8773     0.9072 H       
  67 H67            0.5123    -0.3556    -0.8948 H       
  68 H68            0.5293    -0.3651     0.8851 H       
  69 H69           -1.9435    -0.1821     0.9097 H       
  70 H70           -1.9605    -0.1726    -0.8702 H       
  71 H71           -0.9024    -2.4150    -0.8923 H       
  72 H72           -0.8854    -2.4246     0.8875 H       
  73 H73           -3.3581    -2.2415     0.9121 H       
  74 H74           -3.3751    -2.2320    -0.8677 H       
  75 H75           -2.3170    -4.4744    -0.8899 H       
  76 H76           -2.3000    -4.4840     0.8900 H       
  77 H77           -4.7728    -4.3010     0.9146 H       
  78 H78           -4.7898    -4.2914    -0.8653 H       
  79 H79           -3.7316    -6.5338    -0.8874 H       
  80 H80           -3.7146    -6.5434     0.8924 H       
  81 H81           -6.1874    -6.3604     0.9170 H       
  82 H82           -6.2044    -6.3508    -0.8628 H       
  83 H83           -5.1463    -8.5933    -0.8850 H       
  84 H84           -5.1293    -8.6028     0.8949 H       
  85 H85           -7.6020    -8.4198     0.9195 H       
  86 H86           -7.6190    -8.4102    -0.8604 H       
  87 H87           -6.5609   -10.6527    -0.8825 H       
  88 H88           -6.5439   -10.6622     0.8973 H       
  89 H89           -9.0167   -10.4792     0.9219 H       
  90 H90           -9.0337   -10.4697    -0.8579 H       
  91 H91           -7.9755   -12.7121    -0.8801 H       
  92 H92           -7.9586   -12.7217     0.8998 H       
  93 H93          -12.0124   -14.3660     0.9296 H       
  94 H94          -12.0294   -14.3565    -0.8502 H       
  95 H95          -13.4862   -16.4406     0.0425 H       
  96 H96          -12.1096   -18.7305    -0.8729 H       
  97 H97          -12.0926   -18.7400     0.9069 H       
  98 H98          -13.5162   -20.8491     0.0191 H       
  99 H99          -16.2741   -20.0688    -0.5398 H       
 100 H100         -17.6542   -22.3751    -0.3425 H       
 101 H101         -17.1328   -21.2619     1.4977 H       
 102 H102         -15.4570   -21.3977     2.0822 H       
 103 H103         -18.2455   -19.1081     1.4042 H       
 104 H104         -15.9498   -24.6547    -0.9955 H       
 105 H105         -17.0861   -25.0009    -3.2094 H       
 106 H106         -17.8415   -23.3988    -3.0335 H       
 107 H107         -17.6876   -26.5655    -1.7645 H       
 108 H108         -15.5963   -22.3552    -2.8972 H       
 109 H109         -14.8409   -23.9573    -3.0731 H       
 110 H110         -14.0173   -22.3597    -5.0811 H       
 111 H111         -14.8793   -22.6102    -6.5013 H       
 112 H112         -19.6166   -26.5973     0.4276 H       
 113 H113         -20.4729   -26.7376    -2.4975 H       
 114 H114         -21.5183   -27.1521    -1.1177 H       
 115 H115         -20.9463   -28.9168     0.0889 H       
 116 H116         -19.2527   -30.8909    -1.2387 H       
 117 H117         -20.9782   -32.5064    -0.3873 H       
 118 H118         -21.7946   -31.1513     0.4285 H       
 119 H119         -18.8718   -32.1937     0.8365 H       
 120 H120         -18.1207   -30.5837     0.9461 H       
 121 H121         -19.6555   -30.9089     1.7869 H       
 122 H122         -22.0785   -30.0085    -1.7536 H       
 123 H123         -21.2621   -31.3635    -2.5695 H       
 124 H124         -23.0242   -32.9106    -1.7632 H       
 125 H125         -23.8406   -31.5556    -0.9473 H       
 126 H126         -18.3881   -16.8317     2.3294 H       
 127 H127         -14.3647   -17.1580     3.7332 H       
 128 H128         -14.2321   -19.4361     2.8105 H       
 129 H129         -16.7777   -15.5590     4.5147 H       
 130 H130         -24.1244   -30.4127    -3.1295 H       
 131 H131         -23.3081   -31.7677    -3.9454 H       
 132 H132         -25.7799   -32.0166    -2.3591 H       
 133 H133         -25.7020   -31.9959    -4.0203 H       
 134 H134           1.4019     3.1452     0.0056 H       
 135 H135           1.9439     1.6943     0.8826 H       
 136 H136           1.9269     1.7038    -0.8972 H       
 137 H137         -21.2318   -24.8614    -0.2126 H       
 138 H138         -20.1864   -24.4469    -1.5923 H       
 139 H139         -22.0563   -24.9188    -3.1509 H       
 140 H140         -23.1017   -25.3333    -1.7712 H       
 141 H141         -22.8153   -23.0426    -0.8661 H       
 142 H142         -21.7698   -22.6281    -2.2458 H       
 143 H143         -24.0461   -21.9428    -2.6165 H       
 144 H144         -23.6534   -23.1509    -3.6899 H       
 145 C145          11.2040    33.8871    11.5206 C.3     
 146 C146          12.0308    32.6985    11.9384 C.2     
 147 N147          11.9981    32.2704    13.2160 N.am    
 148 C148          12.8019    31.1149    13.6221 C.3     
 149 C149          12.1761    30.4675    14.8306 C.2     
 150 N150          12.7469    29.3789    15.3833 N.am    
 151 C151          12.1386    28.7495    16.5581 C.3     
 152 C152          13.1954    28.0056    17.3332 C.2     
 153 N153          12.8646    27.3448    18.4603 N.am    
 154 O154          14.3437    28.0014    16.9427 O.2     
 155 C155          13.8919    26.6216    19.2138 C.3     
 156 C156          13.2464    25.5175    20.0108 C.2     
 157 C157          14.6027    27.5878    20.1636 C.3     
 158 O158          13.6765    28.0595    21.1442 O.3     
 159 C159          14.2422    28.9734    22.0859 C.3     
 160 N160          14.0027    24.7149    20.7857 N.am    
 161 O161          12.0464    25.3511    19.9550 O.2     
 162 C162          13.3751    23.6416    21.5605 C.3     
 163 C163          14.2391    23.3094    22.7498 C.2     
 164 N164          13.7386    22.5730    23.7616 N.am    
 165 O165          15.3847    23.7047    22.7964 O.2     
 166 C166          14.6017    22.1800    24.8782 C.3     
 167 C167          14.4539    20.7017    25.1313 C.2     
 168 O168          13.7017    20.0415    24.4463 O.2     
 169 N169          15.1576    20.1134    26.1187 N.am    
 170 C170          15.0140    18.6764    26.3647 C.3     
 171 C171          15.9520    17.9036    25.4353 C.3     
 172 C172          15.3665    18.3745    27.7985 C.2     
 173 O173          15.7045    19.2714    28.5416 O.2     
 174 N174          15.3062    17.1078    28.2549 N.am    
 175 C175          15.6489    16.8143    29.6487 C.3     
 176 C176          14.4206    17.0361    30.5335 C.3     
 177 C177          16.0989    15.3807    29.7641 C.2     
 178 O178          16.1303    14.6737    28.7791 O.2     
 179 N179          16.4665    14.8841    30.9619 N.am    
 180 C180          16.9040    13.4905    31.0742 C.3     
 181 C181          15.6823    12.5841    31.2378 C.3     
 182 C182          17.8042    13.3416    32.2736 C.2     
 183 O183          18.0556    14.3048    32.9664 O.2     
 184 N184          18.3299    12.1381    32.5763 N.am    
 185 C185          14.8318    12.6403    29.9672 C.3     
 186 C186          13.6101    11.7338    30.1309 C.3     
 187 N187          12.7957    11.7876    28.9143 N.pl3   
 188 C188          11.6391    11.0492    28.8281 C.2     
 189 C189          13.2205    22.4001    20.6798 C.3     
 190 C190          12.4315    21.3314    21.4389 C.3     
 191 O191          12.5210    22.7488    19.4835 O.3     
 192 C192          14.1964    22.9553    26.1334 C.3     
 193 C193          14.4776    24.4219    25.9307 C.2     
 194 O194          14.2405    25.2942    26.9229 O.3     
 195 O195          14.9165    24.8125    24.8749 O.2     
 196 C196          15.5163    18.1113    23.9834 C.3     
 197 C197          16.4543    17.3385    23.0540 C.3     
 198 C198          16.0186    17.5461    21.6021 C.3     
 199 N199          16.9192    16.8041    20.7097 N.3     
 200 C200          14.0445    18.4952    30.5142 C.ar    
 201 C201          13.1583    18.9670    29.5635 C.ar    
 202 C202          14.5817    19.3589    31.4508 C.ar    
 203 C203          14.2382    20.6968    31.4355 C.ar    
 204 C204          13.3533    21.1737    30.4793 C.ar    
 205 C205          12.8119    20.3042    29.5437 C.ar    
 206 N206          11.2469    10.2604    29.8836 N.pl3   
 207 N207          10.9146    11.0971    27.7457 N.2     
 208 C208          11.0527    27.7705    16.1073 C.3     
 209 O209          11.6510    26.7007    15.3727 O.3     
 210 O210          11.1589    30.9262    15.3058 O.2     
 211 C211          14.2195    31.5756    13.9670 C.3     
 212 C212          14.8993    32.1194    12.7088 C.3     
 213 C213          16.3169    32.5802    13.0536 C.3     
 214 N214          16.9678    33.1008    11.8489 N.pl3   
 215 C215          18.2563    33.5758    11.9144 C.2     
 216 N216          18.9340    33.5622    13.1106 N.pl3   
 217 N217          18.8354    34.0391    10.8425 N.2     
 218 O218          12.7257    32.1271    11.1250 O.2     
 219 C219          19.2050    11.9934    33.7423 C.3     
 220 C220          20.6173    12.3524    33.3580 C.2     
 221 C221          19.1630    10.5455    34.2349 C.3     
 222 C222          17.7607    10.2245    34.7559 C.3     
 223 N223          21.6016    12.2924    34.2767 N.am    
 224 O224          20.8681    12.6955    32.2221 O.2     
 225 C225          17.6722     8.7360    35.0984 C.3     
 226 O226          13.0135    22.4894    30.4625 O.3     
 227 N227          11.8276    34.5331    10.3580 N.3     
 228 C228           9.7939    33.4228    11.1507 C.3     
 229 C229          12.8434    35.5072    10.7789 C.3     
 230 C230           8.9142    34.6416    10.8649 C.3     
 231 C231           7.5409    34.1761    10.3767 C.3     
 232 C232           8.7489    35.4627    12.1452 C.3     
 233 C233          17.4805    11.0541    36.0106 C.3     
 234 H234          11.1478    34.5984    12.3447 H       
 235 H235          11.4423    32.7274    13.8665 H       
 236 H236          12.8426    30.3952    12.8046 H       
 237 H237          13.5605    29.0120    15.0032 H       
 238 H238          11.6953    29.5169    17.1927 H       
 239 H239          11.9462    27.3481    18.7726 H       
 240 H240          14.6168    26.1937    18.5212 H       
 241 H241          15.4248    27.0712    20.6591 H       
 242 H242          14.9936    28.4328    19.5968 H       
 243 H243          13.4758    29.2844    22.7958 H       
 244 H244          15.0568    28.4856    22.6213 H       
 245 H245          14.6256    29.8471    21.5590 H       
 246 H246          14.9625    24.8480    20.8304 H       
 247 H247          12.3935    23.9677    21.9043 H       
 248 H248          12.8069    22.3031    23.7504 H       
 249 H249          15.6395    22.4044    24.6318 H       
 250 H250          15.7592    20.6415    26.6666 H       
 251 H251          13.9838    18.3761    26.1729 H       
 252 H252          16.9715    18.2668    25.5642 H       
 253 H253          15.9110    16.8419    25.6786 H       
 254 H254          15.0359    16.3905    27.6605 H       
 255 H255          16.4535    17.4748    29.9718 H       
 256 H256          13.5887    16.4414    30.1560 H       
 257 H257          14.6494    16.7333    31.5553 H       
 258 H258          16.4415    15.4496    31.7497 H       
 259 H259          17.4487    13.2070    30.1736 H       
 260 H260          16.0108    11.5591    31.4101 H       
 261 H261          15.0894    12.9233    32.0872 H       
 262 H262          18.1289    11.3678    32.0222 H       
 263 H263          14.5033    13.6652    29.7949 H       
 264 H264          15.4247    12.3011    29.1178 H       
 265 H265          13.9386    10.7089    30.3032 H       
 266 H266          13.0172    12.0730    30.9803 H       
 267 H267          13.0724    12.3442    28.1696 H       
 268 H268          14.2061    22.0110    20.4241 H       
 269 H269          11.4662    21.7380    21.7403 H       
 270 H270          12.2760    20.4672    20.7929 H       
 271 H271          12.9902    21.0274    22.3241 H       
 272 H272          12.9645    23.4231    18.9509 H       
 273 H273          13.1323    22.8120    26.3213 H       
 274 H274          14.7684    22.5902    26.9865 H       
 275 H275          14.4365    26.2244    26.7459 H       
 276 H276          14.4967    17.7480    23.8545 H       
 277 H277          15.5572    19.1730    23.7401 H       
 278 H278          17.4739    17.7017    23.1829 H       
 279 H279          16.4133    16.2767    23.2973 H       
 280 H280          14.9990    17.1829    21.4732 H       
 281 H281          16.0596    18.6078    21.3588 H       
 282 H282          16.9482    15.8263    20.9568 H       
 283 H283          16.6522    16.9253    19.7443 H       
 284 H284          12.7368    18.2897    28.8355 H       
 285 H285          15.2703    18.9871    32.1951 H       
 286 H286          14.6579    21.3710    32.1675 H       
 287 H287          12.1228    20.6730    28.7983 H       
 288 H288          11.7861    10.2248    30.6891 H       
 289 H289          10.4309     9.7394    29.8227 H       
 290 H290          10.0986    10.5761    27.6848 H       
 291 H291          10.5401    27.3688    16.9814 H       
 292 H292          10.3354    28.2906    15.4725 H       
 293 H293          11.0199    26.0405    15.0550 H       
 294 H294          14.1730    32.3599    14.7226 H       
 295 H295          14.7917    30.7323    14.3535 H       
 296 H296          14.9459    31.3352    11.9532 H       
 297 H297          14.3271    32.9628    12.3223 H       
 298 H298          16.2704    33.3644    13.8092 H       
 299 H299          16.8891    31.7368    13.4401 H       
 300 H300          16.4897    33.1105    11.0050 H       
 301 H301          18.5031    33.2175    13.9083 H       
 302 H302          19.8431    33.8974    13.1568 H       
 303 H303          19.7445    34.3742    10.8888 H       
 304 H304          18.8646    12.6575    34.5367 H       
 305 H305          19.4071     9.8743    33.4115 H       
 306 H306          19.8880    10.4138    35.0381 H       
 307 H307          17.0243    10.4653    33.9892 H       
 308 H308          21.4010    12.0180    35.1852 H       
 309 H309          22.5106    12.5235    34.0294 H       
 310 H310          16.6505     8.4898    35.3877 H       
 311 H311          17.9555     8.1452    34.2273 H       
 312 H312          18.3475     8.5124    35.9243 H       
 313 H313          13.5918    23.0381    29.9151 H       
 314 H314          12.2219    33.8473     9.7316 H       
 315 H315           9.8403    32.7920    10.2630 H       
 316 H316           9.3696    32.8546    11.9784 H       
 317 H317          13.2277    36.0323     9.9044 H       
 318 H318          12.3957    36.2251    11.4661 H       
 319 H319          13.6607    34.9871    11.2785 H       
 320 H320           9.3836    35.2564    10.0970 H       
 321 H321           7.0357    33.6339    11.1760 H       
 322 H322           6.9439    35.0423    10.0915 H       
 323 H323           7.6648    33.5205     9.5147 H       
 324 H324           9.7272    35.7943    12.4930 H       
 325 H325           8.1222    36.3310    11.9416 H       
 326 H326           8.2795    34.8479    12.9131 H       
 327 H327          17.5436    12.1146    35.7665 H       
 328 H328          16.4815    10.8255    36.3817 H       
 329 H329          18.2169    10.8133    36.7773 H       
@<TRIPOS>BOND
   1    1    2 1
   2    1   59 1
   3    1   65 1
   4    1   66 1
   5    2    3 1
   6    2   67 1
   7    2   68 1
   8    3    4 1
   9    3   69 1
  10    3   70 1
  11    4    5 1
  12    4   71 1
  13    4   72 1
  14    5    6 1
  15    5   73 1
  16    5   74 1
  17    6    7 1
  18    6   75 1
  19    6   76 1
  20    7    8 1
  21    7   77 1
  22    7   78 1
  23    8    9 1
  24    8   79 1
  25    8   80 1
  26    9   10 1
  27    9   81 1
  28    9   82 1
  29   10   11 1
  30   10   83 1
  31   10   84 1
  32   11   12 1
  33   11   85 1
  34   11   86 1
  35   12   13 1
  36   12   87 1
  37   12   88 1
  38   13   14 1
  39   13   89 1
  40   13   90 1
  41   14   15 1
  42   14   91 1
  43   14   92 1
  44   15   16 am
  45   15   17 2
  46   16   18 1
  47   16   60 1
  48   18   19 1
  49   18   93 1
  50   18   94 1
  51   19   20 am
  52   19   21 2
  53   20   22 1
  54   20   95 1
  55   22   23 1
  56   22   96 1
  57   22   97 1
  58   23   24 am
  59   23   25 2
  60   24   26 1
  61   24   98 1
  62   26   27 1
  63   26   30 1
  64   26   99 1
  65   27   28 2
  66   27   29 am
  67   29   33 1
  68   29  100 1
  69   30   31 1
  70   30  101 1
  71   30  102 1
  72   31   32 ar
  73   31   54 ar
  74   32   51 ar
  75   32  103 1
  76   33   34 1
  77   33   35 1
  78   33  104 1
  79   34   38 1
  80   34  105 1
  81   34  106 1
  82   35   36 2
  83   35   37 am
  84   37   41 1
  85   37  107 1
  86   38   39 1
  87   38  108 1
  88   38  109 1
  89   39   40 am
  90   39   56 2
  91   40  110 1
  92   40  111 1
  93   41   42 1
  94   41   43 1
  95   41  112 1
  96   42   61 1
  97   42  113 1
  98   42  114 1
  99   43   44 2
 100   43   45 am
 101   45   46 1
 102   45  115 1
 103   46   47 1
 104   46   48 1
 105   46  116 1
 106   47   49 1
 107   47  117 1
 108   47  118 1
 109   48  119 1
 110   48  120 1
 111   48  121 1
 112   49   50 1
 113   49  122 1
 114   49  123 1
 115   50   57 1
 116   50  124 1
 117   50  125 1
 118   51   52 ar
 119   51  126 1
 120   52   53 ar
 121   52   55 1
 122   53   54 ar
 123   53  127 1
 124   54  128 1
 125   55  129 1
 126   57   58 1
 127   57  130 1
 128   57  131 1
 129   58  132 1
 130   58  133 1
 131   59  134 1
 132   59  135 1
 133   59  136 1
 134   61   62 1
 135   61  137 1
 136   61  138 1
 137   62   63 1
 138   62  139 1
 139   62  140 1
 140   63   64 1
 141   63  141 1
 142   63  142 1
 143   64  143 1
 144   64  144 1
 145  145  146 1
 146  145  227 1
 147  145  228 1
 148  145  234 1
 149  146  147 am
 150  146  218 2
 151  147  148 1
 152  147  235 1
 153  148  149 1
 154  148  211 1
 155  148  236 1
 156  149  150 am
 157  149  210 2
 158  150  151 1
 159  150  237 1
 160  151  152 1
 161  151  208 1
 162  151  238 1
 163  152  153 am
 164  152  154 2
 165  153  155 1
 166  153  239 1
 167  155  156 1
 168  155  157 1
 169  155  240 1
 170  156  160 am
 171  156  161 2
 172  157  158 1
 173  157  241 1
 174  157  242 1
 175  158  159 1
 176  159  243 1
 177  159  244 1
 178  159  245 1
 179  160  162 1
 180  160  246 1
 181  162  163 1
 182  162  189 1
 183  162  247 1
 184  163  164 am
 185  163  165 2
 186  164  166 1
 187  164  248 1
 188  166  167 1
 189  166  192 1
 190  166  249 1
 191  167  168 2
 192  167  169 am
 193  169  170 1
 194  169  250 1
 195  170  171 1
 196  170  172 1
 197  170  251 1
 198  171  196 1
 199  171  252 1
 200  171  253 1
 201  172  173 2
 202  172  174 am
 203  174  175 1
 204  174  254 1
 205  175  176 1
 206  175  177 1
 207  175  255 1
 208  176  200 1
 209  176  256 1
 210  176  257 1
 211  177  178 2
 212  177  179 am
 213  179  180 1
 214  179  258 1
 215  180  181 1
 216  180  182 1
 217  180  259 1
 218  181  185 1
 219  181  260 1
 220  181  261 1
 221  182  183 2
 222  182  184 am
 223  184  219 1
 224  184  262 1
 225  185  186 1
 226  185  263 1
 227  185  264 1
 228  186  187 1
 229  186  265 1
 230  186  266 1
 231  187  188 1
 232  187  267 1
 233  188  206 1
 234  188  207 2
 235  189  190 1
 236  189  191 1
 237  189  268 1
 238  190  269 1
 239  190  270 1
 240  190  271 1
 241  191  272 1
 242  192  193 1
 243  192  273 1
 244  192  274 1
 245  193  194 1
 246  193  195 2
 247  194  275 1
 248  196  197 1
 249  196  276 1
 250  196  277 1
 251  197  198 1
 252  197  278 1
 253  197  279 1
 254  198  199 1
 255  198  280 1
 256  198  281 1
 257  199  282 1
 258  199  283 1
 259  200  201 ar
 260  200  202 ar
 261  201  205 ar
 262  201  284 1
 263  202  203 ar
 264  202  285 1
 265  203  204 ar
 266  203  286 1
 267  204  205 ar
 268  204  226 1
 269  205  287 1
 270  206  288 1
 271  206  289 1
 272  207  290 1
 273  208  209 1
 274  208  291 1
 275  208  292 1
 276  209  293 1
 277  211  212 1
 278  211  294 1
 279  211  295 1
 280  212  213 1
 281  212  296 1
 282  212  297 1
 283  213  214 1
 284  213  298 1
 285  213  299 1
 286  214  215 1
 287  214  300 1
 288  215  216 1
 289  215  217 2
 290  216  301 1
 291  216  302 1
 292  217  303 1
 293  219  220 1
 294  219  221 1
 295  219  304 1
 296  220  223 am
 297  220  224 2
 298  221  222 1
 299  221  305 1
 300  221  306 1
 301  222  225 1
 302  222  233 1
 303  222  307 1
 304  223  308 1
 305  223  309 1
 306  225  310 1
 307  225  311 1
 308  225  312 1
 309  226  313 1
 310  227  229 1
 311  227  314 1
 312  228  230 1
 313  228  315 1
 314  228  316 1
 315  229  317 1
 316  229  318 1
 317  229  319 1
 318  230  231 1
 319  230  232 1
 320  230  320 1
 321  231  321 1
 322  231  322 1
 323  231  323 1
 324  232  324 1
 325  232  325 1
 326  232  326 1
 327  233  327 1
 328  233  328 1
 329  233  329 1

#	End of record

