#	Name: ASD00360017
#	Creating user name:	WinNT
#	Creation time:	15. 06. 2019 18:35

#	Modifying user name:	WinNT
#	Modification time:	15. 06. 2019 18:35

#	Program:	/corina/corina34_cracker 3.40 0067  02.08.2006

@<TRIPOS>MOLECULE
ASD00360017
  40   43    0    0    0
SMALL
NO_CHARGES


@<TRIPOS>ATOM
   1 C1            -0.0169     1.3974     0.0097 C.ar    
   2 C2             0.0021    -0.0041     0.0020 C.ar    
   3 C3             1.2197    -0.6879    -0.0139 C.ar    
   4 C4             2.4180     0.0133    -0.0218 C.ar    
   5 C5             2.4121     1.4041    -0.0134 C.ar    
   6 C6             1.1869     2.1043     0.0020 C.ar    
   7 C7             1.1879     3.5781     0.0110 C.2     
   8 C8             3.6825     2.1572    -0.0191 C.2     
   9 C9             3.6658     3.6017     0.2978 C.ar    
  10 C10            2.4411     4.2972     0.3121 C.ar    
  11 C11            2.4244     5.6609     0.6117 C.ar    
  12 C12            4.8463     4.2775     0.5816 C.ar    
  13 C13            4.8151     5.6315     0.8765 C.ar    
  14 C14            3.6189     6.3186     0.8940 C.ar    
  15 O15            1.2316    -2.0454    -0.0212 O.3     
  16 O16            4.7291     1.5967    -0.2807 O.2     
  17 O17            0.1672     4.1951    -0.2277 O.2     
  18 O18            1.2514     6.3412     0.6273 O.3     
  19 O19           -1.1978     2.0629     0.0190 O.3     
  20 C20            6.0987     6.3587     1.1840 C.3     
  21 C21           -1.2720    -0.7615     0.0112 C.2     
  22 C22           -2.2444    -0.7693    -1.0092 C.2     
  23 N23           -3.2195    -1.5537    -0.6344 N.2     
  24 N24           -2.9129    -2.0741     0.6287 N.pl3   
  25 C25           -1.7156    -1.5842     1.0077 C.2     
  26 C26           -3.7470    -2.9968     1.4026 C.3     
  27 H27            3.3559    -0.5220    -0.0340 H       
  28 H28            5.7876     3.7479     0.5727 H       
  29 H29            3.6091     7.3735     1.1257 H       
  30 H30            1.2262    -2.4340    -0.9066 H       
  31 H31            0.8127     6.3490     1.4890 H       
  32 H32           -1.5363     2.2511     0.9050 H       
  33 H33            6.5226     6.7539     0.2608 H       
  34 H34            5.8954     7.1800     1.8712 H       
  35 H35            6.8067     5.6683     1.6424 H       
  36 H36           -2.1926    -0.2217    -1.9387 H       
  37 H37           -1.2012    -1.8011     1.9323 H       
  38 H38           -3.4819    -4.0239     1.1515 H       
  39 H39           -3.5830    -2.8291     2.4671 H       
  40 H40           -4.7967    -2.8241     1.1651 H       
@<TRIPOS>BOND
   1    1    2 ar
   2    1    6 ar
   3    1   19 1
   4    2    3 ar
   5    2   21 1
   6    3    4 ar
   7    3   15 1
   8    4    5 ar
   9    4   27 1
  10    5    6 ar
  11    5    8 1
  12    6    7 1
  13    7   10 1
  14    7   17 2
  15    8    9 1
  16    8   16 2
  17    9   12 ar
  18    9   10 ar
  19   10   11 ar
  20   11   14 ar
  21   11   18 1
  22   12   13 ar
  23   12   28 1
  24   13   14 ar
  25   13   20 1
  26   14   29 1
  27   15   30 1
  28   18   31 1
  29   19   32 1
  30   20   33 1
  31   20   34 1
  32   20   35 1
  33   21   22 1
  34   21   25 2
  35   22   23 2
  36   22   36 1
  37   23   24 1
  38   24   25 1
  39   24   26 1
  40   25   37 1
  41   26   38 1
  42   26   39 1
  43   26   40 1

#	End of record

