#	Name: ASD01911236
#	Creating user name:	WinNT
#	Creation time:	15. 06. 2019 19:57

#	Modifying user name:	WinNT
#	Modification time:	15. 06. 2019 19:57

#	Program:	/corina/corina34_cracker 3.40 0067  02.08.2006

@<TRIPOS>MOLECULE
ASD01911236
  41   44    0    0    0
SMALL
NO_CHARGES


@<TRIPOS>ATOM
   1 C1            -0.2885     0.6877     0.1937 C.3     
   2 C2             0.4492    -0.6349     0.4245 C.3     
   3 N3             1.2305    -0.9566    -0.7775 N.am    
   4 C4             2.1654     0.0480    -1.3021 C.3     
   5 C5             1.4086     1.3630    -1.5136 C.3     
   6 C6             0.7202     1.7664    -0.2076 C.3     
   7 C7             1.0925    -2.1508    -1.3869 C.2     
   8 O8             1.6784    -2.3729    -2.4254 O.2     
   9 C9             0.2104    -3.2101    -0.7781 C.3     
  10 C10            0.1594    -4.5128    -1.5936 C.3     
  11 C11            0.1984    -5.2622    -0.2513 C.3     
  12 C12            0.8996    -4.0233     0.3303 C.3     
  13 C13            2.7314    -0.4260    -2.6159 C.2     
  14 N14            3.9541    -0.8424    -2.8303 N.2     
  15 C15            4.0039    -1.1626    -4.1448 C.2     
  16 N16            2.8168    -0.9228    -4.6451 N.2     
  17 O17            2.0773    -0.5054    -3.7791 O.3     
  18 C18            5.1761    -1.6842    -4.8773 C.2     
  19 C19            5.1992    -1.9958    -6.1891 C.2     
  20 C20            6.4106    -2.4653    -6.6489 C.2     
  21 C21            7.3761    -2.5402    -5.7268 C.2     
  22 S22            6.7599    -1.9878    -4.1750 S.3     
  23 H23           -1.0219     0.5611    -0.6026 H       
  24 H24           -0.7950     0.9867     1.1114 H       
  25 H25            1.1180    -0.5360     1.2794 H       
  26 H26           -0.2739    -1.4284     0.6135 H       
  27 H27            2.9742     0.2027    -0.5880 H       
  28 H28            2.1099     2.1426    -1.8111 H       
  29 H29            0.6592     1.2301    -2.2938 H       
  30 H30            0.2012     2.7145    -0.3485 H       
  31 H31            1.4676     1.8751     0.5783 H       
  32 H32           -0.7726    -2.8321    -0.4971 H       
  33 H33           -0.7725    -4.6482    -2.1424 H       
  34 H34            1.0429    -4.6764    -2.2108 H       
  35 H35           -0.7879    -5.4460     0.1749 H       
  36 H36            0.8267    -6.1527    -0.2664 H       
  37 H37            1.9854    -4.0531     0.2391 H       
  38 H38            0.5651    -3.7635     1.3347 H       
  39 H39            4.3361    -1.8863    -6.8291 H       
  40 H40            6.5684    -2.7519    -7.6781 H       
  41 H41            8.3836    -2.8841    -5.9085 H       
@<TRIPOS>BOND
   1    1    2 1
   2    1    6 1
   3    1   23 1
   4    1   24 1
   5    2    3 1
   6    2   25 1
   7    2   26 1
   8    3    4 1
   9    3    7 am
  10    4    5 1
  11    4   13 1
  12    4   27 1
  13    5    6 1
  14    5   28 1
  15    5   29 1
  16    6   30 1
  17    6   31 1
  18    7    8 2
  19    7    9 1
  20    9   10 1
  21    9   12 1
  22    9   32 1
  23   10   11 1
  24   10   33 1
  25   10   34 1
  26   11   12 1
  27   11   35 1
  28   11   36 1
  29   12   37 1
  30   12   38 1
  31   13   14 2
  32   13   17 1
  33   14   15 1
  34   15   16 2
  35   15   18 1
  36   16   17 1
  37   18   19 2
  38   18   22 1
  39   19   20 1
  40   19   39 1
  41   20   21 2
  42   20   40 1
  43   21   22 1
  44   21   41 1

#	End of record

