#	Name: ASD01150136
#	Creating user name:	WinNT
#	Creation time:	15. 06. 2019 19:03

#	Modifying user name:	WinNT
#	Modification time:	15. 06. 2019 19:03

#	Program:	/corina/corina34_cracker 3.40 0067  02.08.2006

@<TRIPOS>MOLECULE
ASD01150136
  60   63    0    0    0
SMALL
NO_CHARGES


@<TRIPOS>ATOM
   1 N1            -0.0166     1.3763     0.0096 N.pl3   
   2 C2             0.0021    -0.0041     0.0020 C.2     
   3 C3            -1.3262    -0.4109     0.0125 C.2     
   4 N4            -2.0781     0.6927     0.0256 N.2     
   5 C5            -1.3102     1.7524     0.0299 C.2     
   6 C6             1.0206    -0.9813    -0.0125 C.2     
   7 N7             0.6807    -2.2871    -0.0159 N.am    
   8 C8            -0.6087    -2.6667    -0.0061 C.2     
   9 N9            -1.6103    -1.7670     0.0083 N.am    
  10 O10            2.1925    -0.6496    -0.0223 O.2     
  11 C11           -3.0026    -2.2226     0.0187 C.3     
  12 O12           -0.8774    -3.8526    -0.0100 O.2     
  13 C13            1.7328    -3.3064    -0.0310 C.3     
  14 C14            2.1070    -3.6631     1.3845 C.ar    
  15 C15            1.4454    -4.6866     2.0371 C.ar    
  16 C16            1.7881    -5.0142     3.3353 C.ar    
  17 C17            2.7936    -4.3176     3.9819 C.ar    
  18 C18            3.4553    -3.2933     3.3283 C.ar    
  19 C19            3.1155    -2.9704     2.0281 C.ar    
  20 Cl20           3.2242    -4.7281     5.6127 Cl      
  21 C21           -1.7991     3.1779     0.0446 C.3     
  22 C22           -1.9566     3.6481     1.4920 C.3     
  23 C23            1.1490     2.2638     0.0032 C.3     
  24 C24           -3.4739    -2.3894     1.4647 C.3     
  25 C25           -4.9279    -2.8653     1.4755 C.3     
  26 O26           -5.3681    -3.0211     2.8261 O.3     
  27 C27           -6.6469    -3.4411     3.0136 C.ar    
  28 C28           -7.1401    -3.6137     4.2988 C.ar    
  29 C29           -8.4403    -4.0408     4.4868 C.ar    
  30 C30           -9.2500    -4.2962     3.3955 C.ar    
  31 C31           -8.7607    -4.1254     2.1136 C.ar    
  32 C32           -7.4631    -3.6926     1.9203 C.ar    
  33 C33          -10.6680    -4.7621     3.6035 C.3     
  34 F34          -11.5170    -3.6527     3.6788 F       
  35 F35          -11.0545    -5.5731     2.5310 F       
  36 F36          -10.7490    -5.4929     4.7937 F       
  37 H37           -3.6294    -1.4868    -0.4852 H       
  38 H38           -3.0759    -3.1785    -0.4999 H       
  39 H39            1.3696    -4.1958    -0.5459 H       
  40 H40            2.6081    -2.9174    -0.5512 H       
  41 H41            0.6603    -5.2301     1.5324 H       
  42 H42            1.2710    -5.8136     3.8452 H       
  43 H43            4.2402    -2.7492     3.8325 H       
  44 H44            3.6320    -2.1709     1.5178 H       
  45 H45           -1.0779     3.8146    -0.4679 H       
  46 H46           -2.7616     3.2371    -0.4635 H       
  47 H47           -2.3101     4.6791     1.5026 H       
  48 H48           -2.6777     3.0114     2.0044 H       
  49 H49           -0.9941     3.5888     2.0001 H       
  50 H50            1.4282     2.4894    -1.0259 H       
  51 H51            0.9039     3.1892     0.5244 H       
  52 H52            1.9820     1.7730     0.5065 H       
  53 H53           -2.8470    -3.1252     1.9685 H       
  54 H54           -3.4005    -1.4335     1.9833 H       
  55 H55           -5.5548    -2.1295     0.9717 H       
  56 H56           -5.0013    -3.8212     0.9569 H       
  57 H57           -6.5080    -3.4147     5.1515 H       
  58 H58           -8.8247    -4.1757     5.4870 H       
  59 H59           -9.3948    -4.3263     1.2628 H       
  60 H60           -7.0813    -3.5593     0.9189 H       
@<TRIPOS>BOND
   1    1    2 1
   2    1   23 1
   3    1    5 1
   4    2    3 2
   5    2    6 1
   6    3    4 1
   7    3    9 1
   8    4    5 2
   9    5   21 1
  10    6    7 am
  11    6   10 2
  12    7    8 am
  13    7   13 1
  14    8    9 am
  15    8   12 2
  16    9   11 1
  17   11   24 1
  18   11   37 1
  19   11   38 1
  20   13   14 1
  21   13   39 1
  22   13   40 1
  23   14   15 ar
  24   14   19 ar
  25   15   16 ar
  26   15   41 1
  27   16   17 ar
  28   16   42 1
  29   17   18 ar
  30   17   20 1
  31   18   19 ar
  32   18   43 1
  33   19   44 1
  34   21   22 1
  35   21   45 1
  36   21   46 1
  37   22   47 1
  38   22   48 1
  39   22   49 1
  40   23   50 1
  41   23   51 1
  42   23   52 1
  43   24   25 1
  44   24   53 1
  45   24   54 1
  46   25   26 1
  47   25   55 1
  48   25   56 1
  49   26   27 1
  50   27   28 ar
  51   27   32 ar
  52   28   29 ar
  53   28   57 1
  54   29   30 ar
  55   29   58 1
  56   30   31 ar
  57   30   33 1
  58   31   32 ar
  59   31   59 1
  60   32   60 1
  61   33   34 1
  62   33   35 1
  63   33   36 1

#	End of record

