#	Name: ASD09890040
#	Creating user name:	WinNT
#	Creation time:	15. 06. 2019 21:24

#	Modifying user name:	WinNT
#	Modification time:	15. 06. 2019 21:24

#	Program:	/corina/corina34_cracker 3.40 0067  02.08.2006

@<TRIPOS>MOLECULE
ASD09890040
  48   51    0    0    0
SMALL
NO_CHARGES


@<TRIPOS>ATOM
   1 C1            -0.0167     1.3784     0.0096 C.ar    
   2 C2             0.0021    -0.0041     0.0020 C.ar    
   3 C3             1.2074    -0.6814    -0.0127 C.ar    
   4 C4             2.3963     0.0221    -0.0203 C.ar    
   5 C5             2.3802     1.4093    -0.0132 C.ar    
   6 C6             1.1695     2.0865     0.0021 C.ar    
   7 O7             3.5484     2.1036    -0.0202 O.3     
   8 C8             3.4557     3.5296    -0.0122 C.3     
   9 C9             4.8408     4.1231    -0.0217 C.2     
  10 N10            5.5772     4.4485    -1.1299 N.pl3   
  11 C11            6.7577     4.9500    -0.6542 C.2     
  12 N12            6.6913     4.9099     0.6565 N.2     
  13 N13            5.5580     4.4273     1.0229 N.2     
  14 S14            8.1108     5.5377    -1.6176 S.3     
  15 C15            9.2527     6.0155    -0.2971 C.3     
  16 C16           10.5977     6.4596    -0.8984 C.3     
  17 C17           10.8075     7.9275    -0.4727 C.3     
  18 C18            9.9433     8.0801     0.8036 C.3     
  19 C19            8.6921     7.2290     0.4730 C.3     
  20 C20            5.1998     4.2983    -2.4723 C.ar    
  21 C21            4.1376     5.0318    -2.9822 C.ar    
  22 C22            3.7684     4.8822    -4.3049 C.ar    
  23 C23            4.4559     4.0028    -5.1207 C.ar    
  24 C24            5.5148     3.2706    -4.6154 C.ar    
  25 C25            5.8917     3.4199    -3.2952 C.ar    
  26 N26            6.2481     2.3297    -5.4918 N.pl3   
  27 O27            5.9189     2.2007    -6.6573 O.2     
  28 O28            7.1807     1.6846    -5.0474 O.2     
  29 H29           -0.9595     1.9052     0.0170 H       
  30 H30           -0.9263    -0.5558     0.0080 H       
  31 H31            1.2194    -1.7613    -0.0179 H       
  32 H32            3.3375    -0.5074    -0.0315 H       
  33 H33            1.1543     3.1664     0.0073 H       
  34 H34            2.9113     3.8632    -0.8956 H       
  35 H35            2.9274     3.8543     0.8842 H       
  36 H36            9.4065     5.1787     0.3842 H       
  37 H37           11.4043     5.8389    -0.5083 H       
  38 H38           10.5627     6.3874    -1.9854 H       
  39 H39           11.8576     8.1129    -0.2468 H       
  40 H40           10.4589     8.6044    -1.2527 H       
  41 H41           10.4643     7.6794     1.6731 H       
  42 H42            9.6699     9.1233     0.9625 H       
  43 H43            8.0019     7.7931    -0.1543 H       
  44 H44            8.1985     6.9047     1.3890 H       
  45 H45            3.5999     5.7187    -2.3453 H       
  46 H46            2.9417     5.4524    -4.7022 H       
  47 H47            4.1654     3.8872    -6.1544 H       
  48 H48            6.7189     2.8481    -2.9012 H       
@<TRIPOS>BOND
   1    1    2 ar
   2    1    6 ar
   3    1   29 1
   4    2    3 ar
   5    2   30 1
   6    3    4 ar
   7    3   31 1
   8    4    5 ar
   9    4   32 1
  10    5    6 ar
  11    5    7 1
  12    6   33 1
  13    7    8 1
  14    8    9 1
  15    8   34 1
  16    8   35 1
  17    9   10 1
  18    9   13 2
  19   10   11 1
  20   10   20 1
  21   11   12 2
  22   11   14 1
  23   12   13 1
  24   14   15 1
  25   15   16 1
  26   15   19 1
  27   15   36 1
  28   16   17 1
  29   16   37 1
  30   16   38 1
  31   17   18 1
  32   17   39 1
  33   17   40 1
  34   18   19 1
  35   18   41 1
  36   18   42 1
  37   19   43 1
  38   19   44 1
  39   20   21 ar
  40   20   25 ar
  41   21   22 ar
  42   21   45 1
  43   22   23 ar
  44   22   46 1
  45   23   24 ar
  46   23   47 1
  47   24   25 ar
  48   24   26 1
  49   25   48 1
  50   26   27 2
  51   26   28 2

#	End of record

