#	Name: ASD05300003
#	Creating user name:	WinNT
#	Creation time:	15. 06. 2019 20:58

#	Modifying user name:	WinNT
#	Modification time:	15. 06. 2019 20:58

#	Program:	/corina/corina34_cracker 3.40 0067  02.08.2006

@<TRIPOS>MOLECULE
ASD05300003
  41   44    0    0    0
SMALL
NO_CHARGES


@<TRIPOS>ATOM
   1 O1            -0.0520     0.0006     0.1102 O.2     
   2 C2            -0.0144     1.2086     0.0087 C.2     
   3 N3             1.1605     1.8297    -0.2158 N.am    
   4 C4             2.3182     1.1359    -0.1454 C.2     
   5 C5             2.5391     0.0793    -1.0310 C.2     
   6 C6             3.7437    -0.6208    -0.9999 C.2     
   7 C7             4.7345    -0.2575    -0.0882 C.2     
   8 C8             4.5109     0.7909     0.8014 C.2     
   9 C9             3.2937     1.4783     0.7884 C.2     
  10 C10            3.0450     2.5166     1.7919 C.2     
  11 C11            2.4077     3.6253     1.5970 C.2     
  12 C12            1.8169     4.0593     0.3263 C.2     
  13 C13            1.1840     3.1461    -0.5172 C.2     
  14 C14            0.5646     3.5931    -1.6877 C.2     
  15 C15            0.6167     4.9411    -2.0367 C.2     
  16 C16            1.2889     5.8465    -1.2163 C.2     
  17 C17            1.8894     5.4065    -0.0385 C.2     
  18 N18           -1.1482     1.9295     0.1149 N.am    
  19 C19           -2.4675     1.2833     0.0289 C.3     
  20 C20           -3.3059     1.7342     1.2304 C.3     
  21 O21           -3.3016     3.1622     1.2980 O.3     
  22 C22           -2.0084     3.7343     1.5080 C.3     
  23 C23           -1.1034     3.3850     0.3264 C.3     
  24 H24            1.7742    -0.1964    -1.7418 H       
  25 H25            3.9094    -1.4431    -1.6801 H       
  26 H26            5.6745    -0.7889    -0.0717 H       
  27 H27            5.2808     1.0735     1.5041 H       
  28 H28            3.4287     2.3399     2.7858 H       
  29 H29            2.3011     4.2885     2.4428 H       
  30 H30            0.0445     2.8919    -2.3235 H       
  31 H31            0.1374     5.2842    -2.9417 H       
  32 H32            1.3455     6.8887    -1.4937 H       
  33 H33            2.4097     6.1089     0.5958 H       
  34 H34           -2.9620     1.5801    -0.8960 H       
  35 H35           -2.3478     0.2001     0.0505 H       
  36 H36           -4.3296     1.3784     1.1141 H       
  37 H37           -2.8793     1.3251     2.1462 H       
  38 H38           -2.0985     4.8174     1.5915 H       
  39 H39           -1.5770     3.3324     2.4248 H       
  40 H40           -0.0810     3.6948     0.5428 H       
  41 H41           -1.4590     3.8919    -0.5707 H       
@<TRIPOS>BOND
   1    1    2 2
   2    2    3 am
   3    2   18 am
   4    3    4 1
   5    3   13 1
   6    4    5 2
   7    4    9 1
   8    5    6 1
   9    5   24 1
  10    6    7 2
  11    6   25 1
  12    7    8 1
  13    7   26 1
  14    8    9 2
  15    8   27 1
  16    9   10 1
  17   10   11 2
  18   10   28 1
  19   11   12 1
  20   11   29 1
  21   12   13 2
  22   12   17 1
  23   13   14 1
  24   14   15 2
  25   14   30 1
  26   15   16 1
  27   15   31 1
  28   16   17 2
  29   16   32 1
  30   17   33 1
  31   18   19 1
  32   18   23 1
  33   19   20 1
  34   19   34 1
  35   19   35 1
  36   20   21 1
  37   20   36 1
  38   20   37 1
  39   21   22 1
  40   22   23 1
  41   22   38 1
  42   22   39 1
  43   23   40 1
  44   23   41 1

#	End of record

