#	Name: ASD03740258
#	Creating user name:	WinNT
#	Creation time:	15. 06. 2019 20:47

#	Modifying user name:	WinNT
#	Modification time:	15. 06. 2019 20:47

#	Program:	/corina/corina34_cracker 3.40 0067  02.08.2006

@<TRIPOS>MOLECULE
ASD03740258
  55   58    0    0    0
SMALL
NO_CHARGES


@<TRIPOS>ATOM
   1 C1            -0.0187     1.5258     0.0104 C.3     
   2 N2             2.8730    -0.5455    -2.4126 N.am    
   3 O3             2.3791     1.3431    -3.4880 O.2     
   4 S4             2.2227    -0.9369    -8.3461 S.o2    
   5 C5             0.0021    -0.0041     0.0020 C.3     
   6 N6             4.1254    -2.3132    -3.4752 N.am    
   7 O7             4.8287    -2.1187    -5.5770 O.2     
   8 S8            -4.0468     0.5789    -9.0854 S.o2    
   9 C9            -1.4333    -0.5336     0.0129 C.3     
  10 N10            3.5311    -2.6817    -1.4240 N.2     
  11 O11            2.4807    -2.3305    -8.2436 O.2     
  12 C12            0.7182    -0.4975    -1.2568 C.3     
  13 N13            3.1219    -0.1848    -7.1549 N.am    
  14 O14            2.4051    -0.1875    -9.5395 O.2     
  15 C15            2.1873    -0.0730    -1.2073 C.3     
  16 N16            1.3845    -0.3668    -5.5892 N.2     
  17 O17           -4.4397     0.6054    -7.7200 O.2     
  18 C18            2.9058     0.2508    -3.4982 C.2     
  19 N19           -2.8636    -0.5780    -9.1474 N.am    
  20 O20           -4.9620     0.1992   -10.1039 O.2     
  21 C21            3.6213    -0.2593    -4.7327 C.3     
  22 C22            4.2441    -1.6363    -4.6361 C.2     
  23 C23            4.5824    -3.5670    -3.1136 C.2     
  24 C24            4.2111    -3.7620    -1.8388 C.2     
  25 C25            3.4719    -1.7948    -2.3972 C.2     
  26 C26            2.6342    -0.2730    -5.8713 C.2     
  27 C27            0.5525    -0.6804    -7.8212 C.ar    
  28 C28            0.3389    -0.4252    -6.4618 C.ar    
  29 C29           -0.9699    -0.2279    -6.0126 C.ar    
  30 C30           -2.0198    -0.2807    -6.9037 C.ar    
  31 C31           -1.7911    -0.5299    -8.2518 C.ar    
  32 C32           -3.1985     2.1184    -9.5335 C.3     
  33 C33           -0.4909    -0.7310    -8.7081 C.ar    
  34 H34            1.0039     1.9031     0.0027 H       
  35 H35           -0.5459     1.8868    -0.8726 H       
  36 H36           -0.5289     1.8773     0.9072 H       
  37 H37            0.5293    -0.3651     0.8851 H       
  38 H38           -1.9605    -0.1726    -0.8702 H       
  39 H39           -1.4185    -1.6235     0.0069 H       
  40 H40           -1.9435    -0.1821     0.9097 H       
  41 H41            0.6556    -1.5845    -1.3079 H       
  42 H42            0.2444    -0.0644    -2.1377 H       
  43 H43            3.9441     0.2884    -7.3575 H       
  44 H44            2.6611    -0.5061    -0.3263 H       
  45 H45            2.2499     1.0140    -1.1561 H       
  46 H46           -2.9146    -1.2891    -9.8052 H       
  47 H47            4.4097     0.4505    -4.9829 H       
  48 H48            5.1416    -4.2521    -3.7335 H       
  49 H49            4.4147    -4.6442    -1.2499 H       
  50 H50           -1.1585    -0.0343    -4.9670 H       
  51 H51           -3.0292    -0.1274    -6.5514 H       
  52 H52           -2.3996     2.3146    -8.8184 H       
  53 H53           -2.7754     2.0223   -10.5335 H       
  54 H54           -3.9107     2.9435    -9.5181 H       
  55 H55           -0.3060    -0.9255    -9.7542 H       
@<TRIPOS>BOND
   1    1    5 1
   2    1   34 1
   3    1   35 1
   4    1   36 1
   5    2   15 1
   6    2   18 am
   7    2   25 1
   8    3   18 2
   9    4   11 2
  10    4   13 am
  11    4   14 2
  12    4   27 1
  13    5    9 1
  14    5   12 1
  15    5   37 1
  16    6   22 am
  17    6   23 1
  18    6   25 1
  19    7   22 2
  20    8   17 2
  21    8   19 am
  22    8   20 2
  23    8   32 1
  24    9   38 1
  25    9   39 1
  26    9   40 1
  27   10   24 1
  28   10   25 2
  29   12   15 1
  30   12   41 1
  31   12   42 1
  32   13   26 1
  33   13   43 1
  34   15   44 1
  35   15   45 1
  36   16   26 2
  37   16   28 1
  38   18   21 1
  39   19   31 1
  40   19   46 1
  41   21   22 1
  42   21   26 1
  43   21   47 1
  44   23   24 2
  45   23   48 1
  46   24   49 1
  47   27   28 ar
  48   27   33 ar
  49   28   29 ar
  50   29   30 ar
  51   29   50 1
  52   30   31 ar
  53   30   51 1
  54   31   33 ar
  55   32   52 1
  56   32   53 1
  57   32   54 1
  58   33   55 1

#	End of record

