#	Name: ASD05940037
#	Creating user name:	WinNT
#	Creation time:	15. 06. 2019 21:04

#	Modifying user name:	WinNT
#	Modification time:	15. 06. 2019 21:04

#	Program:	/corina/corina34_cracker 3.40 0067  02.08.2006

@<TRIPOS>MOLECULE
ASD05940037
  67   71    0    0    0
SMALL
NO_CHARGES


@<TRIPOS>ATOM
   1 N1            -0.0159     1.3192     0.0093 N.ar    
   2 C2             0.0021    -0.0041     0.0020 C.ar    
   3 N3             1.1312    -0.6916    -0.0120 N.ar    
   4 C4             2.3077    -0.0674    -0.0199 C.ar    
   5 C5             2.3332     1.3267    -0.0131 C.ar    
   6 C6             1.1160     2.0179     0.0022 C.ar    
   7 N7             3.4850    -0.7937    -0.0341 N.am    
   8 C8             4.6734    -0.1557    -0.0415 C.2     
   9 C9             4.7050     1.3351    -0.0348 C.2     
  10 N10            3.5408     2.0187    -0.0214 N.am    
  11 N11            1.0907     3.4041     0.0099 N.pl3   
  12 O12           -1.1746    -0.6758     0.0096 O.3     
  13 C13            3.4409    -2.2580    -0.0405 C.3     
  14 O14            5.7657     1.9276    -0.0414 O.2     
  15 C15           -2.3692     0.1082     0.0252 C.3     
  16 C16           -3.5870    -0.8179     0.0319 C.3     
  17 O17           -3.6099    -1.5660     1.2492 O.3     
  18 C18            3.4127    -2.7534    -1.4635 C.ar    
  19 C19            4.5986    -3.0160    -2.1253 C.ar    
  20 C20            2.2009    -2.9493    -2.1011 C.ar    
  21 C21            2.1693    -3.4033    -3.4041 C.ar    
  22 C22            3.3610    -3.6640    -4.0774 C.ar    
  23 C23            4.5787    -3.4695    -3.4287 C.ar    
  24 C24           -4.7140    -2.4668     1.3572 C.3     
  25 O25            5.7090    -0.7902    -0.0532 O.2     
  26 C26            3.3333    -4.1523    -5.4784 C.ar    
  27 C27            4.5248    -4.4129    -6.1516 C.ar    
  28 C28            4.4931    -4.8674    -7.4547 C.ar    
  29 C29            3.2815    -5.0637    -8.0920 C.ar    
  30 C30            2.0953    -4.8065    -7.4282 C.ar    
  31 C31            2.1151    -4.3573    -6.1235 C.ar    
  32 C32            5.7811    -5.1498    -8.1843 C.3     
  33 N33            6.1717    -6.5488    -7.9646 N.3     
  34 C34            7.2897    -6.9300    -8.8471 C.3     
  35 C35            8.4348    -7.4328    -7.9431 C.3     
  36 C36            7.6978    -7.8425    -6.6408 C.3     
  37 C37            6.5827    -6.7702    -6.5618 C.3     
  38 H38            3.5460     2.9887    -0.0172 H       
  39 H39            1.9218     3.9043     0.0047 H       
  40 H40            0.2420     3.8736     0.0205 H       
  41 H41            4.3242    -2.6503     0.4634 H       
  42 H42            2.5451    -2.5968     0.4799 H       
  43 H43           -2.3825     0.7324     0.9188 H       
  44 H44           -2.3994     0.7419    -0.8611 H       
  45 H45           -4.4967    -0.2225    -0.0458 H       
  46 H46           -3.5275    -1.5025    -0.8142 H       
  47 H47            5.5419    -2.8655    -1.6213 H       
  48 H48            1.2779    -2.7469    -1.5782 H       
  49 H49            1.2226    -3.5566    -3.9007 H       
  50 H50            5.5054    -3.6697    -3.9461 H       
  51 H51           -4.6778    -3.1856     0.5386 H       
  52 H52           -4.6592    -2.9963     2.3083 H       
  53 H53           -5.6470    -1.9056     1.3070 H       
  54 H54            5.4715    -4.2593    -5.6551 H       
  55 H55            3.2613    -5.4188    -9.1118 H       
  56 H56            1.1519    -4.9611    -7.9307 H       
  57 H57            1.1885    -4.1568    -5.6062 H       
  58 H58            5.6404    -4.9751    -9.2509 H       
  59 H59            6.5637    -4.4908    -7.8083 H       
  60 H60            6.9743    -7.7251    -9.5228 H       
  61 H61            7.6221    -6.0641    -9.4196 H       
  62 H62            8.9309    -8.2933    -8.3921 H       
  63 H63            9.1496    -6.6338    -7.7463 H       
  64 H64            7.2727    -8.8421    -6.7308 H       
  65 H65            8.3626    -7.7787    -5.7794 H       
  66 H66            6.9727    -5.8482    -6.1306 H       
  67 H67            5.7423    -7.1393    -5.9739 H       
@<TRIPOS>BOND
   1    1    2 ar
   2    1    6 ar
   3    2    3 ar
   4    2   12 1
   5    3    4 ar
   6    4    5 ar
   7    4    7 1
   8    5    6 ar
   9    5   10 1
  10    6   11 1
  11    7    8 am
  12    7   13 1
  13    8    9 1
  14    8   25 2
  15    9   10 am
  16    9   14 2
  17   10   38 1
  18   11   39 1
  19   11   40 1
  20   12   15 1
  21   13   18 1
  22   13   41 1
  23   13   42 1
  24   15   16 1
  25   15   43 1
  26   15   44 1
  27   16   17 1
  28   16   45 1
  29   16   46 1
  30   17   24 1
  31   18   19 ar
  32   18   20 ar
  33   19   23 ar
  34   19   47 1
  35   20   21 ar
  36   20   48 1
  37   21   22 ar
  38   21   49 1
  39   22   23 ar
  40   22   26 1
  41   23   50 1
  42   24   51 1
  43   24   52 1
  44   24   53 1
  45   26   27 ar
  46   26   31 ar
  47   27   28 ar
  48   27   54 1
  49   28   29 ar
  50   28   32 1
  51   29   30 ar
  52   29   55 1
  53   30   31 ar
  54   30   56 1
  55   31   57 1
  56   32   33 1
  57   32   58 1
  58   32   59 1
  59   33   34 1
  60   33   37 1
  61   34   35 1
  62   34   60 1
  63   34   61 1
  64   35   36 1
  65   35   62 1
  66   35   63 1
  67   36   37 1
  68   36   64 1
  69   36   65 1
  70   37   66 1
  71   37   67 1

#	End of record

