#	Name: ASD02240003
#	Creating user name:	WinNT
#	Creation time:	15. 06. 2019 20:20

#	Modifying user name:	WinNT
#	Modification time:	15. 06. 2019 20:20

#	Program:	/corina/corina34_cracker 3.40 0067  02.08.2006

@<TRIPOS>MOLECULE
ASD02240003
  42   42    0    0    0
SMALL
NO_CHARGES


@<TRIPOS>ATOM
   1 C1            -0.0187     1.5258     0.0104 C.3     
   2 C2             0.0021    -0.0041     0.0020 C.3     
   3 C3            -1.4333    -0.5336     0.0129 C.3     
   4 C4            -2.1733    -0.0268    -1.2266 C.3     
   5 C5            -2.1940     1.5030    -1.2182 C.3     
   6 C6            -0.7587     2.0326    -1.2291 C.3     
   7 O7            -0.7780     3.4615    -1.2212 O.3     
   8 O8             0.6932    -0.4774     1.1597 O.3     
   9 O9            -2.1022    -0.0728     1.1886 O.3     
  10 O10           -3.5139    -0.5214    -1.2165 O.3     
  11 O11           -2.8852     1.9764    -2.3759 O.3     
  12 O12            1.3220     2.0204     0.0003 O.3     
  13 P13           -4.1141    -1.4521    -2.3852 P.3     
  14 O14           -3.9445    -0.7756    -3.6906 O.2     
  15 O15           -3.3330    -2.8597    -2.4047 O.3     
  16 C16           -5.8870    -1.7451    -2.0785 C.3     
  17 C17           -6.4856    -2.5239    -3.2515 C.3     
  18 C18           -7.9736    -2.7699    -2.9941 C.3     
  19 O19           -8.6669    -1.5205    -2.9768 O.3     
  20 C20           -8.5440    -3.6543    -4.1047 C.3     
  21 O21           -9.9025    -3.9799    -3.8040 O.3     
  22 H22           -0.5289     1.8773     0.9072 H       
  23 H23            0.5123    -0.3556    -0.8948 H       
  24 H24           -1.4185    -1.6235     0.0069 H       
  25 H25           -1.6631    -0.3783    -2.1234 H       
  26 H26           -2.7042     1.8545    -0.3214 H       
  27 H27           -0.2485     1.6811    -2.1259 H       
  28 H28            0.0999     3.8667    -1.2274 H       
  29 H29            1.6114    -0.1800     1.2187 H       
  30 H30           -1.6869    -0.3571     2.0143 H       
  31 H31           -2.9371     2.9401    -2.4364 H       
  32 H32            1.3852     2.9853     0.0049 H       
  33 H33           -3.4011    -3.3588    -1.5793 H       
  34 H34           -6.0067    -2.3213    -1.1610 H       
  35 H35           -6.4011    -0.7893    -1.9769 H       
  36 H36           -6.3660    -1.9478    -4.1690 H       
  37 H37           -5.9716    -3.4798    -3.3531 H       
  38 H38           -8.0985    -3.2681    -2.0327 H       
  39 H39           -8.5989    -1.0214    -3.8022 H       
  40 H40           -8.5000    -3.1196    -5.0536 H       
  41 H41           -7.9580    -4.5706    -4.1765 H       
  42 H42          -10.3288    -4.5400    -4.4671 H       
@<TRIPOS>BOND
   1    1    2 1
   2    1   12 1
   3    1    6 1
   4    1   22 1
   5    2    3 1
   6    2    8 1
   7    2   23 1
   8    3    4 1
   9    3    9 1
  10    3   24 1
  11    4    5 1
  12    4   10 1
  13    4   25 1
  14    5    6 1
  15    5   11 1
  16    5   26 1
  17    6    7 1
  18    6   27 1
  19    7   28 1
  20    8   29 1
  21    9   30 1
  22   10   13 1
  23   11   31 1
  24   12   32 1
  25   13   14 2
  26   13   15 1
  27   13   16 1
  28   15   33 1
  29   16   17 1
  30   16   34 1
  31   16   35 1
  32   17   18 1
  33   17   36 1
  34   17   37 1
  35   18   19 1
  36   18   20 1
  37   18   38 1
  38   19   39 1
  39   20   21 1
  40   20   40 1
  41   20   41 1
  42   21   42 1

#	End of record

