#	Name: ASD01200003
#	Creating user name:	WinNT
#	Creation time:	15. 06. 2019 19:08

#	Modifying user name:	WinNT
#	Modification time:	15. 06. 2019 19:08

#	Program:	/corina/corina34_cracker 3.40 0067  02.08.2006

@<TRIPOS>MOLECULE
ASD01200003
  52   54    0    0    0
SMALL
NO_CHARGES


@<TRIPOS>ATOM
   1 N1            -0.0178     1.4608     0.0101 N.am    
   2 C2             0.0021    -0.0041     0.0020 C.3     
   3 C3             0.7304    -0.5033     1.2232 C.2     
   4 N4             0.5406    -1.7671     1.6514 N.am    
   5 C5             1.2119    -2.2272     2.7769 C.2     
   6 O6             1.4874     0.2321     1.8207 O.2     
   7 S7             2.3369    -1.2825     3.7456 S.3     
   8 C8             2.5892    -2.6140     4.7882 C.2     
   9 C9             1.8418    -3.6558     4.3663 C.2     
  10 N10            1.1023    -3.4158     3.2788 N.2     
  11 C11            0.7188    -0.4975    -1.2565 C.3     
  12 C12            1.8372    -4.9552     5.0544 C.2     
  13 O13            1.0708    -5.9618     4.5887 O.3     
  14 O14            2.5245    -5.1219     6.0432 O.2     
  15 C15            1.1159    -7.2165     5.3181 C.3     
  16 C16            1.0787     2.2274     0.0037 C.2     
  17 N17            0.7876     3.5407     0.0128 N.am    
  18 C18           -0.6816     3.6465     0.0267 C.3     
  19 C19           -1.1429     2.2026     0.0190 C.2     
  20 C20           -1.1578     4.3613     1.2930 C.3     
  21 O21           -2.2861     1.7990     0.0253 O.2     
  22 O22            2.2112     1.7864    -0.0088 O.2     
  23 C23           -0.0882    -0.0968    -2.4931 C.3     
  24 C24            0.6882    -0.4795    -3.7547 C.3     
  25 C25           -0.1187    -0.0789    -4.9913 C.3     
  26 C26           -1.4643    -0.8069    -4.9801 C.3     
  27 C27           -2.2407    -0.4242    -3.7185 C.3     
  28 C28           -1.4338    -0.8248    -2.4819 C.3     
  29 H29           -1.0205    -0.3813     0.0093 H       
  30 H30           -0.0648    -2.3553     1.1735 H       
  31 H31            3.2433    -2.6206     5.6476 H       
  32 H32            1.7109    -0.0491    -1.3090 H       
  33 H33            0.8121    -1.5828    -1.2195 H       
  34 H34            0.4552    -7.9392     4.8392 H       
  35 H35            2.1360    -7.6006     5.3174 H       
  36 H36            0.7905    -7.0516     6.3452 H       
  37 H37            1.4216     4.2749     0.0110 H       
  38 H38           -1.0373     4.1644    -0.8640 H       
  39 H39           -0.7520     5.3728     1.3136 H       
  40 H40           -2.2468     4.4066     1.2969 H       
  41 H41           -0.8137     3.8138     2.1704 H       
  42 H42           -0.2575     0.9799    -2.4833 H       
  43 H43            1.6469     0.0391    -3.7627 H       
  44 H44            0.8576    -1.5562    -3.7645 H       
  45 H45           -0.2880     0.9979    -4.9815 H       
  46 H46            0.4345    -0.3515    -5.8901 H       
  47 H47           -2.0392    -0.5214    -5.8611 H       
  48 H48           -1.2950    -1.8836    -4.9900 H       
  49 H49           -2.4101     0.6526    -3.7087 H       
  50 H50           -3.1994    -0.9428    -3.7106 H       
  51 H51           -1.2645    -1.9016    -2.4917 H       
  52 H52           -1.9869    -0.5522    -1.5831 H       
@<TRIPOS>BOND
   1    1    2 1
   2    1   16 am
   3    1   19 am
   4    2    3 1
   5    2   11 1
   6    2   29 1
   7    3    4 am
   8    3    6 2
   9    4    5 1
  10    4   30 1
  11    5    7 1
  12    5   10 2
  13    7    8 1
  14    8    9 2
  15    8   31 1
  16    9   10 1
  17    9   12 1
  18   11   23 1
  19   11   32 1
  20   11   33 1
  21   12   13 1
  22   12   14 2
  23   13   15 1
  24   15   34 1
  25   15   35 1
  26   15   36 1
  27   16   17 am
  28   16   22 2
  29   17   18 1
  30   17   37 1
  31   18   19 1
  32   18   20 1
  33   18   38 1
  34   19   21 2
  35   20   39 1
  36   20   40 1
  37   20   41 1
  38   23   24 1
  39   23   28 1
  40   23   42 1
  41   24   25 1
  42   24   43 1
  43   24   44 1
  44   25   26 1
  45   25   45 1
  46   25   46 1
  47   26   27 1
  48   26   47 1
  49   26   48 1
  50   27   28 1
  51   27   49 1
  52   27   50 1
  53   28   51 1
  54   28   52 1

#	End of record

