#	Name: ASD01917986
#	Creating user name:	WinNT
#	Creation time:	15. 06. 2019 20:10

#	Modifying user name:	WinNT
#	Modification time:	15. 06. 2019 20:10

#	Program:	/corina/corina34_cracker 3.40 0067  02.08.2006

@<TRIPOS>MOLECULE
ASD01917986
  37   39    0    0    0
SMALL
NO_CHARGES


@<TRIPOS>ATOM
   1 C1            -0.1418     1.1331    -0.1230 C.ar    
   2 C2            -0.1968    -0.2093    -0.4739 C.ar    
   3 C3             0.9648    -0.9564    -0.5542 C.ar    
   4 C4             2.1869    -0.3712    -0.2856 C.ar    
   5 C5             2.2511     0.9775     0.0678 C.ar    
   6 C6             1.0783     1.7293     0.1482 C.ar    
   7 O7            -1.2854     1.8636    -0.0512 O.3     
   8 C8            -2.0672     1.7182     1.0510 C.ar    
   9 C9             3.5570     1.6072     0.3563 C.2     
  10 N10            4.6883     0.8787     0.2784 N.am    
  11 O11            3.6105     2.7819     0.6639 O.2     
  12 N12           -3.9842     2.2669     2.2738 N.ar    
  13 C13           -3.2510     2.4364     1.1859 C.ar    
  14 C14           -1.7072     0.8431     2.0708 C.ar    
  15 N15           -2.4949     0.7299     3.1274 N.ar    
  16 C16           -3.6062     1.4320     3.2209 C.ar    
  17 C17            5.9265     1.4949     0.4465 C.ar    
  18 N18            5.9820     2.7703     0.7989 N.ar    
  19 C19            7.0910     0.7641     0.2483 C.ar    
  20 C20            8.3167     1.3901     0.4191 C.ar    
  21 C21            8.3299     2.7322     0.7840 C.ar    
  22 C22            7.1327     3.3932     0.9690 C.ar    
  23 Cl23           0.8863    -2.6342    -0.9931 Cl      
  24 C24            9.6375     3.4550     0.9811 C.3     
  25 F25            9.4708     0.7121     0.2357 F       
  26 F26           10.0427     4.0248    -0.2307 F       
  27 H27           -1.1498    -0.6718    -0.6845 H       
  28 H28            3.0920    -0.9570    -0.3488 H       
  29 H29            1.1221     2.7734     0.4208 H       
  30 H30            4.6404    -0.0745     0.1053 H       
  31 H31           -3.5666     3.1225     0.4139 H       
  32 H32           -0.7981     0.2643     2.0006 H       
  33 H33           -4.2273     1.3168     4.0970 H       
  34 H34            7.0427    -0.2771    -0.0344 H       
  35 H35            7.1377     4.4341     1.2567 H       
  36 H36            9.5100     4.2397     1.7268 H       
  37 H37           10.3950     2.7493     1.3220 H       
@<TRIPOS>BOND
   1    1    2 ar
   2    1    6 ar
   3    1    7 1
   4    2    3 ar
   5    2   27 1
   6    3    4 ar
   7    3   23 1
   8    4    5 ar
   9    4   28 1
  10    5    6 ar
  11    5    9 1
  12    6   29 1
  13    7    8 1
  14    8   14 ar
  15    8   13 ar
  16    9   10 am
  17    9   11 2
  18   10   17 1
  19   10   30 1
  20   12   13 ar
  21   12   16 ar
  22   13   31 1
  23   14   15 ar
  24   14   32 1
  25   15   16 ar
  26   16   33 1
  27   17   19 ar
  28   17   18 ar
  29   18   22 ar
  30   19   20 ar
  31   19   34 1
  32   20   21 ar
  33   20   25 1
  34   21   22 ar
  35   21   24 1
  36   22   35 1
  37   24   26 1
  38   24   36 1
  39   24   37 1

#	End of record

