#	Name: ASD04880457
#	Creating user name:	WinNT
#	Creation time:	15. 06. 2019 20:53

#	Modifying user name:	WinNT
#	Modification time:	15. 06. 2019 20:53

#	Program:	/corina/corina34_cracker 3.40 0067  02.08.2006

@<TRIPOS>MOLECULE
ASD04880457
  41   43    0    0    0
SMALL
NO_CHARGES


@<TRIPOS>ATOM
   1 C1             0.2929     2.0888     0.7158 C.2     
   2 O2             0.2147     0.8878     0.8896 O.2     
   3 N3             1.4913     2.6592     0.4813 N.am    
   4 N4             1.7016     3.9961     0.1497 N.2     
   5 C5             2.9403     4.3060    -0.0270 C.2     
   6 C6             3.8025     3.0826     0.1879 C.3     
   7 C7             2.7918     1.9731     0.5399 C.3     
   8 C8             3.4389     5.6453    -0.3838 C.ar    
   9 C9             2.5358     6.6790    -0.6725 C.ar    
  10 C10            3.0121     7.9341    -1.0068 C.ar    
  11 C11            4.3791     8.1680    -1.0565 C.ar    
  12 C12            5.2755     7.1452    -0.7713 C.ar    
  13 C13            4.8131     5.8926    -0.4305 C.ar    
  14 O14            1.1984     6.4485    -0.6244 O.3     
  15 C15            0.3403     7.5253    -1.0068 C.3     
  16 F16            0.6734     7.9514    -2.2970 F       
  17 F17           -0.9895     7.0911    -0.9879 F       
  18 F18            0.4969     8.5875    -0.1099 F       
  19 O19            4.8427     9.4017    -1.3856 O.3     
  20 C20            6.2609     9.5743    -1.4181 C.3     
  21 C21           -0.9270     2.9222     0.7557 C.ar    
  22 C22           -2.1837     2.3212     0.8465 C.ar    
  23 C23           -3.3198     3.1065     0.8832 C.ar    
  24 C24           -3.2124     4.4873     0.8297 C.ar    
  25 C25           -1.9693     5.0869     0.7398 C.ar    
  26 C26           -0.8269     4.3137     0.7085 C.ar    
  27 F27           -4.5374     2.5276     0.9711 F       
  28 H28            4.3471     2.8339    -0.7229 H       
  29 H29            4.4931     3.2423     1.0160 H       
  30 H30            2.9769     1.5869     1.5422 H       
  31 H31            2.8353     1.1700    -0.1958 H       
  32 H32            2.3197     8.7324    -1.2297 H       
  33 H33            6.3381     7.3339    -0.8125 H       
  34 H34            5.5126     5.1014    -0.2044 H       
  35 H35            6.6930     8.8937    -2.1517 H       
  36 H36            6.4955    10.6024    -1.6939 H       
  37 H37            6.6759     9.3585    -0.4336 H       
  38 H38           -2.2676     1.2453     0.8875 H       
  39 H39           -4.1030     5.0975     0.8580 H       
  40 H40           -1.8923     6.1634     0.6984 H       
  41 H41            0.1430     4.7842     0.6427 H       
@<TRIPOS>BOND
   1    1    2 2
   2    1    3 am
   3    1   21 1
   4    3    4 1
   5    3    7 1
   6    4    5 2
   7    5    6 1
   8    5    8 1
   9    6    7 1
  10    6   28 1
  11    6   29 1
  12    7   30 1
  13    7   31 1
  14    8    9 ar
  15    8   13 ar
  16    9   10 ar
  17    9   14 1
  18   10   11 ar
  19   10   32 1
  20   11   12 ar
  21   11   19 1
  22   12   13 ar
  23   12   33 1
  24   13   34 1
  25   14   15 1
  26   15   16 1
  27   15   17 1
  28   15   18 1
  29   19   20 1
  30   20   35 1
  31   20   36 1
  32   20   37 1
  33   21   22 ar
  34   21   26 ar
  35   22   23 ar
  36   22   38 1
  37   23   24 ar
  38   23   27 1
  39   24   25 ar
  40   24   39 1
  41   25   26 ar
  42   25   40 1
  43   26   41 1

#	End of record

