#	Name: ASD01120179
#	Creating user name:	WinNT
#	Creation time:	15. 06. 2019 18:59

#	Modifying user name:	WinNT
#	Modification time:	15. 06. 2019 18:59

#	Program:	/corina/corina34_cracker 3.40 0067  02.08.2006

@<TRIPOS>MOLECULE
ASD01120179
  25   26    0    0    0
SMALL
NO_CHARGES


@<TRIPOS>ATOM
   1 C1            -0.0168     1.3861     0.0097 C.ar    
   2 C2             0.0021    -0.0041     0.0020 C.ar    
   3 C3             1.1973    -0.6901    -0.0131 C.ar    
   4 C4             2.3989     0.0124    -0.0207 C.ar    
   5 C5             2.3778     1.4210    -0.0130 C.ar    
   6 C6             1.1489     2.0969     0.0023 C.ar    
   7 N7             3.7167    -0.3792    -0.0354 N.pl3   
   8 C8             4.5159     0.7490    -0.0370 C.2     
   9 C9             3.7245     1.8548    -0.0235 C.2     
  10 C10            5.9840     0.7526    -0.0502 C.2     
  11 Cl11           1.1102     3.8324     0.0115 Cl      
  12 Cl12          -1.4943    -0.8842     0.0121 Cl      
  13 C13            4.1972     3.2858    -0.0203 C.3     
  14 C14            4.3418     3.7702    -1.4400 C.2     
  15 O15            6.6611    -0.4136    -0.0627 O.3     
  16 O16            6.5894     1.8070    -0.0500 O.2     
  17 O17            4.0871     3.0295    -2.3600 O.2     
  18 O18            4.7534     5.0246    -1.6825 O.3     
  19 H19           -0.9620     1.9084     0.0170 H       
  20 H20            1.2015    -1.7701    -0.0185 H       
  21 H21            4.0335    -1.2960    -0.0430 H       
  22 H22            3.4708     3.9072     0.5034 H       
  23 H23            5.1609     3.3490     0.4850 H       
  24 H24            7.6266    -0.3606    -0.0711 H       
  25 H25            4.8309     5.2898    -2.6092 H       
@<TRIPOS>BOND
   1    1    2 ar
   2    1    6 ar
   3    1   19 1
   4    2    3 ar
   5    2   12 1
   6    3    4 ar
   7    3   20 1
   8    4    5 ar
   9    4    7 1
  10    5    6 ar
  11    5    9 1
  12    6   11 1
  13    7    8 1
  14    7   21 1
  15    8    9 2
  16    8   10 1
  17    9   13 1
  18   10   15 1
  19   10   16 2
  20   13   14 1
  21   13   22 1
  22   13   23 1
  23   14   17 2
  24   14   18 1
  25   15   24 1
  26   18   25 1

#	End of record

