#	Name: ASD01208482
#	Creating user name:	WinNT
#	Creation time:	15. 06. 2019 19:09

#	Modifying user name:	WinNT
#	Modification time:	15. 06. 2019 19:09

#	Program:	/corina/corina34_cracker 3.40 0067  02.08.2006

@<TRIPOS>MOLECULE
ASD01208482
  56   58    0    0    0
SMALL
NO_CHARGES


@<TRIPOS>ATOM
   1 N1            -0.0158     1.3729     0.0368 N.am    
   2 C2             0.0027    -0.0044     0.0265 C.2     
   3 C3             1.3043    -0.4115     0.0211 C.2     
   4 C4             2.1112     0.7317     0.0281 C.2     
   5 C5             1.2888     1.8224     0.0378 C.2     
   6 C6            -1.1184     2.1481     0.0396 C.2     
   7 O7            -1.6180     2.4894     1.0925 O.2     
   8 O8            -1.6656     2.5438    -1.1244 O.3     
   9 S9             3.3889     3.7871     0.0481 S.3     
  10 C10            1.7182     3.2281     0.0470 C.2     
  11 N11            0.9229     4.2633     0.0553 N.2     
  12 C12            1.4882     5.4482     0.0624 C.2     
  13 C13            2.8255     5.4570     0.0603 C.2     
  14 C14           -1.1814    -0.8871     0.0229 C.ar    
  15 C15           -2.4648    -0.3371     0.0301 C.ar    
  16 C16           -3.5720    -1.1684     0.0262 C.ar    
  17 C17           -3.4077    -2.5464     0.0155 C.ar    
  18 C18           -2.1344    -3.0974     0.0087 C.ar    
  19 C19           -1.0210    -2.2736     0.0063 C.ar    
  20 O20           -1.9794    -4.4476    -0.0013 O.3     
  21 C21           -0.6463    -4.9466    -0.1280 C.3     
  22 C22           -0.6833    -6.3527    -0.7300 C.3     
  23 C23            0.0117    -4.9999     1.2522 C.3     
  24 O24           -1.3354    -7.2427     0.1782 O.3     
  25 C25           -1.4234    -8.5898    -0.2906 C.3     
  26 O26           -4.8216    -0.6342     0.0333 O.3     
  27 C27           -2.8519     3.3772    -1.0454 C.3     
  28 C28           -2.5213     4.6647    -0.2878 C.3     
  29 C29           -3.3264     3.7242    -2.4579 C.3     
  30 C30           -3.9582     2.6209    -0.3071 C.3     
  31 H31            1.6506    -1.4345     0.0132 H       
  32 H32            3.1911     0.7487     0.0263 H       
  33 H33            0.9089     6.3597     0.0692 H       
  34 H34            3.4525     6.3363     0.0649 H       
  35 H35           -2.5936     0.7352     0.0392 H       
  36 H36           -4.2736    -3.1919     0.0128 H       
  37 H37           -0.0302    -2.7033    -0.0034 H       
  38 H38           -0.0720    -4.2876    -0.7792 H       
  39 H39           -1.2304    -6.3302    -1.6725 H       
  40 H40            0.3349    -6.6981    -0.9091 H       
  41 H41            1.0285    -5.3805     1.1555 H       
  42 H42            0.0380    -3.9981     1.6811 H       
  43 H43           -0.5626    -5.6589     1.9033 H       
  44 H44           -1.9310    -9.2015     0.4552 H       
  45 H45           -1.9859    -8.6136    -1.2240 H       
  46 H46           -0.4206    -8.9816    -0.4606 H       
  47 H47           -5.1853    -0.4726    -0.8481 H       
  48 H48           -1.7331     5.2035    -0.8137 H       
  49 H49           -3.4119     5.2903    -0.2285 H       
  50 H50           -2.1832     4.4175     0.7185 H       
  51 H51           -3.5620     2.8070    -2.9977 H       
  52 H52           -4.2170     4.3498    -2.3987 H       
  53 H53           -2.5383     4.2630    -2.9839 H       
  54 H54           -3.6202     2.3737     0.6992 H       
  55 H55           -4.8489     3.2465    -0.2478 H       
  56 H56           -4.1938     1.7037    -0.8468 H       
@<TRIPOS>BOND
   1    1    2 1
   2    1    5 1
   3    1    6 am
   4    2    3 2
   5    2   14 1
   6    3    4 1
   7    3   31 1
   8    4    5 2
   9    4   32 1
  10    5   10 1
  11    6    7 2
  12    6    8 1
  13    8   27 1
  14    9   10 1
  15    9   13 1
  16   10   11 2
  17   11   12 1
  18   12   13 2
  19   12   33 1
  20   13   34 1
  21   14   15 ar
  22   14   19 ar
  23   15   16 ar
  24   15   35 1
  25   16   17 ar
  26   16   26 1
  27   17   18 ar
  28   17   36 1
  29   18   19 ar
  30   18   20 1
  31   19   37 1
  32   20   21 1
  33   21   22 1
  34   21   23 1
  35   21   38 1
  36   22   24 1
  37   22   39 1
  38   22   40 1
  39   23   41 1
  40   23   42 1
  41   23   43 1
  42   24   25 1
  43   25   44 1
  44   25   45 1
  45   25   46 1
  46   26   47 1
  47   27   28 1
  48   27   30 1
  49   27   29 1
  50   28   48 1
  51   28   49 1
  52   28   50 1
  53   29   51 1
  54   29   52 1
  55   29   53 1
  56   30   54 1
  57   30   55 1
  58   30   56 1

#	End of record

