#	Name: ASD00191003
#	Creating user name:	WinNT
#	Creation time:	15. 06. 2019 18:33

#	Modifying user name:	WinNT
#	Modification time:	15. 06. 2019 18:33

#	Program:	/corina/corina34_cracker 3.40 0067  02.08.2006

@<TRIPOS>MOLECULE
ASD00191003
  49   52    0    0    0
SMALL
NO_CHARGES


@<TRIPOS>ATOM
   1 C1            -0.4716     1.6580     0.3270 C.3     
   2 C2            -1.0287     0.2796     0.7238 C.3     
   3 C3             0.1471    -0.7147     0.6298 C.3     
   4 C4             1.4075     0.1718     0.7864 C.3     
   5 C5             1.0233     1.4532     0.0058 C.3     
   6 C6            -1.1947     2.1764    -0.8892 C.2     
   7 O7            -2.0742     1.5153    -1.3995 O.2     
   8 N8            -0.8641     3.3747    -1.4100 N.am    
   9 N9            -2.6095     4.6391    -4.9727 N.ar    
  10 C10           -2.3549     3.3610    -4.7722 C.ar    
  11 C11           -1.7693     2.9065    -3.5864 C.ar    
  12 C12           -1.4470     3.8012    -2.5994 C.ar    
  13 C13           -1.7244     5.1725    -2.8237 C.ar    
  14 C14           -1.4216     6.1427    -1.8597 C.ar    
  15 C15           -1.7022     7.4532    -2.1103 C.ar    
  16 C16           -2.2867     7.8398    -3.3128 C.ar    
  17 C17           -2.5936     6.9214    -4.2709 C.ar    
  18 C18           -2.3183     5.5623    -4.0475 C.ar    
  19 N19           -2.6758     2.4441    -5.7625 N.pl3   
  20 C20           -2.4008     1.0196    -5.5589 C.3     
  21 C21           -2.8400     0.2444    -6.7743 C.ar    
  22 C22           -1.9549     0.0297    -7.8142 C.ar    
  23 C23           -2.3579    -0.6813    -8.9291 C.ar    
  24 C24           -3.6457    -1.1780    -9.0039 C.ar    
  25 C25           -4.5305    -0.9641    -7.9635 C.ar    
  26 C26           -4.1263    -0.2568    -6.8468 C.ar    
  27 H27           -0.5831     2.3582     1.1549 H       
  28 H28           -1.4106     0.3108     1.7443 H       
  29 H29           -1.8221    -0.0144     0.0366 H       
  30 H30            0.0930    -1.4467     1.4356 H       
  31 H31            0.1489    -1.2127    -0.3398 H       
  32 H32            1.5916     0.3996     1.8363 H       
  33 H33            2.2761    -0.3089     0.3362 H       
  34 H34            1.1667     1.3053    -1.0646 H       
  35 H35            1.6087     2.3033     0.3562 H       
  36 H36           -0.2197     3.9398    -0.9557 H       
  37 H37           -1.5724     1.8536    -3.4485 H       
  38 H38           -0.9686     5.8541    -0.9227 H       
  39 H39           -1.4684     8.2004    -1.3664 H       
  40 H40           -2.5005     8.8837    -3.4888 H       
  41 H41           -3.0473     7.2371    -5.1988 H       
  42 H42           -3.0823     2.7461    -6.5898 H       
  43 H43           -1.3318     0.8747    -5.4023 H       
  44 H44           -2.9473     0.6653    -4.6849 H       
  45 H45           -0.9488     0.4178    -7.7558 H       
  46 H46           -1.6666    -0.8485    -9.7419 H       
  47 H47           -3.9608    -1.7329    -9.8752 H       
  48 H48           -5.5368    -1.3519    -8.0221 H       
  49 H49           -4.8175    -0.0897    -6.0340 H       
@<TRIPOS>BOND
   1    1    2 1
   2    1    5 1
   3    1    6 1
   4    1   27 1
   5    2    3 1
   6    2   28 1
   7    2   29 1
   8    3    4 1
   9    3   30 1
  10    3   31 1
  11    4    5 1
  12    4   32 1
  13    4   33 1
  14    5   34 1
  15    5   35 1
  16    6    7 2
  17    6    8 am
  18    8   12 1
  19    8   36 1
  20    9   10 ar
  21    9   18 ar
  22   10   11 ar
  23   10   19 1
  24   11   12 ar
  25   11   37 1
  26   12   13 ar
  27   13   14 ar
  28   13   18 ar
  29   14   15 ar
  30   14   38 1
  31   15   16 ar
  32   15   39 1
  33   16   17 ar
  34   16   40 1
  35   17   18 ar
  36   17   41 1
  37   19   20 1
  38   19   42 1
  39   20   21 1
  40   20   43 1
  41   20   44 1
  42   21   22 ar
  43   21   26 ar
  44   22   23 ar
  45   22   45 1
  46   23   24 ar
  47   23   46 1
  48   24   25 ar
  49   24   47 1
  50   25   26 ar
  51   25   48 1
  52   26   49 1

#	End of record

