#	Name: ASD01948158
#	Creating user name:	WinNT
#	Creation time:	15. 06. 2019 20:13

#	Modifying user name:	WinNT
#	Modification time:	15. 06. 2019 20:13

#	Program:	/corina/corina34_cracker 3.40 0067  02.08.2006

@<TRIPOS>MOLECULE
ASD01948158
  50   53    0    0    0
SMALL
NO_CHARGES


@<TRIPOS>ATOM
   1 C1             1.8002     1.4195    -1.0469 C.ar    
   2 C2             1.5987     0.0464    -1.1440 C.ar    
   3 C3             1.7719    -0.5929    -2.3637 C.ar    
   4 C4             2.1439     0.1351    -3.4777 C.ar    
   5 C5             2.3443     1.5002    -3.3793 C.ar    
   6 C6             2.1672     2.1429    -2.1664 C.ar    
   7 N7             1.2224    -0.6887    -0.0143 N.pl3   
   8 C8             3.6321    -2.2824    -0.4412 C.2     
   9 C9             2.3522    -2.8722    -0.2921 C.2     
  10 C10            1.1521    -2.0657    -0.0788 C.2     
  11 N11            4.6884    -3.1035    -0.6402 N.am    
  12 F12            1.6322     2.0459     0.1382 F       
  13 C13            2.2383    -4.2685    -0.3510 C.2     
  14 N14            1.0116    -4.8541    -0.2088 N.am    
  15 C15           -0.0975    -4.1218    -0.0123 C.2     
  16 C16           -0.0587    -2.7265     0.0572 C.2     
  17 C17            4.5113    -4.4444    -0.6928 C.2     
  18 N18            3.3413    -5.0040    -0.5463 N.2     
  19 O19            3.7757    -1.0734    -0.3965 O.2     
  20 C20            0.9037    -6.3137    -0.2719 C.3     
  21 O21           -1.1699    -4.6915     0.1085 O.2     
  22 Br22           2.8539     2.4915    -4.9068 Br      
  23 C23            6.0307    -2.5387    -0.8002 C.3     
  24 C24            6.7025    -2.4245     0.5697 C.3     
  25 C25            8.1272    -1.8297     0.4408 C.3     
  26 O26            6.0420    -1.4307     1.3897 O.3     
  27 C27            7.0522    -0.9822     2.3088 C.3     
  28 O28            8.3418    -1.2154     1.7276 O.3     
  29 C29            6.8733     0.5130     2.5797 C.3     
  30 C30            6.9326    -1.7573     3.6225 C.3     
  31 H31            1.6165    -1.6588    -2.4420 H       
  32 H32            2.2787    -0.3625    -4.4267 H       
  33 H33            2.3241     3.2089    -2.0926 H       
  34 H34            1.0111    -0.2306     0.8142 H       
  35 H35           -0.9679    -2.1658     0.2164 H       
  36 H36            5.3726    -5.0760    -0.8529 H       
  37 H37            1.0208    -6.7303     0.7285 H       
  38 H38           -0.0738    -6.5890    -0.6680 H       
  39 H39            1.6838    -6.7079    -0.9233 H       
  40 H40            6.6242    -3.1888    -1.4429 H       
  41 H41            5.9572    -1.5496    -1.2524 H       
  42 H42            6.7273    -3.3916     1.0717 H       
  43 H43            8.8590    -2.6178     0.2633 H       
  44 H44            8.1628    -1.0836    -0.3530 H       
  45 H45            5.8878     0.6887     3.0111 H       
  46 H46            7.6404     0.8503     3.2768 H       
  47 H47            6.9642     1.0652     1.6444 H       
  48 H48            7.0658    -2.8218     3.4297 H       
  49 H49            7.6996    -1.4152     4.3173 H       
  50 H50            5.9473    -1.5871     4.0564 H       
@<TRIPOS>BOND
   1    1    2 ar
   2    1   12 1
   3    1    6 ar
   4    2    3 ar
   5    2    7 1
   6    3    4 ar
   7    3   31 1
   8    4    5 ar
   9    4   32 1
  10    5    6 ar
  11    5   22 1
  12    6   33 1
  13    7   10 1
  14    7   34 1
  15    8    9 1
  16    8   19 2
  17    8   11 am
  18    9   10 1
  19    9   13 2
  20   10   16 2
  21   11   17 1
  22   11   23 1
  23   13   14 1
  24   13   18 1
  25   14   15 am
  26   14   20 1
  27   15   16 1
  28   15   21 2
  29   16   35 1
  30   17   18 2
  31   17   36 1
  32   20   37 1
  33   20   38 1
  34   20   39 1
  35   23   24 1
  36   23   40 1
  37   23   41 1
  38   24   25 1
  39   24   26 1
  40   24   42 1
  41   25   28 1
  42   25   43 1
  43   25   44 1
  44   26   27 1
  45   27   28 1
  46   27   29 1
  47   27   30 1
  48   29   45 1
  49   29   46 1
  50   29   47 1
  51   30   48 1
  52   30   49 1
  53   30   50 1

#	End of record

