#	Name: ASD03331271
#	Creating user name:	WinNT
#	Creation time:	15. 06. 2019 20:38

#	Modifying user name:	WinNT
#	Modification time:	15. 06. 2019 20:38

#	Program:	/corina/corina34_cracker 3.40 0067  02.08.2006

@<TRIPOS>MOLECULE
ASD03331271
  45   48    0    0    0
SMALL
NO_CHARGES


@<TRIPOS>ATOM
   1 N1            -0.0470     1.4918     0.5554 N.am    
   2 C2            -0.0018     0.1404     1.1341 C.3     
   3 C3             0.6010    -0.8133     0.0971 C.3     
   4 N4             1.8963    -0.2867    -0.3532 N.3     
   5 C5             1.7391     1.0068    -1.0315 C.3     
   6 C6             1.1830     2.0350    -0.0407 C.3     
   7 C7            -1.1867     2.2111     0.5660 C.2     
   8 O8            -2.2180     1.7101     0.9703 O.2     
   9 N9            -1.1831     3.4859     0.1284 N.am    
  10 C10           -2.3816     4.1942     0.0332 C.ar    
  11 C11           -2.4170     5.5714     0.2459 C.ar    
  12 C12           -3.6219     6.2349     0.1426 C.ar    
  13 N13           -4.7304     5.5823    -0.1527 N.ar    
  14 C14           -4.7379     4.2792    -0.3610 C.ar    
  15 C15           -3.5734     3.5438    -0.2826 C.ar    
  16 C16            2.5861    -1.2539    -1.2173 C.3     
  17 C17            3.7824    -0.5948    -1.8541 C.ar    
  18 C18            5.0101    -0.6343    -1.2206 C.ar    
  19 C19            6.1106    -0.0306    -1.8007 C.ar    
  20 C20            5.9847     0.6158    -3.0191 C.ar    
  21 C21            4.7473     0.6553    -3.6579 C.ar    
  22 C22            3.6506     0.0435    -3.0737 C.ar    
  23 O23            6.8951     1.2786    -3.7906 O.3     
  24 C24            6.2974     1.3704    -5.0973 C.3     
  25 O25            4.8829     1.3428    -4.8293 O.3     
  26 H26            0.6187     0.1464     2.0302 H       
  27 H27           -1.0114    -0.1837     1.3865 H       
  28 H28            0.7441    -1.7959     0.5465 H       
  29 H29           -0.0735    -0.8974    -0.7551 H       
  30 H30            2.7077     1.3441    -1.4005 H       
  31 H31            1.0488     0.8973    -1.8679 H       
  32 H32            0.9567     2.9635    -0.5650 H       
  33 H33            1.9174     2.2232     0.7425 H       
  34 H34           -0.3475     3.9109    -0.1204 H       
  35 H35           -1.5137     6.1114     0.4885 H       
  36 H36           -3.6588     7.3019     0.3057 H       
  37 H37           -5.6667     3.7828    -0.6004 H       
  38 H38           -3.5857     2.4784    -0.4590 H       
  39 H39            2.9149    -2.1046    -0.6204 H       
  40 H40            1.9039    -1.5976    -1.9948 H       
  41 H41            5.1100    -1.1375    -0.2702 H       
  42 H42            7.0687    -0.0627    -1.3032 H       
  43 H43            2.6902     0.0722    -3.5669 H       
  44 H44            6.5772     2.3059    -5.5816 H       
  45 H45            6.5874     0.5181    -5.7119 H       
@<TRIPOS>BOND
   1    1    2 1
   2    1    6 1
   3    1    7 am
   4    2    3 1
   5    2   26 1
   6    2   27 1
   7    3    4 1
   8    3   28 1
   9    3   29 1
  10    4    5 1
  11    4   16 1
  12    5    6 1
  13    5   30 1
  14    5   31 1
  15    6   32 1
  16    6   33 1
  17    7    8 2
  18    7    9 am
  19    9   10 1
  20    9   34 1
  21   10   11 ar
  22   10   15 ar
  23   11   12 ar
  24   11   35 1
  25   12   13 ar
  26   12   36 1
  27   13   14 ar
  28   14   15 ar
  29   14   37 1
  30   15   38 1
  31   16   17 1
  32   16   39 1
  33   16   40 1
  34   17   18 ar
  35   17   22 ar
  36   18   19 ar
  37   18   41 1
  38   19   20 ar
  39   19   42 1
  40   20   21 ar
  41   20   23 1
  42   21   22 ar
  43   21   25 1
  44   22   43 1
  45   23   24 1
  46   24   25 1
  47   24   44 1
  48   24   45 1

#	End of record

