#	Name: ASD01230881
#	Creating user name:	WinNT
#	Creation time:	15. 06. 2019 19:15

#	Modifying user name:	WinNT
#	Modification time:	15. 06. 2019 19:15

#	Program:	/corina/corina34_cracker 3.40 0067  02.08.2006

@<TRIPOS>MOLECULE
ASD01230881
  45   46    0    0    0
SMALL
NO_CHARGES


@<TRIPOS>ATOM
   1 O1            -0.0174     1.4305     0.0099 O.3     
   2 B2             0.0021    -0.0041     0.0020 Du      
   3 O3             1.0670    -0.3534    -0.8937 O.3     
   4 C4             2.1089     0.6053    -0.6139 C.3     
   5 C5             1.3736     1.8147    -0.0013 C.3     
   6 C6            -0.9361    -0.9782     0.7993 C.2     
   7 C7            -0.7827    -2.3109     0.6778 C.2     
   8 C8            -1.6623    -3.2242     1.4252 C.ar    
   9 C9            -1.5061    -4.6086     1.3017 C.ar    
  10 C10           -2.3340    -5.4575     2.0052 C.ar    
  11 C11           -3.3180    -4.9430     2.8316 C.ar    
  12 C12           -3.4791    -3.5743     2.9588 C.ar    
  13 C13           -2.6548    -2.7121     2.2671 C.ar    
  14 C14           -4.2189    -5.8781     3.5964 C.3     
  15 C15           -4.0625    -5.6234     5.0969 C.3     
  16 C16           -5.6727    -5.6346     3.1866 C.3     
  17 C17            1.5763     3.0578    -0.8700 C.3     
  18 C18            1.8670     2.0726     1.4238 C.3     
  19 C19            3.1105     0.0270     0.3877 C.3     
  20 C20            2.8198     1.0122    -1.9062 C.3     
  21 H21           -1.7046    -0.5798     1.4452 H       
  22 H22           -0.0142    -2.7093     0.0319 H       
  23 H23           -0.7392    -5.0115     0.6567 H       
  24 H24           -2.2147    -6.5268     1.9109 H       
  25 H25           -4.2494    -3.1804     3.6053 H       
  26 H26           -2.7786    -1.6443     2.3711 H       
  27 H27           -3.9462    -6.9095     3.3726 H       
  28 H28           -4.7141    -6.2997     5.6502 H       
  29 H29           -3.0267    -5.7969     5.3889 H       
  30 H30           -4.3351    -4.5920     5.3207 H       
  31 H31           -5.7841    -5.8161     2.1176 H       
  32 H32           -6.3243    -6.3109     3.7398 H       
  33 H33           -5.9454    -4.6032     3.4104 H       
  34 H34            1.0042     3.8879    -0.4557 H       
  35 H35            2.6343     3.3193    -0.8888 H       
  36 H36            1.2349     2.8517    -1.8844 H       
  37 H37            1.7302     1.1730     2.0240 H       
  38 H38            2.9244     2.3362     1.4002 H       
  39 H39            1.2979     2.8922     1.8626 H       
  40 H40            3.5790    -0.8603    -0.0381 H       
  41 H41            3.8754     0.7717     0.6077 H       
  42 H42            2.5906    -0.2424     1.3071 H       
  43 H43            2.0954     1.4363    -2.6014 H       
  44 H44            3.5854     1.7548    -1.6813 H       
  45 H45            3.2852     0.1354    -2.3564 H       
@<TRIPOS>BOND
   1    1    2 1
   2    1    5 1
   3    2    3 1
   4    2    6 1
   5    3    4 1
   6    4    5 1
   7    4   19 1
   8    4   20 1
   9    5   17 1
  10    5   18 1
  11    6    7 2
  12    6   21 1
  13    7    8 1
  14    7   22 1
  15    8    9 ar
  16    8   13 ar
  17    9   10 ar
  18    9   23 1
  19   10   11 ar
  20   10   24 1
  21   11   12 ar
  22   11   14 1
  23   12   13 ar
  24   12   25 1
  25   13   26 1
  26   14   15 1
  27   14   16 1
  28   14   27 1
  29   15   28 1
  30   15   29 1
  31   15   30 1
  32   16   31 1
  33   16   32 1
  34   16   33 1
  35   17   34 1
  36   17   35 1
  37   17   36 1
  38   18   37 1
  39   18   38 1
  40   18   39 1
  41   19   40 1
  42   19   41 1
  43   19   42 1
  44   20   43 1
  45   20   44 1
  46   20   45 1

#	End of record

