#	Name: ASD01813490
#	Creating user name:	WinNT
#	Creation time:	15. 06. 2019 19:30

#	Modifying user name:	WinNT
#	Modification time:	15. 06. 2019 19:30

#	Program:	/corina/corina34_cracker 3.40 0067  02.08.2006

@<TRIPOS>MOLECULE
ASD01813490
  51   54    0    0    0
SMALL
NO_CHARGES


@<TRIPOS>ATOM
   1 C1            -0.7710     0.8359     0.1132 C.ar    
   2 C2            -0.6016    -0.5405     0.0705 C.ar    
   3 C3             0.6617    -1.0947     0.0615 C.ar    
   4 C4             1.7844    -0.2681     0.0955 C.ar    
   5 C5             1.6081     1.1250     0.1385 C.ar    
   6 C6             0.3243     1.6704     0.1472 C.ar    
   7 N7             3.0527    -0.8087     0.0879 N.pl3   
   8 C8             4.1612    -0.0586     0.1207 C.2     
   9 C9             4.1152     1.3204     0.1648 C.2     
  10 C10            2.8036     1.9880     0.1741 C.2     
  11 O11            2.7093     3.2023     0.2121 O.2     
  12 C12            5.3551     2.1086     0.2009 C.2     
  13 O13            5.2971     3.4548     0.2438 O.3     
  14 O14            6.4331     1.5467     0.1920 O.2     
  15 C15            3.1934    -2.2662     0.0426 C.3     
  16 C16            3.1114    -2.7345    -1.3875 C.ar    
  17 N17            1.9304    -2.9542    -1.9318 N.ar    
  18 C18            1.8043    -3.3637    -3.1776 C.ar    
  19 C19            2.9296    -3.5805    -3.9701 C.ar    
  20 C20            4.1958    -3.3565    -3.4219 C.ar    
  21 C21            4.2757    -2.9217    -2.1103 C.ar    
  22 C22            2.7863    -4.0421    -5.3726 C.ar    
  23 F23            0.8112    -2.4368     0.0203 F       
  24 C24            1.5185    -4.2628    -5.9087 C.ar    
  25 C25            1.3875    -4.6917    -7.2123 C.ar    
  26 C26            2.5186    -4.9043    -7.9921 C.ar    
  27 C27            3.7838    -4.6848    -7.4594 C.ar    
  28 C28            3.9190    -4.2503    -6.1581 C.ar    
  29 N29            2.3838    -5.3390    -9.3114 N.am    
  30 S30            1.8735    -4.2851   -10.4824 S.o2    
  31 O31            1.8808    -5.0568   -11.6756 O.2     
  32 O32            0.6643    -3.7462    -9.9660 O.2     
  33 C33            3.1646    -3.0122   -10.5396 C.3     
  34 H34           -1.7663     1.2550     0.1152 H       
  35 H35           -1.4679    -1.1848     0.0445 H       
  36 H36            0.1898     2.7415     0.1800 H       
  37 H37            5.1235    -0.5488     0.1128 H       
  38 H38            6.1390     3.9300     0.2663 H       
  39 H39            4.1575    -2.5514     0.4636 H       
  40 H40            2.3933    -2.7266     0.6221 H       
  41 H41            0.8199    -3.5332    -3.5882 H       
  42 H42            5.0889    -3.5151    -4.0081 H       
  43 H43            5.2371    -2.7383    -1.6537 H       
  44 H44            0.6396    -4.0981    -5.3031 H       
  45 H45            0.4056    -4.8632    -7.6279 H       
  46 H46            4.6613    -4.8505    -8.0669 H       
  47 H47            4.9020    -4.0799    -5.7446 H       
  48 H48            2.5891    -6.2585    -9.5425 H       
  49 H49            4.0995    -3.4580   -10.8791 H       
  50 H50            2.8665    -2.2232   -11.2300 H       
  51 H51            3.3034    -2.5906    -9.5441 H       
@<TRIPOS>BOND
   1    1    2 ar
   2    1    6 ar
   3    1   34 1
   4    2    3 ar
   5    2   35 1
   6    3    4 ar
   7    3   23 1
   8    4    5 ar
   9    4    7 1
  10    5    6 ar
  11    5   10 1
  12    6   36 1
  13    7    8 1
  14    7   15 1
  15    8    9 2
  16    8   37 1
  17    9   10 1
  18    9   12 1
  19   10   11 2
  20   12   13 1
  21   12   14 2
  22   13   38 1
  23   15   16 1
  24   15   39 1
  25   15   40 1
  26   16   17 ar
  27   16   21 ar
  28   17   18 ar
  29   18   19 ar
  30   18   41 1
  31   19   20 ar
  32   19   22 1
  33   20   21 ar
  34   20   42 1
  35   21   43 1
  36   22   24 ar
  37   22   28 ar
  38   24   25 ar
  39   24   44 1
  40   25   26 ar
  41   25   45 1
  42   26   27 ar
  43   26   29 1
  44   27   28 ar
  45   27   46 1
  46   28   47 1
  47   29   30 am
  48   29   48 1
  49   30   31 2
  50   30   32 2
  51   30   33 1
  52   33   49 1
  53   33   50 1
  54   33   51 1

#	End of record

