#	Name: ASD01916374
#	Creating user name:	WinNT
#	Creation time:	15. 06. 2019 20:07

#	Modifying user name:	WinNT
#	Modification time:	15. 06. 2019 20:07

#	Program:	/corina/corina34_cracker 3.40 0067  02.08.2006

@<TRIPOS>MOLECULE
ASD01916374
  40   44    0    0    0
SMALL
NO_CHARGES


@<TRIPOS>ATOM
   1 C1            -0.0171     1.4098     0.0098 C.ar    
   2 C2             0.0021    -0.0041     0.0020 C.ar    
   3 C3            -1.1924    -0.7249     0.0078 C.ar    
   4 C4            -2.3851    -0.0634     0.0205 C.ar    
   5 C5            -2.4223     1.3393     0.0287 C.ar    
   6 C6            -1.2407     2.0768     0.0193 C.ar    
   7 N7             1.1595     2.0801     0.0022 N.2     
   8 C8             2.3137     1.4692    -0.0145 C.2     
   9 N9             2.4212     0.1119    -0.0240 N.am    
  10 C10            1.3107    -0.6683    -0.0126 C.2     
  11 C11            3.7038     2.0913    -0.0282 C.3     
  12 C12            4.6325     0.9348     0.3478 C.3     
  13 C13            3.8360    -0.3078    -0.0503 C.3     
  14 C14           -3.6836     2.0171     0.0422 C.1     
  15 C15           -4.7177     2.5728     0.0533 C.1     
  16 C16           -5.9790     3.2506     0.0669 C.ar    
  17 N17           -6.0140     4.5797     0.0746 N.ar    
  18 C18           -7.1536     5.2395     0.0871 C.ar    
  19 C19           -8.3635     4.5689     0.0931 C.ar    
  20 C20           -8.3741     3.1806     0.0854 C.ar    
  21 C21           -7.1643     2.5106     0.0661 C.ar    
  22 O22            1.3975    -1.8826    -0.0148 O.2     
  23 C23            6.0672     1.0197    -0.1651 C.3     
  24 O24            6.4280     0.4931     1.1310 O.3     
  25 C25            5.2115     0.9550     1.7588 C.3     
  26 H26           -1.1727    -1.8047     0.0018 H       
  27 H27           -3.3083    -0.6237     0.0240 H       
  28 H28           -1.2724     3.1564     0.0258 H       
  29 H29            3.9445     2.4665    -1.0229 H       
  30 H30            3.7716     2.8909     0.7094 H       
  31 H31            4.0052    -1.1109     0.6670 H       
  32 H32            4.1158    -0.6307    -1.0531 H       
  33 H33           -7.1435     6.3194     0.0931 H       
  34 H34           -9.2919     5.1206     0.1041 H       
  35 H35           -9.3067     2.6358     0.0898 H       
  36 H36           -7.1360     1.4309     0.0592 H       
  37 H37            6.2819     0.3436    -0.9927 H       
  38 H38            6.4145     2.0378    -0.3413 H       
  39 H39            5.2881     1.9526     2.1913 H       
  40 H40            4.7584     0.2284     2.4333 H       
@<TRIPOS>BOND
   1    1    2 ar
   2    1    7 1
   3    1    6 ar
   4    2    3 ar
   5    2   10 1
   6    3    4 ar
   7    3   26 1
   8    4    5 ar
   9    4   27 1
  10    5    6 ar
  11    5   14 1
  12    6   28 1
  13    7    8 2
  14    8    9 1
  15    8   11 1
  16    9   10 am
  17    9   13 1
  18   10   22 2
  19   11   12 1
  20   11   29 1
  21   11   30 1
  22   12   13 1
  23   12   23 1
  24   12   25 1
  25   13   31 1
  26   13   32 1
  27   14   15 3
  28   15   16 1
  29   16   17 ar
  30   16   21 ar
  31   17   18 ar
  32   18   19 ar
  33   18   33 1
  34   19   20 ar
  35   19   34 1
  36   20   21 ar
  37   20   35 1
  38   21   36 1
  39   23   24 1
  40   23   37 1
  41   23   38 1
  42   24   25 1
  43   25   39 1
  44   25   40 1

#	End of record

