#	Name: ASD01885834
#	Creating user name:	WinNT
#	Creation time:	15. 06. 2019 19:50

#	Modifying user name:	WinNT
#	Modification time:	15. 06. 2019 19:50

#	Program:	/corina/corina34_cracker 3.40 0067  02.08.2006

@<TRIPOS>MOLECULE
ASD01885834
  56   59    0    0    0
SMALL
NO_CHARGES


@<TRIPOS>ATOM
   1 C1            -0.0160     1.3294     0.0094 C.ar    
   2 C2            -1.2520     2.0240     0.0189 C.ar    
   3 C3            -2.4596     1.2809     0.0205 C.ar    
   4 C4            -2.3700    -0.1047     0.0125 C.ar    
   5 C5            -1.1108    -0.7138     0.0033 C.ar    
   6 N6             0.0021    -0.0041     0.0020 N.ar    
   7 C7             1.1364     3.4285     0.0097 C.ar    
   8 C8            -0.0805     4.1065     0.0258 C.ar    
   9 C9            -1.2606     3.4246     0.0271 C.ar    
  10 C10           -3.7749     1.9611     0.0308 C.2     
  11 C11           -1.0240    -2.1941    -0.0047 C.2     
  12 C12            2.4227     4.2136     0.0097 C.3     
  13 N13            2.8503     4.4530     1.3945 N.3     
  14 C14            1.1821     2.0685     0.0019 C.ar    
  15 N15            0.1806    -2.7985    -0.0130 N.am    
  16 O16           -2.0389    -2.8621    -0.0037 O.2     
  17 C17            4.2124     5.0045     1.4375 C.3     
  18 C18            4.5943     5.2940     2.8916 C.3     
  19 O19            4.4717     4.0937     3.6594 O.3     
  20 C20            3.1576     3.5297     3.6402 C.3     
  21 C21            2.7611     3.2223     2.1937 C.3     
  22 C22            3.1442     2.2374     4.4592 C.3     
  23 C23            6.0395     5.7928     2.9506 C.3     
  24 F24            6.1597     6.9642     2.1953 F       
  25 F25            6.3877     6.0571     4.2796 F       
  26 F26            6.8925     4.8132     2.4310 F       
  27 C27           -4.3001     2.7771    -0.9925 C.2     
  28 N28           -5.4798     3.1910    -0.6149 N.2     
  29 N29           -5.7541     2.6621     0.6519 N.pl3   
  30 C30           -4.7048     1.9082     1.0314 C.2     
  31 C31           -3.6189     3.1131    -2.2940 C.3     
  32 C32           -6.9753     2.8865     1.4295 C.3     
  33 H33           -3.2660    -0.7077     0.0137 H       
  34 H34           -0.0889     5.1864     0.0378 H       
  35 H35           -2.1976     3.9616     0.0341 H       
  36 H36            3.1929     3.6491    -0.5159 H       
  37 H37            2.2657     5.1683    -0.4923 H       
  38 H38            2.1338     1.5582    -0.0097 H       
  39 H39            0.9908    -2.2651    -0.0139 H       
  40 H40            0.2373    -3.7668    -0.0182 H       
  41 H41            4.9109     4.2825     1.0146 H       
  42 H42            4.2493     5.9286     0.8606 H       
  43 H43            3.9288     6.0556     3.2980 H       
  44 H44            2.4503     4.2400     4.0683 H       
  45 H45            1.7386     2.8455     2.1688 H       
  46 H46            3.4364     2.4718     1.7828 H       
  47 H47            3.4303     2.4562     5.4879 H       
  48 H48            2.1424     1.8080     4.4441 H       
  49 H49            3.8504     1.5272     4.0289 H       
  50 H50           -4.6119     1.3655     1.9605 H       
  51 H51           -3.8837     2.3693    -3.0454 H       
  52 H52           -3.9416     4.0989    -2.6291 H       
  53 H53           -2.5386     3.1144    -2.1490 H       
  54 H54           -7.7080     2.1173     1.1853 H       
  55 H55           -6.7421     2.8414     2.4933 H       
  56 H56           -7.3844     3.8676     1.1884 H       
@<TRIPOS>BOND
   1    1    6 ar
   2    1   14 ar
   3    1    2 ar
   4    2    3 ar
   5    2    9 ar
   6    3   10 1
   7    3    4 ar
   8    4    5 ar
   9    4   33 1
  10    5   11 1
  11    5    6 ar
  12    7   12 1
  13    7    8 ar
  14    7   14 ar
  15    8    9 ar
  16    8   34 1
  17    9   35 1
  18   10   27 1
  19   10   30 2
  20   11   15 am
  21   11   16 2
  22   12   13 1
  23   12   36 1
  24   12   37 1
  25   13   17 1
  26   13   21 1
  27   14   38 1
  28   15   39 1
  29   15   40 1
  30   17   18 1
  31   17   41 1
  32   17   42 1
  33   18   19 1
  34   18   23 1
  35   18   43 1
  36   19   20 1
  37   20   21 1
  38   20   22 1
  39   20   44 1
  40   21   45 1
  41   21   46 1
  42   22   47 1
  43   22   48 1
  44   22   49 1
  45   23   24 1
  46   23   25 1
  47   23   26 1
  48   27   28 2
  49   27   31 1
  50   28   29 1
  51   29   30 1
  52   29   32 1
  53   30   50 1
  54   31   51 1
  55   31   52 1
  56   31   53 1
  57   32   54 1
  58   32   55 1
  59   32   56 1

#	End of record

