#	Name: ASD01900373
#	Creating user name:	WinNT
#	Creation time:	15. 06. 2019 19:51

#	Modifying user name:	WinNT
#	Modification time:	15. 06. 2019 19:51

#	Program:	/corina/corina34_cracker 3.40 0067  02.08.2006

@<TRIPOS>MOLECULE
ASD01900373
  30   32    0    0    0
SMALL
NO_CHARGES


@<TRIPOS>ATOM
   1 C1            -0.0724     1.1719     0.8835 C.ar    
   2 C2            -0.0230    -0.1013     0.3308 C.ar    
   3 N3             1.1183    -0.7293     0.1616 N.ar    
   4 C4             2.2755    -0.1733     0.5122 C.ar    
   5 C5             2.3009     1.1155     1.0786 C.ar    
   6 C6             1.0985     1.7966     1.2654 C.ar    
   7 C7             3.6704    -0.6156     0.4472 C.2     
   8 N8             4.4146     0.3412     0.9347 N.2     
   9 N9             3.6131     1.4166     1.3314 N.pl3   
  10 N10            4.1242    -1.8424    -0.0474 N.pl3   
  11 C11            5.4955    -2.0883    -0.1549 C.ar    
  12 C12            5.9787    -3.3861    -0.0571 C.ar    
  13 C13            6.3768    -1.0345    -0.3654 C.ar    
  14 C14            7.7323    -1.2775    -0.4720 C.ar    
  15 C15            8.2160    -2.5691    -0.3697 C.ar    
  16 C16            7.3393    -3.6262    -0.1641 C.ar    
  17 O17            7.8159    -4.8952    -0.0637 O.3     
  18 Cl18           9.9204    -2.8700    -0.5048 Cl      
  19 C19            6.8570    -5.9335     0.1475 C.3     
  20 H20           -1.0210     1.6724     1.0098 H       
  21 H21           -0.9419    -0.5851     0.0344 H       
  22 H22            1.0834     2.7864     1.6972 H       
  23 H23            3.9349     2.2435     1.7234 H       
  24 H24            3.4870    -2.5227    -0.3160 H       
  25 H25            5.2953    -4.2071     0.1024 H       
  26 H26            6.0015    -0.0251    -0.4460 H       
  27 H27            8.4157    -0.4575    -0.6360 H       
  28 H28            6.3196    -5.7480     1.0775 H       
  29 H29            6.1511    -5.9506    -0.6828 H       
  30 H30            7.3690    -6.8938     0.2090 H       
@<TRIPOS>BOND
   1    1    2 ar
   2    1    6 ar
   3    1   20 1
   4    2    3 ar
   5    2   21 1
   6    3    4 ar
   7    4    5 ar
   8    4    7 1
   9    5    6 ar
  10    5    9 1
  11    6   22 1
  12    7    8 2
  13    7   10 1
  14    8    9 1
  15    9   23 1
  16   10   11 1
  17   10   24 1
  18   11   12 ar
  19   11   13 ar
  20   12   16 ar
  21   12   25 1
  22   13   14 ar
  23   13   26 1
  24   14   15 ar
  25   14   27 1
  26   15   16 ar
  27   15   18 1
  28   16   17 1
  29   17   19 1
  30   19   28 1
  31   19   29 1
  32   19   30 1

#	End of record

