#	Name: ASD06730001
#	Creating user name:	WinNT
#	Creation time:	15. 06. 2019 21:08

#	Modifying user name:	WinNT
#	Modification time:	15. 06. 2019 21:08

#	Program:	/corina/corina34_cracker 3.40 0067  02.08.2006

@<TRIPOS>MOLECULE
ASD06730001
  49   52    0    0    0
SMALL
NO_CHARGES


@<TRIPOS>ATOM
   1 C1            -0.2399     2.2729    -0.1144 C.ar    
   2 C2             0.0623     0.9128    -0.1265 C.ar    
   3 C3            -0.9671    -0.1383    -0.1092 C.2     
   4 N4            -2.0708    -0.0981    -0.7678 N.2     
   5 C5            -2.4209     1.0383    -1.6191 C.3     
   6 C6            -2.5634     2.2649    -0.7599 C.2     
   7 N7            -1.5353     2.7647    -0.0761 N.am    
   8 C8             0.7997     3.2051    -0.1357 C.ar    
   9 C9             2.1131     2.7918    -0.1665 C.ar    
  10 C10            2.4164     1.4403    -0.1775 C.ar    
  11 C11            1.4056     0.5077    -0.1576 C.ar    
  12 C12           -0.7127    -1.3328     0.7295 C.ar    
  13 C13            0.1629    -1.2545     1.8122 C.ar    
  14 C14            0.3954    -2.3703     2.5899 C.ar    
  15 C15           -0.2377    -3.5651     2.2972 C.ar    
  16 C16           -1.1071    -3.6491     1.2243 C.ar    
  17 C17           -1.3524    -2.5385     0.4430 C.ar    
  18 C18           -1.7939     3.9256     0.7793 C.3     
  19 O19           -3.6430     2.8128    -0.6871 O.2     
  20 N20           -3.6884     0.7676    -2.3021 N.am    
  21 C21           -3.6931     0.4430    -3.6102 C.2     
  22 N22           -4.8591     0.1940    -4.2385 N.am    
  23 O23           -2.6454     0.3748    -4.2234 O.2     
  24 C24           -4.8733    -0.0497    -5.6165 C.ar    
  25 C25           -3.8310    -0.7488    -6.2100 C.ar    
  26 C26           -3.8482    -0.9882    -7.5709 C.ar    
  27 C27           -4.9026    -0.5320    -8.3413 C.ar    
  28 C28           -5.9421     0.1646    -7.7525 C.ar    
  29 C29           -5.9331     0.4023    -6.3922 C.ar    
  30 I30           -2.2758    -2.0424    -8.4682 I       
  31 H31           -1.6340     1.1983    -2.3562 H       
  32 H32            0.5714     4.2607    -0.1282 H       
  33 H33            2.9080     3.5228    -0.1825 H       
  34 H34            3.4470     1.1186    -0.2019 H       
  35 H35            1.6476    -0.5448    -0.1660 H       
  36 H36            0.6583    -0.3225     2.0412 H       
  37 H37            1.0733    -2.3110     3.4285 H       
  38 H38           -0.0523    -4.4358     2.9086 H       
  39 H39           -1.5982    -4.5846     1.0005 H       
  40 H40           -2.0316    -2.6052    -0.3941 H       
  41 H41           -2.8459     4.2019     0.7086 H       
  42 H42           -1.5523     3.6765     1.8126 H       
  43 H43           -1.1759     4.7621     0.4531 H       
  44 H44           -4.5242     0.8220    -1.8129 H       
  45 H45           -5.6885     0.1837    -3.7356 H       
  46 H46           -3.0074    -1.1048    -5.6089 H       
  47 H47           -4.9139    -0.7199    -9.4047 H       
  48 H48           -6.7640     0.5195    -8.3567 H       
  49 H49           -6.7453     0.9464    -5.9332 H       
@<TRIPOS>BOND
   1    1    2 ar
   2    1    8 ar
   3    1    7 1
   4    2    3 1
   5    2   11 ar
   6    3    4 2
   7    3   12 1
   8    4    5 1
   9    5    6 1
  10    5   20 1
  11    5   31 1
  12    6    7 am
  13    6   19 2
  14    7   18 1
  15    8    9 ar
  16    8   32 1
  17    9   10 ar
  18    9   33 1
  19   10   11 ar
  20   10   34 1
  21   11   35 1
  22   12   13 ar
  23   12   17 ar
  24   13   14 ar
  25   13   36 1
  26   14   15 ar
  27   14   37 1
  28   15   16 ar
  29   15   38 1
  30   16   17 ar
  31   16   39 1
  32   17   40 1
  33   18   41 1
  34   18   42 1
  35   18   43 1
  36   20   21 am
  37   20   44 1
  38   21   22 am
  39   21   23 2
  40   22   24 1
  41   22   45 1
  42   24   25 ar
  43   24   29 ar
  44   25   26 ar
  45   25   46 1
  46   26   27 ar
  47   26   30 1
  48   27   28 ar
  49   27   47 1
  50   28   29 ar
  51   28   48 1
  52   29   49 1

#	End of record

