#	Name: ASD01950003
#	Creating user name:	WinNT
#	Creation time:	15. 06. 2019 20:14

#	Modifying user name:	WinNT
#	Modification time:	15. 06. 2019 20:14

#	Program:	/corina/corina34_cracker 3.40 0067  02.08.2006

@<TRIPOS>MOLECULE
ASD01950003
  50   53    0    0    0
SMALL
NO_CHARGES


@<TRIPOS>ATOM
   1 C1            -0.0074     1.4322    -0.4044 C.ar    
   2 C2            -0.0216     0.0569    -0.3068 C.ar    
   3 C3             1.1602    -0.6432    -0.1151 C.ar    
   4 C4             2.3656     0.0324    -0.0200 C.ar    
   5 C5             2.3949     1.4175    -0.1161 C.ar    
   6 C6             1.2005     2.1259    -0.3103 C.ar    
   7 C7             4.8113     1.4255    -0.2447 C.ar    
   8 C8             5.6801     1.1821     0.8102 C.ar    
   9 C9             6.8660     0.5092     0.5860 C.ar    
  10 C10            7.1888     0.0778    -0.6876 C.ar    
  11 C11            6.3262     0.3185    -1.7425 C.ar    
  12 C12            5.1380     0.9907    -1.5254 C.ar    
  13 F13            1.1356    -1.9907    -0.0203 F       
  14 F14            3.5129    -0.6561     0.1667 F       
  15 N15            3.6076     2.1013    -0.0197 N.pl3   
  16 F16            4.2954     1.2253    -2.5551 F       
  17 I17            8.9884    -0.9418    -1.0209 I       
  18 C18            1.2202     3.5983    -0.4143 C.2     
  19 O19            0.1497     4.4019    -0.6006 O.3     
  20 C20            0.6240     5.6619    -0.6339 C.2     
  21 N21            1.9239     5.5974    -0.4731 N.2     
  22 N22            2.2787     4.3682    -0.3373 N.2     
  23 O23            1.1157    12.8865    -2.2259 O.3     
  24 C24           -0.0588    12.9376    -1.4115 C.3     
  25 C25           -0.7719    11.5841    -1.4683 C.3     
  26 N26            0.1570    10.5282    -1.0398 N.3     
  27 C27            1.3509    10.5053    -1.8973 C.3     
  28 C28            2.0428    11.8697    -1.8362 C.3     
  29 C29           -0.5062     9.2176    -1.0256 C.3     
  30 C30            0.5391     8.1193    -0.8207 C.3     
  31 N31           -0.1223     6.8121    -0.8065 N.pl3   
  32 H32           -0.9299     1.9723    -0.5581 H       
  33 H33           -0.9572    -0.4775    -0.3796 H       
  34 H34            5.4296     1.5186     1.8053 H       
  35 H35            7.5421     0.3202     1.4068 H       
  36 H36            6.5815    -0.0190    -2.7362 H       
  37 H37            3.6158     3.0453     0.2033 H       
  38 H38            0.2218    13.1583    -0.3816 H       
  39 H39           -0.7254    13.7161    -1.7825 H       
  40 H40           -1.6362    11.5999    -0.8043 H       
  41 H41           -1.0999    11.3881    -2.4891 H       
  42 H42            2.0362     9.7337    -1.5466 H       
  43 H43            1.0568    10.2920    -2.9250 H       
  44 H44            2.8960    11.8757    -2.5145 H       
  45 H45            2.3845    12.0592    -0.8187 H       
  46 H46           -1.2308     9.1858    -0.2119 H       
  47 H47           -1.0184     9.0592    -1.9746 H       
  48 H48            1.2637     8.1510    -1.6343 H       
  49 H49            1.0513     8.2776     0.1284 H       
  50 H50           -1.0841     6.7540    -0.9182 H       
@<TRIPOS>BOND
   1    1    2 ar
   2    1    6 ar
   3    1   32 1
   4    2    3 ar
   5    2   33 1
   6    3    4 ar
   7    3   13 1
   8    4    5 ar
   9    4   14 1
  10    5    6 ar
  11    5   15 1
  12    6   18 1
  13    7    8 ar
  14    7   12 ar
  15    7   15 1
  16    8    9 ar
  17    8   34 1
  18    9   10 ar
  19    9   35 1
  20   10   11 ar
  21   10   17 1
  22   11   12 ar
  23   11   36 1
  24   12   16 1
  25   15   37 1
  26   18   19 1
  27   18   22 2
  28   19   20 1
  29   20   21 2
  30   20   31 1
  31   21   22 1
  32   23   24 1
  33   23   28 1
  34   24   25 1
  35   24   38 1
  36   24   39 1
  37   25   26 1
  38   25   40 1
  39   25   41 1
  40   26   27 1
  41   26   29 1
  42   27   28 1
  43   27   42 1
  44   27   43 1
  45   28   44 1
  46   28   45 1
  47   29   30 1
  48   29   46 1
  49   29   47 1
  50   30   31 1
  51   30   48 1
  52   30   49 1
  53   31   50 1

#	End of record

