#	Name: ASD01820086
#	Creating user name:	WinNT
#	Creation time:	15. 06. 2019 19:36

#	Modifying user name:	WinNT
#	Modification time:	15. 06. 2019 19:36

#	Program:	/corina/corina34_cracker 3.40 0067  02.08.2006

@<TRIPOS>MOLECULE
ASD01820086
  35   38    0    0    0
SMALL
NO_CHARGES


@<TRIPOS>ATOM
   1 C1             0.1019     1.3792     0.8060 C.ar    
   2 C2             0.1687     0.0187     1.0151 C.ar    
   3 C3             1.3789    -0.6519     0.9156 C.ar    
   4 C4             2.5360     0.0312     0.6061 C.ar    
   5 C5             2.4912     1.4080     0.3915 C.ar    
   6 C6             1.2620     2.0900     0.4917 C.ar    
   7 C7             1.2131     3.5436     0.2647 C.2     
   8 C8             3.7177     2.1585     0.0619 C.2     
   9 C9             3.7005     3.6315     0.1392 C.ar    
  10 C10            2.4694     4.3104     0.2382 C.ar    
  11 C11            2.4540     5.7047     0.3111 C.ar    
  12 C12            4.8897     4.3588     0.1153 C.ar    
  13 C13            4.8524     5.7353     0.1887 C.ar    
  14 C14            3.6411     6.4043     0.2857 C.ar    
  15 O15            0.1455     4.1054     0.1003 O.2     
  16 C16            4.8527     1.4991    -0.3090 C.2     
  17 C17            5.9054     2.2079    -1.0465 C.ar    
  18 C18            7.2608     1.9667    -0.7670 C.ar    
  19 C19            5.5770     3.1323    -2.0455 C.ar    
  20 N20            6.5228     3.7663    -2.7058 N.ar    
  21 C21            7.8030     3.5620    -2.4594 C.ar    
  22 C22            8.2117     2.6608    -1.4913 C.ar    
  23 H23           -0.8450     1.8931     0.8805 H       
  24 H24           -0.7290    -0.5301     1.2589 H       
  25 H25            1.4152    -1.7183     1.0823 H       
  26 H26            3.4741    -0.4986     0.5307 H       
  27 H27            1.5151     6.2331     0.3869 H       
  28 H28            5.8370     3.8458     0.0400 H       
  29 H29            5.7744     6.2974     0.1705 H       
  30 H30            3.6282     7.4827     0.3421 H       
  31 H31            4.9768     0.4556    -0.0600 H       
  32 H32            7.5521     1.2580    -0.0059 H       
  33 H33            4.5400     3.3264    -2.2763 H       
  34 H34            8.5453     4.1043    -3.0262 H       
  35 H35            9.2633     2.5019    -1.3035 H       
@<TRIPOS>BOND
   1    1    2 ar
   2    1    6 ar
   3    1   23 1
   4    2    3 ar
   5    2   24 1
   6    3    4 ar
   7    3   25 1
   8    4    5 ar
   9    4   26 1
  10    5    6 ar
  11    5    8 1
  12    6    7 1
  13    7   10 1
  14    7   15 2
  15    8    9 1
  16    8   16 2
  17    9   12 ar
  18    9   10 ar
  19   10   11 ar
  20   11   14 ar
  21   11   27 1
  22   12   13 ar
  23   12   28 1
  24   13   14 ar
  25   13   29 1
  26   14   30 1
  27   16   17 1
  28   16   31 1
  29   17   19 ar
  30   17   18 ar
  31   18   22 ar
  32   18   32 1
  33   19   20 ar
  34   19   33 1
  35   20   21 ar
  36   21   22 ar
  37   21   34 1
  38   22   35 1

#	End of record

