#	Name: ASD00311218
#	Creating user name:	WinNT
#	Creation time:	15. 06. 2019 18:34

#	Modifying user name:	WinNT
#	Modification time:	15. 06. 2019 18:34

#	Program:	/corina/corina34_cracker 3.40 0067  02.08.2006

@<TRIPOS>MOLECULE
ASD00311218
  45   48    0    0    0
SMALL
NO_CHARGES


@<TRIPOS>ATOM
   1 C1            -0.0167     1.3817     0.0096 C.2     
   2 C2             0.0021    -0.0041     0.0020 C.2     
   3 C3             1.2603    -0.6816    -0.0132 C.2     
   4 C4             2.4330     0.0596    -0.0200 C.2     
   5 C5             2.3591     1.4687    -0.0117 C.2     
   6 N6             1.1694     2.0867     0.0021 N.am    
   7 C7            -1.3346    -0.5777     0.0117 C.2     
   8 C8            -2.3170     0.3701     0.0261 C.2     
   9 S9            -1.6193     1.9765     0.0351 S.3     
  10 C10           -3.7074     0.0929     0.0379 C.2     
  11 O11           -4.0980    -1.0595     0.0355 O.2     
  12 O12           -4.5977     1.1071     0.0519 O.3     
  13 O13            3.3845     2.1290    -0.0172 O.2     
  14 O14            1.3074    -2.0337    -0.0204 O.3     
  15 C15            3.7485    -0.6209    -0.0352 C.ar    
  16 C16            4.5948    -0.4843    -1.1354 C.ar    
  17 C17            5.8191    -1.1207    -1.1438 C.ar    
  18 C18            6.2077    -1.8931    -0.0638 C.ar    
  19 C19            5.3725    -2.0328     1.0302 C.ar    
  20 C20            4.1484    -1.3963     1.0530 C.ar    
  21 C21           -1.6010    -2.0330     0.0064 C.ar    
  22 C22           -2.2184    -2.6364     1.1029 C.ar    
  23 C23           -2.4640    -3.9939     1.0917 C.ar    
  24 C24           -2.0995    -4.7569    -0.0034 C.ar    
  25 C25           -1.4870    -4.1648    -1.0937 C.ar    
  26 C26           -1.2411    -2.8073    -1.0975 C.ar    
  27 C27           -5.9825     0.7547     0.0632 C.3     
  28 C28           -6.8324     2.0268     0.0781 C.3     
  29 H29            1.1417     3.0563     0.0072 H       
  30 H30            2.2039    -2.3960    -0.0307 H       
  31 H31            4.2923     0.1181    -1.9792 H       
  32 H32            6.4751    -1.0160    -1.9953 H       
  33 H33            7.1669    -2.3893    -0.0749 H       
  34 H34            5.6812    -2.6374     1.8702 H       
  35 H35            3.4994    -1.5019     1.9098 H       
  36 H36           -2.5030    -2.0420     1.9585 H       
  37 H37           -2.9414    -4.4622     1.9398 H       
  38 H38           -2.2936    -5.8193    -0.0071 H       
  39 H39           -1.2050    -4.7659    -1.9455 H       
  40 H40           -0.7673    -2.3455    -1.9511 H       
  41 H41           -6.2164     0.1719    -0.8277 H       
  42 H42           -6.1994     0.1623     0.9521 H       
  43 H43           -7.8887     1.7580     0.0868 H       
  44 H44           -6.5985     2.6096     0.9691 H       
  45 H45           -6.6155     2.6191    -0.8108 H       
@<TRIPOS>BOND
   1    1    2 2
   2    1    6 1
   3    1    9 1
   4    2    3 1
   5    2    7 1
   6    3    4 2
   7    3   14 1
   8    4    5 1
   9    4   15 1
  10    5    6 am
  11    5   13 2
  12    6   29 1
  13    7    8 2
  14    7   21 1
  15    8    9 1
  16    8   10 1
  17   10   11 2
  18   10   12 1
  19   12   27 1
  20   14   30 1
  21   15   16 ar
  22   15   20 ar
  23   16   17 ar
  24   16   31 1
  25   17   18 ar
  26   17   32 1
  27   18   19 ar
  28   18   33 1
  29   19   20 ar
  30   19   34 1
  31   20   35 1
  32   21   22 ar
  33   21   26 ar
  34   22   23 ar
  35   22   36 1
  36   23   24 ar
  37   23   37 1
  38   24   25 ar
  39   24   38 1
  40   25   26 ar
  41   25   39 1
  42   26   40 1
  43   27   28 1
  44   27   41 1
  45   27   42 1
  46   28   43 1
  47   28   44 1
  48   28   45 1

#	End of record

