#	Name: ASD04930054
#	Creating user name:	WinNT
#	Creation time:	15. 06. 2019 20:56

#	Modifying user name:	WinNT
#	Modification time:	15. 06. 2019 20:56

#	Program:	/corina/corina34_cracker 3.40 0067  02.08.2006

@<TRIPOS>MOLECULE
ASD04930054
  51   52    0    0    0
SMALL
NO_CHARGES


@<TRIPOS>ATOM
   1 C1             2.6862     1.2219     2.2506 C.ar    
   2 C2             2.6231    -0.1393     2.1583 C.ar    
   3 C3             2.3980    -0.7526     0.9336 C.ar    
   4 C4             2.2343    -0.0005    -0.2092 C.ar    
   5 C5             2.2940     1.3891    -0.1400 C.ar    
   6 C6             2.5223     2.0058     1.1027 C.ar    
   7 C7             2.5864     3.4688     1.1826 C.2     
   8 N8             2.1306     2.1487    -1.2801 N.am    
   9 C9             2.1829     3.4911    -1.2484 C.2     
  10 C10            2.4157     4.2038     0.0071 C.2     
  11 O11            2.8042     4.0888     2.3612 O.3     
  12 O12            2.0340     4.1228    -2.2792 O.2     
  13 C13            2.4707     5.6707     0.0315 C.2     
  14 O14            1.4433     6.3192    -0.0349 O.2     
  15 N15            3.6592     6.2989     0.1274 N.am    
  16 N16            3.7222     7.6958     0.0406 N.am    
  17 C17            4.9107     8.3241     0.1365 C.2     
  18 C18            4.9783     9.8267     0.0431 C.3     
  19 O19            5.9257     7.6803     0.2980 O.2     
  20 C20            6.4327    10.2813     0.1817 C.3     
  21 C21            6.5014    11.8068     0.0869 C.3     
  22 C22            7.9557    12.2614     0.2254 C.3     
  23 C23            8.0244    13.7869     0.1306 C.3     
  24 C24            9.4787    14.2415     0.2692 C.3     
  25 C25            9.5474    15.7671     0.1743 C.3     
  26 C26            1.8943     1.4742    -2.5589 C.3     
  27 H27            2.8577     1.6923     3.2076 H       
  28 H28            2.7498    -0.7431     3.0448 H       
  29 H29            2.3510    -1.8300     0.8758 H       
  30 H30            2.0603    -0.4879    -1.1571 H       
  31 H31            2.9063     5.0476     2.2882 H       
  32 H32            4.4710     5.7840     0.2565 H       
  33 H33            2.9104     8.2108    -0.0886 H       
  34 H34            4.5874    10.1487    -0.9221 H       
  35 H35            4.3822    10.2676     0.8420 H       
  36 H36            6.8236     9.9593     1.1468 H       
  37 H37            7.0288     9.8404    -0.6173 H       
  38 H38            6.1104    12.1288    -0.8783 H       
  39 H39            5.9052    12.2477     0.8858 H       
  40 H40            8.3466    11.9394     1.1906 H       
  41 H41            8.5519    11.8205    -0.5735 H       
  42 H42            7.6334    14.1090    -0.8346 H       
  43 H43            7.4282    14.2278     0.9295 H       
  44 H44            9.8697    13.9195     1.2343 H       
  45 H45           10.0749    13.8006    -0.5298 H       
  46 H46            8.9513    16.2080     0.9733 H       
  47 H47           10.5835    16.0909     0.2731 H       
  48 H48            9.1565    16.0891    -0.7908 H       
  49 H49            0.8225     1.3421    -2.7074 H       
  50 H50            2.3015     2.0787    -3.3693 H       
  51 H51            2.3829     0.4999    -2.5515 H       
@<TRIPOS>BOND
   1    1    2 ar
   2    1    6 ar
   3    1   27 1
   4    2    3 ar
   5    2   28 1
   6    3    4 ar
   7    3   29 1
   8    4    5 ar
   9    4   30 1
  10    5    6 ar
  11    5    8 1
  12    6    7 1
  13    7   10 2
  14    7   11 1
  15    8    9 am
  16    8   26 1
  17    9   10 1
  18    9   12 2
  19   10   13 1
  20   11   31 1
  21   13   14 2
  22   13   15 am
  23   15   16 1
  24   15   32 1
  25   16   17 am
  26   16   33 1
  27   17   18 1
  28   17   19 2
  29   18   20 1
  30   18   34 1
  31   18   35 1
  32   20   21 1
  33   20   36 1
  34   20   37 1
  35   21   22 1
  36   21   38 1
  37   21   39 1
  38   22   23 1
  39   22   40 1
  40   22   41 1
  41   23   24 1
  42   23   42 1
  43   23   43 1
  44   24   25 1
  45   24   44 1
  46   24   45 1
  47   25   46 1
  48   25   47 1
  49   25   48 1
  50   26   49 1
  51   26   50 1
  52   26   51 1

#	End of record

