#	Name: ASD03740018
#	Creating user name:	WinNT
#	Creation time:	15. 06. 2019 20:46

#	Modifying user name:	WinNT
#	Modification time:	15. 06. 2019 20:46

#	Program:	/corina/corina34_cracker 3.40 0067  02.08.2006

@<TRIPOS>MOLECULE
ASD03740018
  38   40    0    0    0
SMALL
NO_CHARGES


@<TRIPOS>ATOM
   1 C1            -0.0167     1.3784     0.0096 C.ar    
   2 C2             0.0021    -0.0041     0.0020 C.ar    
   3 C3            -1.1841    -0.7122     0.0095 C.ar    
   4 C4            -2.3948    -0.0349     0.0247 C.ar    
   5 C5            -2.4109     1.3523     0.0323 C.ar    
   6 C6            -1.2219     2.0557     0.0305 C.ar    
   7 S7             1.4980     2.2786    -0.0000 S.o2    
   8 N8             1.9043     2.5376    -1.5844 N.am    
   9 O9             1.2097     3.5550     0.5541 O.2     
  10 O10            2.4865     1.4064     0.5303 O.2     
  11 C11            1.5393     3.6065    -2.3385 C.2     
  12 C12            2.0769     3.4377    -3.5776 C.2     
  13 C13            2.7891     2.2304    -3.5750 C.2     
  14 N14            2.6900     1.6958    -2.3818 N.2     
  15 N15            0.7574     4.6794    -1.9204 N.pl3   
  16 O16            3.4706     1.7058    -4.6283 O.3     
  17 C17            4.1035     0.5278    -4.4499 C.2     
  18 C18            4.8495    -0.0760    -5.5533 C.2     
  19 O19            4.0536    -0.0323    -3.3710 O.2     
  20 O20           -3.5630    -0.7292     0.0317 O.3     
  21 S21            5.0165     0.6056    -7.1654 S.3     
  22 C22            5.9746    -0.7111    -7.6744 C.2     
  23 C23            6.1448    -1.5925    -6.6821 C.2     
  24 C24            5.5348    -1.2598    -5.4950 C.2     
  25 Cl25           5.6167    -2.2470    -4.0693 Cl      
  26 C26           -4.7711     0.0339     0.0474 C.3     
  27 H27            0.9448    -0.5308    -0.0102 H       
  28 H28           -1.1689    -1.7920     0.0032 H       
  29 H29           -3.3521     1.8818     0.0442 H       
  30 H30           -1.2339     3.1356     0.0364 H       
  31 H31            1.9729     4.1133    -4.4137 H       
  32 H32            0.4191     4.7080    -1.0118 H       
  33 H33            0.5508     5.3986    -2.5377 H       
  34 H34            6.3888    -0.8189    -8.6660 H       
  35 H35            6.7219    -2.4972    -6.8033 H       
  36 H36           -4.7955     0.6572     0.9412 H       
  37 H37           -4.8122     0.6674    -0.8387 H       
  38 H38           -5.6271    -0.6410     0.0515 H       
@<TRIPOS>BOND
   1    1    2 ar
   2    1    7 1
   3    1    6 ar
   4    2    3 ar
   5    2   27 1
   6    3    4 ar
   7    3   28 1
   8    4    5 ar
   9    4   20 1
  10    5    6 ar
  11    5   29 1
  12    6   30 1
  13    7    8 am
  14    7    9 2
  15    7   10 2
  16    8   11 1
  17    8   14 1
  18   11   12 2
  19   11   15 1
  20   12   13 1
  21   12   31 1
  22   13   14 2
  23   13   16 1
  24   15   32 1
  25   15   33 1
  26   16   17 1
  27   17   18 1
  28   17   19 2
  29   18   21 1
  30   18   24 2
  31   20   26 1
  32   21   22 1
  33   22   23 2
  34   22   34 1
  35   23   24 1
  36   23   35 1
  37   24   25 1
  38   26   36 1
  39   26   37 1
  40   26   38 1

#	End of record

