#	Name: ASD00170163
#	Creating user name:	WinNT
#	Creation time:	15. 06. 2019 18:31

#	Modifying user name:	WinNT
#	Modification time:	15. 06. 2019 18:31

#	Program:	/corina/corina34_cracker 3.40 0067  02.08.2006

@<TRIPOS>MOLECULE
ASD00170163
  40   42    0    0    0
SMALL
NO_CHARGES


@<TRIPOS>ATOM
   1 C1            -0.9026     1.4798     0.9397 C.2     
   2 C2            -1.0896     0.1817     1.1794 C.2     
   3 C3            -1.2627    -0.6060     0.0494 C.2     
   4 C4            -1.2060     0.1241    -1.1236 C.2     
   5 S5            -0.9358     1.8164    -0.7315 S.3     
   6 C6            -1.3522    -0.4246    -2.4771 C.2     
   7 O7            -1.3930     0.4045    -3.5400 O.3     
   8 C8            -1.4831    -2.0638     0.0951 C.2     
   9 C9            -2.8514    -2.5993     0.2372 C.ar    
  10 C10           -0.6947     2.5193     2.0109 C.3     
  11 C11           -1.1111    -0.3885     2.5742 C.3     
  12 O12           -1.4366    -1.6264    -2.6401 O.2     
  13 O13           -0.5377    -2.8245     0.0158 O.2     
  14 C14           -3.0733    -3.9783     0.1736 C.ar    
  15 C15           -4.3494    -4.4761     0.3061 C.ar    
  16 C16           -5.4218    -3.6052     0.5035 C.ar    
  17 C17           -5.2019    -2.2286     0.5671 C.ar    
  18 C18           -3.9261    -1.7284     0.4411 C.ar    
  19 C19           -6.7960    -4.1429     0.6451 C.ar    
  20 C20           -7.8699    -3.2758     0.8423 C.ar    
  21 C21           -9.1469    -3.7821     0.9735 C.ar    
  22 C22           -9.3625    -5.1471     0.9101 C.ar    
  23 C23           -8.3009    -6.0123     0.7151 C.ar    
  24 C24           -7.0204    -5.5172     0.5758 C.ar    
  25 H25           -1.4903    -0.0033    -4.4114 H       
  26 H26            0.3703     2.6151     2.2224 H       
  27 H27           -1.0846     3.4776     1.6677 H       
  28 H28           -1.2194     2.2171     2.9172 H       
  29 H29           -2.1311    -0.3714     2.9580 H       
  30 H30           -0.7483    -1.4162     2.5521 H       
  31 H31           -0.4693     0.2095     3.2211 H       
  32 H32           -2.2436    -4.6525     0.0202 H       
  33 H33           -4.5211    -5.5412     0.2571 H       
  34 H34           -6.0328    -1.5557     0.7199 H       
  35 H35           -3.7561    -0.6630     0.4905 H       
  36 H36           -7.7026    -2.2100     0.8927 H       
  37 H37           -9.9795    -3.1115     1.1264 H       
  38 H38          -10.3636    -5.5389     1.0137 H       
  39 H39           -8.4752    -7.0771     0.6668 H       
  40 H40           -6.1923    -6.1936     0.4236 H       
@<TRIPOS>BOND
   1    1    2 2
   2    1   10 1
   3    1    5 1
   4    2    3 1
   5    2   11 1
   6    3    4 2
   7    3    8 1
   8    4    5 1
   9    4    6 1
  10    6    7 1
  11    6   12 2
  12    7   25 1
  13    8    9 1
  14    8   13 2
  15    9   14 ar
  16    9   18 ar
  17   10   26 1
  18   10   27 1
  19   10   28 1
  20   11   29 1
  21   11   30 1
  22   11   31 1
  23   14   15 ar
  24   14   32 1
  25   15   16 ar
  26   15   33 1
  27   16   17 ar
  28   16   19 1
  29   17   18 ar
  30   17   34 1
  31   18   35 1
  32   19   20 ar
  33   19   24 ar
  34   20   21 ar
  35   20   36 1
  36   21   22 ar
  37   21   37 1
  38   22   23 ar
  39   22   38 1
  40   23   24 ar
  41   23   39 1
  42   24   40 1

#	End of record

