#	Name: ASD01820070
#	Creating user name:	WinNT
#	Creation time:	15. 06. 2019 19:36

#	Modifying user name:	WinNT
#	Modification time:	15. 06. 2019 19:36

#	Program:	/corina/corina34_cracker 3.40 0067  02.08.2006

@<TRIPOS>MOLECULE
ASD01820070
  83   88    0    0    0
SMALL
NO_CHARGES


@<TRIPOS>ATOM
   1 C1            -0.0167     1.3781     0.0096 C.ar    
   2 C2             0.0021    -0.0041     0.0020 C.ar    
   3 C3             1.2063    -0.6904    -0.0131 C.ar    
   4 C4             2.3989     0.0151    -0.0207 C.ar    
   5 C5             2.3798     1.4244    -0.0130 C.ar    
   6 C6             1.1684     2.0970     0.0022 C.ar    
   7 C7             3.8259    -0.3700    -0.0364 C.2     
   8 N8             4.5720     0.7494    -0.0375 N.am    
   9 C9             3.7959     1.8481    -0.0242 C.2     
  10 O10            4.1923     2.9960    -0.0224 O.2     
  11 O11            4.2533    -1.5068    -0.0462 O.2     
  12 N12           10.0228     0.8400    -2.9758 N.ar    
  13 C13           10.6804    -0.3029    -2.9886 C.ar    
  14 C14           12.0623    -0.3234    -3.0019 C.ar    
  15 C15           12.7558     0.8772    -3.0020 C.ar    
  16 C16           12.0300     2.0585    -2.9887 C.ar    
  17 C17           10.6492     2.0005    -2.9809 C.ar    
  18 C18           14.2625     0.8977    -3.0157 C.3     
  19 C19           14.7592     0.9121    -4.4628 C.3     
  20 C20           16.2890     0.9330    -4.4767 C.3     
  21 C21           16.7783     0.9472    -5.9020 C.ar    
  22 C22           16.9925     2.1448    -6.5670 C.ar    
  23 C23           17.4415     2.1186    -7.8738 C.ar    
  24 N24           17.6651     0.9729    -8.4873 N.ar    
  25 C25           17.4718    -0.1848    -7.8863 C.ar    
  26 C26           17.0303    -0.2370    -6.5778 C.ar    
  27 C27           18.1402     0.9867    -9.8731 C.3     
  28 N28           22.1710     1.0560   -12.7351 N.am    
  29 C29           22.4031     2.1722   -13.4491 C.2     
  30 C30           22.8756     1.7813   -14.7940 C.ar    
  31 C31           22.8979     0.3720   -14.8004 C.ar    
  32 C32           22.4381    -0.0458   -13.4592 C.2     
  33 C33           23.2589     2.4817   -15.9265 C.ar    
  34 C34           23.6617     1.7904   -17.0584 C.ar    
  35 C35           23.6832     0.4083   -17.0649 C.ar    
  36 C36           23.3036    -0.3056   -15.9390 C.ar    
  37 O37           22.3219    -1.1920   -13.0749 O.2     
  38 O38           22.2496     3.3106   -13.0548 O.2     
  39 C39           19.6700     1.0072    -9.8876 C.3     
  40 C40           20.1661     1.0217   -11.3348 C.3     
  41 C41            8.5580     0.8201    -2.9615 C.3     
  42 C42            8.0623     0.8051    -1.5141 C.3     
  43 C43            6.5325     0.7843    -1.4992 C.3     
  44 C44            6.0368     0.7693    -0.0518 C.3     
  45 C45           21.6959     1.0422   -11.3493 C.3     
  46 H46           -0.9613     1.9015     0.0169 H       
  47 H47           -0.9280    -0.5530     0.0083 H       
  48 H48            1.2149    -1.7703    -0.0187 H       
  49 H49            1.1477     3.1767     0.0078 H       
  50 H50           10.1328    -1.2338    -2.9884 H       
  51 H51           12.5952    -1.2627    -3.0116 H       
  52 H52           12.5372     3.0120    -2.9881 H       
  53 H53           10.0765     2.9161    -2.9709 H       
  54 H54           14.6185     1.7899    -2.5005 H       
  55 H55           14.6426     0.0101    -2.5100 H       
  56 H56           14.4033     0.0200    -4.9780 H       
  57 H57           14.3792     1.7998    -4.9686 H       
  58 H58           16.6450     1.8251    -3.9615 H       
  59 H59           16.6691     0.0453    -3.9710 H       
  60 H60           16.8105     3.0863    -6.0701 H       
  61 H61           17.6108     3.0471    -8.3987 H       
  62 H62           17.6655    -1.1028    -8.4213 H       
  63 H63           16.8742    -1.1883    -6.0908 H       
  64 H64           17.7839     0.0947   -10.3882 H       
  65 H65           17.7601     1.8745   -10.3787 H       
  66 H66           23.2434     3.5616   -15.9274 H       
  67 H67           23.9606     2.3355   -17.9416 H       
  68 H68           23.9983    -0.1190   -17.9531 H       
  69 H69           23.3225    -1.3853   -15.9496 H       
  70 H70           20.0263     1.8993    -9.3724 H       
  71 H71           20.0500     0.1195    -9.3820 H       
  72 H72           19.8098     0.1296   -11.8500 H       
  73 H73           19.7861     1.9094   -11.8404 H       
  74 H74            8.1777     1.7079    -3.4667 H       
  75 H75            8.2018    -0.0719    -3.4768 H       
  76 H76            8.4427    -0.0827    -1.0089 H       
  77 H77            8.4186     1.6971    -0.9988 H       
  78 H78            6.1521     1.6721    -2.0043 H       
  79 H79            6.1762    -0.1077    -2.0145 H       
  80 H80            6.3931     1.6613     0.4635 H       
  81 H81            6.4172    -0.1185     0.4534 H       
  82 H82           22.0760     0.1544   -10.8437 H       
  83 H83           22.0522     1.9342   -10.8341 H       
@<TRIPOS>BOND
   1    1    2 ar
   2    1    6 ar
   3    1   46 1
   4    2    3 ar
   5    2   47 1
   6    3    4 ar
   7    3   48 1
   8    4    5 ar
   9    4    7 1
  10    5    6 ar
  11    5    9 1
  12    6   49 1
  13    7    8 am
  14    7   11 2
  15    8    9 am
  16    8   44 1
  17    9   10 2
  18   12   13 ar
  19   12   41 1
  20   12   17 ar
  21   13   14 ar
  22   13   50 1
  23   14   15 ar
  24   14   51 1
  25   15   16 ar
  26   15   18 1
  27   16   17 ar
  28   16   52 1
  29   17   53 1
  30   18   19 1
  31   18   54 1
  32   18   55 1
  33   19   20 1
  34   19   56 1
  35   19   57 1
  36   20   21 1
  37   20   58 1
  38   20   59 1
  39   21   22 ar
  40   21   26 ar
  41   22   23 ar
  42   22   60 1
  43   23   24 ar
  44   23   61 1
  45   24   25 ar
  46   24   27 1
  47   25   26 ar
  48   25   62 1
  49   26   63 1
  50   27   39 1
  51   27   64 1
  52   27   65 1
  53   28   29 am
  54   28   32 am
  55   28   45 1
  56   29   30 1
  57   29   38 2
  58   30   31 ar
  59   30   33 ar
  60   31   32 1
  61   31   36 ar
  62   32   37 2
  63   33   34 ar
  64   33   66 1
  65   34   35 ar
  66   34   67 1
  67   35   36 ar
  68   35   68 1
  69   36   69 1
  70   39   40 1
  71   39   70 1
  72   39   71 1
  73   40   45 1
  74   40   72 1
  75   40   73 1
  76   41   42 1
  77   41   74 1
  78   41   75 1
  79   42   43 1
  80   42   76 1
  81   42   77 1
  82   43   44 1
  83   43   78 1
  84   43   79 1
  85   44   80 1
  86   44   81 1
  87   45   82 1
  88   45   83 1

#	End of record

