#	Name: ASD00431252
#	Creating user name:	WinNT
#	Creation time:	15. 06. 2019 18:35

#	Modifying user name:	WinNT
#	Modification time:	15. 06. 2019 18:35

#	Program:	/corina/corina34_cracker 3.40 0067  02.08.2006

@<TRIPOS>MOLECULE
ASD00431252
  44   46    0    0    0
SMALL
NO_CHARGES


@<TRIPOS>ATOM
   1 C1            -0.0114     1.8250     0.1411 C.3     
   2 C2            -0.0263     0.2951     0.1419 C.3     
   3 C3             1.4140     2.3134     0.1130 C.2     
   4 C4             2.0998     2.7421     1.1758 C.2     
   5 C5             3.3943     3.1431     0.9140 C.2     
   6 C6             3.7652     3.0386    -0.3801 C.2     
   7 S7             2.4259     2.3972    -1.3227 S.3     
   8 S8             6.4446     4.0374     0.0077 S.3     
   9 C9             7.3939     4.1108    -1.4119 C.2     
  10 N10            6.7132     3.6912    -2.4320 N.2     
  11 C11            5.4750     3.3024    -2.2084 C.2     
  12 C12            5.0876     3.4005    -0.9180 C.2     
  13 O13            8.6760     4.5462    -1.4635 O.3     
  14 C14            9.3355     4.4500    -2.6485 C.ar    
  15 C15            8.9205     5.2041    -3.7366 C.ar    
  16 C16            9.5909     5.1067    -4.9402 C.ar    
  17 C17           10.6787     4.2546    -5.0613 C.ar    
  18 C18           11.0933     3.5002    -3.9737 C.ar    
  19 C19           10.4270     3.6021    -2.7682 C.ar    
  20 O20           11.3383     4.1584    -6.2465 O.3     
  21 C21           10.7769     4.8566    -7.3598 C.3     
  22 C22           11.4234     6.2386    -7.4738 C.3     
  23 C23           11.0375     4.0643    -8.6426 C.3     
  24 F24            0.6508    -0.1773     1.2713 F       
  25 F25           -1.3496    -0.1583     0.1680 F       
  26 F26            0.6061    -0.1780    -1.0129 F       
  27 N27           -0.7224     2.3211    -1.0447 N.3     
  28 H28           -0.5041     2.1936     1.0408 H       
  29 H29            1.6727     2.7730     2.1672 H       
  30 H30            4.0575     3.5114     1.6828 H       
  31 H31            4.8249     2.9371    -2.9897 H       
  32 H32            8.0732     5.8671    -3.6425 H       
  33 H33            9.2679     5.6938    -5.7872 H       
  34 H34           11.9401     2.8365    -4.0682 H       
  35 H35           10.7528     3.0184    -1.9200 H       
  36 H36            9.7026     4.9689    -7.2141 H       
  37 H37           11.2378     6.8030    -6.5600 H       
  38 H38           12.4978     6.1262    -7.6195 H       
  39 H39           10.9953     6.7711    -8.3230 H       
  40 H40           10.5769     3.0797    -8.5614 H       
  41 H41           10.6093     4.5968    -9.4918 H       
  42 H42           12.1118     3.9520    -8.7883 H       
  43 H43           -0.2846     1.9928    -1.8925 H       
  44 H44           -1.6970     2.0612    -1.0170 H       
@<TRIPOS>BOND
   1    1    2 1
   2    1    3 1
   3    1   27 1
   4    1   28 1
   5    2   24 1
   6    2   25 1
   7    2   26 1
   8    3    4 2
   9    3    7 1
  10    4    5 1
  11    4   29 1
  12    5    6 2
  13    5   30 1
  14    6    7 1
  15    6   12 1
  16    8    9 1
  17    8   12 1
  18    9   10 2
  19    9   13 1
  20   10   11 1
  21   11   12 2
  22   11   31 1
  23   13   14 1
  24   14   15 ar
  25   14   19 ar
  26   15   16 ar
  27   15   32 1
  28   16   17 ar
  29   16   33 1
  30   17   18 ar
  31   17   20 1
  32   18   19 ar
  33   18   34 1
  34   19   35 1
  35   20   21 1
  36   21   22 1
  37   21   23 1
  38   21   36 1
  39   22   37 1
  40   22   38 1
  41   22   39 1
  42   23   40 1
  43   23   41 1
  44   23   42 1
  45   27   43 1
  46   27   44 1

#	End of record

