#	Name: ASD02408076
#	Creating user name:	WinNT
#	Creation time:	15. 06. 2019 20:21

#	Modifying user name:	WinNT
#	Modification time:	15. 06. 2019 20:21

#	Program:	/corina/corina34_cracker 3.40 0067  02.08.2006

@<TRIPOS>MOLECULE
ASD02408076
  47   49    0    0    0
SMALL
NO_CHARGES


@<TRIPOS>ATOM
   1 C1             0.7891     1.0362    -0.0034 C.ar    
   2 C2             1.0305    -0.3238    -0.0511 C.ar    
   3 C3             1.9312     2.0095    -0.1424 C.3     
   4 C4             2.1468     2.3262    -1.5999 C.2     
   5 N5             3.0595     3.2583    -1.9356 N.am    
   6 N6             1.4468     1.6842    -2.4953 N.2     
   7 C7             1.5962     1.9236    -3.8044 C.2     
   8 C8             2.5275     2.8875    -4.2247 C.2     
   9 C9             3.2787     3.5666    -3.2312 C.2     
  10 N10            0.8474     1.2338    -4.7260 N.pl3   
  11 C11           -0.4059     1.7979    -5.2454 C.3     
  12 O12            4.1002     4.4123    -3.5404 O.2     
  13 C13           -0.0173    -1.2168     0.0764 C.ar    
  14 C14           -1.3061    -0.7494     0.2521 C.ar    
  15 C15           -1.5474     0.6111     0.3008 C.ar    
  16 C16           -0.5009     1.5038     0.1661 C.ar    
  17 C17            0.2458    -2.6997     0.0234 C.3     
  18 C18           -1.5276     0.7738    -5.0458 C.3     
  19 C19           -1.1214    -0.5537    -5.6899 C.3     
  20 C20            0.1439    -1.0851    -5.0126 C.3     
  21 C21            1.2874    -0.0796    -5.2160 C.3     
  22 C22           -0.7434     3.0828    -4.4864 C.3     
  23 O23           -1.0118     2.7710    -3.1178 O.3     
  24 C24            2.7169     3.1725    -5.6152 C.1     
  25 N25            2.8671     3.3985    -6.7183 N.1     
  26 H26            2.0376    -0.6891    -0.1884 H       
  27 H27            1.6949     2.9264     0.3975 H       
  28 H28            2.8376     1.5675     0.2713 H       
  29 H29            3.5626     3.7116    -1.2412 H       
  30 H30           -0.2956     2.0168    -6.3075 H       
  31 H31           -2.1247    -1.4469     0.3511 H       
  32 H32           -2.5545     0.9763     0.4377 H       
  33 H33           -0.6894     2.5665     0.2041 H       
  34 H34            0.4439    -3.0697     1.0294 H       
  35 H35           -0.6267    -3.2091    -0.3858 H       
  36 H36            1.1104    -2.8929    -0.6116 H       
  37 H37           -1.6979     0.6239    -3.9797 H       
  38 H38           -2.4419     1.1400    -5.5128 H       
  39 H39           -1.9281    -1.2770    -5.5707 H       
  40 H40           -0.9273    -0.3981    -6.7511 H       
  41 H41           -0.0421    -1.2175    -3.9468 H       
  42 H42            0.4194    -2.0420    -5.4560 H       
  43 H43            1.5342    -0.0163    -6.2758 H       
  44 H44            2.1632    -0.4035    -4.6536 H       
  45 H45            0.1000     3.7708    -4.5436 H       
  46 H46           -1.6226     3.5479    -4.9322 H       
  47 H47           -1.3096     3.5269    -2.5934 H       
@<TRIPOS>BOND
   1    1    2 ar
   2    1    3 1
   3    1   16 ar
   4    2   13 ar
   5    2   26 1
   6    3    4 1
   7    3   27 1
   8    3   28 1
   9    4    5 1
  10    4    6 2
  11    5    9 am
  12    5   29 1
  13    6    7 1
  14    7    8 2
  15    7   10 1
  16    8    9 1
  17    8   24 1
  18    9   12 2
  19   10   11 1
  20   10   21 1
  21   11   18 1
  22   11   22 1
  23   11   30 1
  24   13   14 ar
  25   13   17 1
  26   14   15 ar
  27   14   31 1
  28   15   16 ar
  29   15   32 1
  30   16   33 1
  31   17   34 1
  32   17   35 1
  33   17   36 1
  34   18   19 1
  35   18   37 1
  36   18   38 1
  37   19   20 1
  38   19   39 1
  39   19   40 1
  40   20   21 1
  41   20   41 1
  42   20   42 1
  43   21   43 1
  44   21   44 1
  45   22   23 1
  46   22   45 1
  47   22   46 1
  48   23   47 1
  49   24   25 3

#	End of record

