#	Name: ASD01410029
#	Creating user name:	WinNT
#	Creation time:	15. 06. 2019 19:16

#	Modifying user name:	WinNT
#	Modification time:	15. 06. 2019 19:16

#	Program:	/corina/corina34_cracker 3.40 0067  02.08.2006

@<TRIPOS>MOLECULE
ASD01410029
  39   40    0    0    0
SMALL
NO_CHARGES


@<TRIPOS>ATOM
   1 C1            -2.7933    -3.1258    -3.2022 C.ar    
   2 C2            -1.8763    -3.0604    -2.1682 C.ar    
   3 C3            -2.1217    -2.2506    -1.0763 C.ar    
   4 C4            -3.2885    -1.5027    -1.0169 C.ar    
   5 C5            -4.2067    -1.5696    -2.0546 C.ar    
   6 C6            -3.9552    -2.3765    -3.1473 C.ar    
   7 O7            -3.5320    -0.7057     0.0569 O.3     
   8 C8            -4.6815     0.1406    -0.0107 C.3     
   9 C9            -5.9201    -0.7053    -0.1570 C.2     
  10 N10           -7.1306    -0.1187    -0.2409 N.am    
  11 C11           -8.2818    -0.9011    -0.2867 C.ar    
  12 C12           -8.2764    -2.1109    -0.9673 C.ar    
  13 C13           -9.4187    -2.8849    -1.0115 C.ar    
  14 C14          -10.5770    -2.4627    -0.3795 C.ar    
  15 C15          -10.6015    -1.2646     0.3011 C.ar    
  16 C16           -9.4517    -0.4731     0.3600 C.ar    
  17 C17           -9.4706     0.8091     1.0865 C.2     
  18 O18          -10.5690     1.1774     1.7748 O.3     
  19 O19           -8.4957     1.5341     1.0649 O.2     
  20 O20           -5.8276    -1.9138    -0.1992 O.2     
  21 Cl21          -2.4823    -4.1438    -4.5736 Cl      
  22 C22           -4.7794     0.9711     1.2705 C.3     
  23 C23           -4.5568     1.0750    -1.2158 C.3     
  24 H24           -0.9681    -3.6432    -2.2146 H       
  25 H25           -1.4059    -2.2001    -0.2692 H       
  26 H26           -5.1157    -0.9880    -2.0101 H       
  27 H27           -4.6697    -2.4286    -3.9555 H       
  28 H28           -7.2001     0.8484    -0.2694 H       
  29 H29           -7.3777    -2.4468    -1.4631 H       
  30 H30           -9.4094    -3.8254    -1.5423 H       
  31 H31          -11.4654    -3.0754    -0.4208 H       
  32 H32          -11.5072    -0.9399     0.7917 H       
  33 H33          -10.5342     2.0270     2.2354 H       
  34 H34           -3.8474     1.5154     1.4228 H       
  35 H35           -5.6034     1.6791     1.1825 H       
  36 H36           -4.9572     0.3104     2.1191 H       
  37 H37           -4.5657     0.4872    -2.1337 H       
  38 H38           -5.3943     1.7725    -1.2229 H       
  39 H39           -3.6215     1.6308    -1.1494 H       
@<TRIPOS>BOND
   1    1    2 ar
   2    1   21 1
   3    1    6 ar
   4    2    3 ar
   5    2   24 1
   6    3    4 ar
   7    3   25 1
   8    4    5 ar
   9    4    7 1
  10    5    6 ar
  11    5   26 1
  12    6   27 1
  13    7    8 1
  14    8    9 1
  15    8   22 1
  16    8   23 1
  17    9   10 am
  18    9   20 2
  19   10   11 1
  20   10   28 1
  21   11   12 ar
  22   11   16 ar
  23   12   13 ar
  24   12   29 1
  25   13   14 ar
  26   13   30 1
  27   14   15 ar
  28   14   31 1
  29   15   16 ar
  30   15   32 1
  31   16   17 1
  32   17   18 1
  33   17   19 2
  34   18   33 1
  35   22   34 1
  36   22   35 1
  37   22   36 1
  38   23   37 1
  39   23   38 1
  40   23   39 1

#	End of record

