#	Name: ASD01120285
#	Creating user name:	WinNT
#	Creation time:	15. 06. 2019 18:59

#	Modifying user name:	WinNT
#	Modification time:	15. 06. 2019 18:59

#	Program:	/corina/corina34_cracker 3.40 0067  02.08.2006

@<TRIPOS>MOLECULE
ASD01120285
  43   45    0    0    0
SMALL
NO_CHARGES


@<TRIPOS>ATOM
   1 C1             0.3597     1.2518     0.6220 C.3     
   2 C2             0.2681    -0.2248     0.2321 C.3     
   3 O3            -1.0771    -0.7095     0.4843 O.3     
   4 C4            -1.3270    -2.0023     0.1920 C.2     
   5 O5            -0.4441    -2.7048    -0.2612 O.2     
   6 C6            -2.6640    -2.5608     0.4210 C.2     
   7 N7            -3.7479    -1.8671     0.9294 N.pl3   
   8 C8            -4.8244    -2.7202     0.9993 C.ar    
   9 C9            -4.3989    -3.9750     0.5226 C.ar    
  10 C10           -3.0393    -3.8430     0.1621 C.2     
  11 C11           -5.3089    -5.0489     0.4822 C.ar    
  12 C12           -6.6097    -4.8572     0.9114 C.ar    
  13 C13           -7.0183    -3.6171     1.3791 C.ar    
  14 C14           -6.1395    -2.5568     1.4252 C.ar    
  15 N15           -6.5951    -1.2411     1.9283 N.pl3   
  16 O16           -7.7457    -1.0967     2.3010 O.2     
  17 O17           -5.8193    -0.3030     1.9695 O.2     
  18 N18           -4.9023    -6.2947     0.0130 N.pl3   
  19 C19           -5.7586    -7.3962     0.1198 C.ar    
  20 C20           -5.8824    -8.2855    -0.9399 C.ar    
  21 C21           -6.7273    -9.3725    -0.8334 C.ar    
  22 C22           -7.4525    -9.5763     0.3315 C.ar    
  23 C23           -7.3295    -8.6887     1.3903 C.ar    
  24 C24           -6.4811    -7.6040     1.2876 C.ar    
  25 O25           -8.2847   -10.6468     0.4353 O.3     
  26 C26           -9.0006   -10.7954     1.6630 C.3     
  27 H27            1.3696     1.6157     0.4327 H       
  28 H28           -0.3512     1.8286     0.0303 H       
  29 H29            0.1258     1.3633     1.6808 H       
  30 H30            0.5020    -0.3362    -0.8267 H       
  31 H31            0.9790    -0.8016     0.8238 H       
  32 H32           -3.7483    -0.9337     1.1933 H       
  33 H33           -2.4091    -4.6217    -0.2414 H       
  34 H34           -7.3113    -5.6778     0.8820 H       
  35 H35           -8.0369    -3.4810     1.7113 H       
  36 H36           -4.0252    -6.3993    -0.3880 H       
  37 H37           -5.3182    -8.1267    -1.8470 H       
  38 H38           -6.8240   -10.0639    -1.6574 H       
  39 H39           -7.8945    -8.8482     2.2968 H       
  40 H40           -6.3852    -6.9132     2.1123 H       
  41 H41           -9.6285    -9.9194     1.8258 H       
  42 H42           -9.6261   -11.6866     1.6134 H       
  43 H43           -8.2932   -10.8934     2.4865 H       
@<TRIPOS>BOND
   1    1    2 1
   2    1   27 1
   3    1   28 1
   4    1   29 1
   5    2    3 1
   6    2   30 1
   7    2   31 1
   8    3    4 1
   9    4    5 2
  10    4    6 1
  11    6    7 1
  12    6   10 2
  13    7    8 1
  14    7   32 1
  15    8    9 ar
  16    8   14 ar
  17    9   10 1
  18    9   11 ar
  19   10   33 1
  20   11   12 ar
  21   11   18 1
  22   12   13 ar
  23   12   34 1
  24   13   14 ar
  25   13   35 1
  26   14   15 1
  27   15   16 2
  28   15   17 2
  29   18   19 1
  30   18   36 1
  31   19   20 ar
  32   19   24 ar
  33   20   21 ar
  34   20   37 1
  35   21   22 ar
  36   21   38 1
  37   22   23 ar
  38   22   25 1
  39   23   24 ar
  40   23   39 1
  41   24   40 1
  42   25   26 1
  43   26   41 1
  44   26   42 1
  45   26   43 1

#	End of record

