#	Name: ASD01880517
#	Creating user name:	WinNT
#	Creation time:	15. 06. 2019 19:40

#	Modifying user name:	WinNT
#	Modification time:	15. 06. 2019 19:40

#	Program:	/corina/corina34_cracker 3.40 0067  02.08.2006

@<TRIPOS>MOLECULE
ASD01880517
  50   53    0    0    0
SMALL
NO_CHARGES


@<TRIPOS>ATOM
   1 N1            -0.0140     1.3135    -0.0043 N.ar    
   2 C2             0.0050    -0.0048    -0.0251 C.ar    
   3 N3             1.1360    -0.6834    -0.0540 N.ar    
   4 C4             2.3058    -0.0603    -0.0636 C.ar    
   5 C5             2.3343     1.3205    -0.0430 C.ar    
   6 C6             1.1199     2.0086    -0.0122 C.ar    
   7 C7             3.6440     2.0659    -0.0525 C.3     
   8 O8             4.7241     1.1307    -0.0840 O.3     
   9 C9             5.9813     1.6417    -0.0963 C.ar    
  10 C10            7.0788     0.7868    -0.1268 C.ar    
  11 C11            8.3499     1.3049    -0.1397 C.ar    
  12 C12            8.5502     2.6893    -0.1222 C.ar    
  13 C13            7.4444     3.5434    -0.0919 C.ar    
  14 C14            6.1713     3.0184    -0.0841 C.ar    
  15 C15            9.7210     0.6768    -0.1713 C.3     
  16 N16           10.6804     1.7870    -0.1702 N.am    
  17 C17           10.0007     2.9462    -0.1419 C.2     
  18 O18           10.5105     4.0500    -0.1340 O.2     
  19 Cl19          -1.4993    -0.8712    -0.0138 Cl      
  20 N20            1.0962     3.3947     0.0094 N.pl3   
  21 C21           -0.1219     4.0744    -0.0809 C.ar    
  22 C22           -0.3049     5.2689     0.6042 C.ar    
  23 C23           -1.5096     5.9379     0.5130 C.ar    
  24 C24           -2.5332     5.4197    -0.2590 C.ar    
  25 C25           -2.3544     4.2308    -0.9423 C.ar    
  26 C26           -1.1501     3.5599    -0.8603 C.ar    
  27 C27           14.1474     1.4898    -1.6726 C.3     
  28 C28           12.6240     1.6288    -1.6463 C.3     
  29 C29           12.1391     1.6539    -0.1954 C.3     
  30 H30            3.2258    -0.6256    -0.0869 H       
  31 H31            3.6916     2.7057    -0.9337 H       
  32 H32            3.7200     2.6785     0.8458 H       
  33 H33            6.9307    -0.2829    -0.1401 H       
  34 H34            7.5881     4.6138    -0.0778 H       
  35 H35            5.3172     3.6790    -0.0611 H       
  36 H36            9.8681     0.0536     0.7109 H       
  37 H37            9.8391     0.0804    -1.0759 H       
  38 H38            1.9250     3.8927     0.0871 H       
  39 H39            0.4940     5.6737     1.2079 H       
  40 H40           -1.6525     6.8666     1.0453 H       
  41 H41           -3.4746     5.9445    -0.3281 H       
  42 H42           -3.1560     3.8287    -1.5441 H       
  43 H43           -1.0110     2.6315    -1.3943 H       
  44 H44           14.4928     1.4719    -2.7063 H       
  45 H45           14.5984     2.3354    -1.1534 H       
  46 H46           14.4363     0.5630    -1.1769 H       
  47 H47           12.3351     2.5556    -2.1420 H       
  48 H48           12.1729     0.7832    -2.1655 H       
  49 H49           12.5901     2.4995     0.3238 H       
  50 H50           12.4280     0.7271     0.3003 H       
@<TRIPOS>BOND
   1    1    2 ar
   2    1    6 ar
   3    2    3 ar
   4    2   19 1
   5    3    4 ar
   6    4    5 ar
   7    4   30 1
   8    5    6 ar
   9    5    7 1
  10    6   20 1
  11    7    8 1
  12    7   31 1
  13    7   32 1
  14    8    9 1
  15    9   10 ar
  16    9   14 ar
  17   10   11 ar
  18   10   33 1
  19   11   12 ar
  20   11   15 1
  21   12   13 ar
  22   12   17 1
  23   13   14 ar
  24   13   34 1
  25   14   35 1
  26   15   16 1
  27   15   36 1
  28   15   37 1
  29   16   17 am
  30   16   29 1
  31   17   18 2
  32   20   21 1
  33   20   38 1
  34   21   22 ar
  35   21   26 ar
  36   22   23 ar
  37   22   39 1
  38   23   24 ar
  39   23   40 1
  40   24   25 ar
  41   24   41 1
  42   25   26 ar
  43   25   42 1
  44   26   43 1
  45   27   28 1
  46   27   44 1
  47   27   45 1
  48   27   46 1
  49   28   29 1
  50   28   47 1
  51   28   48 1
  52   29   49 1
  53   29   50 1

#	End of record

