#	Name: ASD03330037
#	Creating user name:	WinNT
#	Creation time:	15. 06. 2019 20:36

#	Modifying user name:	WinNT
#	Modification time:	15. 06. 2019 20:36

#	Program:	/corina/corina34_cracker 3.40 0067  02.08.2006

@<TRIPOS>MOLECULE
ASD03330037
  70   74    0    0    0
SMALL
NO_CHARGES


@<TRIPOS>ATOM
   1 N1            -0.0167     1.3772     0.0096 N.pl3   
   2 C2             0.0021    -0.0041     0.0020 C.2     
   3 C3             1.2915    -0.4320    -0.0126 C.2     
   4 C4             2.1257     0.7121    -0.0144 C.ar    
   5 C5             3.5154     0.8895    -0.0271 C.ar    
   6 C6             4.0390     2.1504    -0.0257 C.ar    
   7 C7             3.2050     3.2628    -0.0118 C.ar    
   8 C8             1.8365     3.1135     0.0008 C.ar    
   9 C9             1.2792     1.8376    -0.0003 C.ar    
  10 C10           -1.1845    -0.8728     0.0091 C.2     
  11 O11           -1.0529    -2.0821     0.0018 O.2     
  12 N12           -2.4176    -0.3291     0.0237 N.am    
  13 C13           -3.5996    -1.1946     0.0308 C.3     
  14 C14           -4.8632    -0.3320     0.0473 C.3     
  15 C15           -6.0791    -1.2222     0.0546 C.ar    
  16 C16           -6.6242    -1.6357     1.2563 C.ar    
  17 C17           -7.7384    -2.4516     1.2666 C.ar    
  18 C18           -8.3117    -2.8568     0.0679 C.ar    
  19 C19           -7.7616    -2.4395    -1.1375 C.ar    
  20 C20           -6.6507    -1.6191    -1.1405 C.ar    
  21 N21           -9.4384    -3.6823     0.0746 N.3     
  22 C22           -9.8762    -3.9862    -1.2937 C.3     
  23 C23          -11.0176    -5.0048    -1.2510 C.3     
  24 C24          -12.1805    -4.4273    -0.4394 C.3     
  25 C25          -11.6860    -4.0744     0.9661 C.3     
  26 C26          -10.5253    -3.0827     0.8592 C.3     
  27 C27            1.7515    -1.8671    -0.0247 C.3     
  28 C28            1.8940    -2.3448    -1.4712 C.3     
  29 C29            2.4790    -3.7584    -1.4861 C.3     
  30 C30            2.6215    -4.2362    -2.9326 C.3     
  31 C31            1.2468    -4.2460    -3.6042 C.3     
  32 C32            0.6617    -2.8324    -3.5893 C.3     
  33 C33            0.5193    -2.3547    -2.1428 C.3     
  34 Cl34           5.7614     2.3667    -0.0409 Cl      
  35 H35           -0.8129     1.9312     0.0165 H       
  36 H36            4.1708     0.0311    -0.0376 H       
  37 H37            3.6349     4.2535    -0.0106 H       
  38 H38            1.1970     3.9837     0.0119 H       
  39 H39           -2.5225     0.6352     0.0296 H       
  40 H40           -3.5979    -1.8193    -0.8624 H       
  41 H41           -3.5807    -1.8282     0.9175 H       
  42 H42           -4.8650     0.2928     0.9405 H       
  43 H43           -4.8821     0.3017    -0.8394 H       
  44 H44           -6.1778    -1.3206     2.1879 H       
  45 H45           -8.1634    -2.7745     2.2055 H       
  46 H46           -8.2049    -2.7527    -2.0712 H       
  47 H47           -6.2253    -1.2905    -2.0772 H       
  48 H48          -10.2231    -3.0721    -1.7755 H       
  49 H49           -9.0411    -4.4000    -1.8588 H       
  50 H50          -11.3528    -5.2184    -2.2660 H       
  51 H51          -10.6675    -5.9242    -0.7818 H       
  52 H52          -12.5562    -3.5292    -0.9296 H       
  53 H53          -12.9786    -5.1664    -0.3699 H       
  54 H54          -12.4989    -3.6232     1.5352 H       
  55 H55          -11.3465    -4.9791     1.4702 H       
  56 H56          -10.1616    -2.8404     1.8577 H       
  57 H57          -10.8691    -2.1728     0.3673 H       
  58 H58            2.7145    -1.9442     0.4800 H       
  59 H59            1.0196    -2.4876     0.4925 H       
  60 H60            2.5580    -1.6710    -2.0126 H       
  61 H61            3.4584    -3.7514    -1.0077 H       
  62 H62            1.8150    -4.4322    -0.9447 H       
  63 H63            3.2856    -3.5624    -3.4741 H       
  64 H64            3.0383    -5.2433    -2.9433 H       
  65 H65            1.3483    -4.5864    -4.6347 H       
  66 H66            0.5828    -4.9198    -3.0628 H       
  67 H67            1.3258    -2.1586    -4.1307 H       
  68 H68           -0.3176    -2.8394    -4.0677 H       
  69 H69           -0.1448    -3.0285    -1.6013 H       
  70 H70            0.1025    -1.3476    -2.1321 H       
@<TRIPOS>BOND
   1    1    2 1
   2    1    9 1
   3    1   35 1
   4    2    3 2
   5    2   10 1
   6    3    4 1
   7    3   27 1
   8    4    5 ar
   9    4    9 ar
  10    5    6 ar
  11    5   36 1
  12    6    7 ar
  13    6   34 1
  14    7    8 ar
  15    7   37 1
  16    8    9 ar
  17    8   38 1
  18   10   11 2
  19   10   12 am
  20   12   13 1
  21   12   39 1
  22   13   14 1
  23   13   40 1
  24   13   41 1
  25   14   15 1
  26   14   42 1
  27   14   43 1
  28   15   16 ar
  29   15   20 ar
  30   16   17 ar
  31   16   44 1
  32   17   18 ar
  33   17   45 1
  34   18   19 ar
  35   18   21 1
  36   19   20 ar
  37   19   46 1
  38   20   47 1
  39   21   22 1
  40   21   26 1
  41   22   23 1
  42   22   48 1
  43   22   49 1
  44   23   24 1
  45   23   50 1
  46   23   51 1
  47   24   25 1
  48   24   52 1
  49   24   53 1
  50   25   26 1
  51   25   54 1
  52   25   55 1
  53   26   56 1
  54   26   57 1
  55   27   28 1
  56   27   58 1
  57   27   59 1
  58   28   29 1
  59   28   33 1
  60   28   60 1
  61   29   30 1
  62   29   61 1
  63   29   62 1
  64   30   31 1
  65   30   63 1
  66   30   64 1
  67   31   32 1
  68   31   65 1
  69   31   66 1
  70   32   33 1
  71   32   67 1
  72   32   68 1
  73   33   69 1
  74   33   70 1

#	End of record

