#	Name: ASD04390003
#	Creating user name:	WinNT
#	Creation time:	15. 06. 2019 20:49

#	Modifying user name:	WinNT
#	Modification time:	15. 06. 2019 20:49

#	Program:	/corina/corina34_cracker 3.40 0067  02.08.2006

@<TRIPOS>MOLECULE
ASD04390003
 206  208    0    0    0
SMALL
NO_CHARGES


@<TRIPOS>ATOM
   1 N1            -6.0528     6.6401     2.0873 N.3     
   2 C2            -5.9453     5.3104     1.4723 C.3     
   3 C3            -7.1519     4.4868     1.8423 C.2     
   4 O4            -8.1652     5.0332     2.2239 O.2     
   5 C5            -5.8746     5.4564    -0.0491 C.3     
   6 C6            -4.5848     6.1850    -0.4321 C.3     
   7 C7            -4.5141     6.3309    -1.9535 C.3     
   8 N8            -3.2792     7.0285    -2.3202 N.pl3   
   9 C9            -2.9962     7.2759    -3.6427 C.2     
  10 N10           -1.8974     7.8966    -3.9690 N.2     
  11 N11           -3.8721     6.8686    -4.6209 N.pl3   
  12 N12           -7.1048     3.1431     1.7493 N.am    
  13 C13           -8.2778     2.3424     2.1091 C.3     
  14 C14           -8.2287     1.0241     1.3805 C.2     
  15 O15           -7.3050     0.7777     0.6343 O.2     
  16 C16           -8.2804     2.0913     3.6183 C.3     
  17 C17           -8.4557     3.4201     4.3561 C.3     
  18 C18           -9.8354     4.0009     4.0400 C.3     
  19 C19           -8.3338     3.1866     5.8633 C.3     
  20 N20           -9.2114     0.1190     1.5583 N.am    
  21 C21           -9.1638    -1.1625     0.8501 C.3     
  22 C22           -9.9507    -2.1915     1.6201 C.2     
  23 O23          -10.4975    -1.8846     2.6582 O.2     
  24 C24           -9.7691    -0.9969    -0.5453 C.3     
  25 C25           -8.9114    -0.0607    -1.3571 C.2     
  26 C26           -7.8155    -0.3887    -2.0678 C.2     
  27 N27           -9.0999     1.2854    -1.5185 N.pl3   
  28 C28           -8.1091     1.7344    -2.3187 C.2     
  29 N29           -7.3448     0.7277    -2.6433 N.2     
  30 N30          -10.0468    -3.4529     1.1551 N.am    
  31 C31          -10.8118    -4.4532     1.9036 C.3     
  32 C32          -11.2868    -5.5300     0.9623 C.2     
  33 O33          -11.0133    -5.4679    -0.2176 O.2     
  34 C34           -9.9212    -5.0746     2.9815 C.3     
  35 S35           -9.4699    -3.8067     4.1978 S.3     
  36 N36          -12.0156    -6.5620     1.4318 N.am    
  37 C37          -12.4774    -7.6087     0.5167 C.3     
  38 C38          -12.7013    -8.8853     1.2857 C.2     
  39 O39          -12.6862    -8.8733     2.4984 O.2     
  40 C40          -13.7891    -7.1712    -0.1383 C.3     
  41 C41          -14.8014    -6.7983     0.9466 C.3     
  42 C42          -13.5318    -5.9580    -1.0344 C.3     
  43 N43          -12.9182   -10.0402     0.6259 N.am    
  44 C44          -13.0257   -11.2988     1.3680 C.3     
  45 C45          -13.8400   -12.2844     0.5701 C.2     
  46 O46          -14.2865   -11.9669    -0.5118 O.2     
  47 C47          -11.6269   -11.8698     1.6090 C.3     
  48 C48          -10.8416   -10.9268     2.5229 C.3     
  49 C49           -9.4638   -11.4892     2.7603 C.2     
  50 O50           -9.1428   -12.5368     2.2509 O.2     
  51 O51           -8.5932   -10.8264     3.5377 O.3     
  52 N52          -14.0720   -13.5188     1.0590 N.am    
  53 C53          -14.8635   -14.4770     0.2834 C.3     
  54 C54          -14.4885   -15.8801     0.6853 C.2     
  55 O55          -13.6432   -16.0619     1.5358 O.2     
  56 C56          -16.3515   -14.2487     0.5567 C.3     
  57 C57          -16.7540   -12.8904     0.0426 C.2     
  58 C58          -16.8134   -11.7532     0.7532 C.2     
  59 C59          -17.1486   -12.5596    -1.3288 C.ar    
  60 C60          -17.4323   -11.1815    -1.3300 C.ar    
  61 C61          -17.2775   -13.2982    -2.5063 C.ar    
  62 N62          -17.2186   -10.7219    -0.0497 N.pl3   
  63 C63          -17.8396   -10.5707    -2.5112 C.ar    
  64 C64          -17.6792   -12.6777    -3.6558 C.ar    
  65 C65          -17.9602   -11.3186    -3.6621 C.ar    
  66 N66          -15.0924   -16.9331     0.0995 N.am    
  67 C67          -14.7279   -18.2971     0.4902 C.3     
  68 C68          -15.8792   -19.2264     0.2038 C.2     
  69 O69          -16.8241   -18.8377    -0.4497 O.2     
  70 C70          -13.5007   -18.7450    -0.3062 C.3     
  71 C71          -13.8151   -18.6881    -1.8025 C.3     
  72 O72          -12.4025   -17.8776    -0.0169 O.3     
  73 N73          -15.8587   -20.4894     0.6737 N.am    
  74 C74          -16.9342   -21.4196     0.3211 C.3     
  75 C75          -16.3486   -22.7773     0.0299 C.2     
  76 O76          -15.1590   -22.9673     0.1695 O.2     
  77 C77          -17.9177   -21.5281     1.4881 C.3     
  78 C78          -17.1537   -21.8704     2.7688 C.3     
  79 C79          -18.6439   -20.1936     1.6688 C.3     
  80 C80          -16.5491   -23.2702     2.6433 C.3     
  81 N81          -17.1470   -23.7804    -0.3858 N.am    
  82 C82          -16.5650   -25.0692    -0.7687 C.3     
  83 C83          -17.5948   -26.1561    -0.5979 C.2     
  84 O84          -18.7055   -25.8813    -0.1959 O.2     
  85 C85          -16.1201   -25.0134    -2.2316 C.3     
  86 C86          -14.9866   -23.9967    -2.3815 C.3     
  87 C87          -13.7611   -24.4809    -1.6040 C.3     
  88 C88          -14.6263   -23.8492    -3.8612 C.3     
  89 N89          -17.2814   -27.4335    -0.8919 N.am    
  90 C90          -18.2825   -28.4901    -0.7259 C.3     
  91 C91          -17.9556   -29.6405    -1.6429 C.2     
  92 O92          -16.9822   -29.5833    -2.3641 O.2     
  93 C93          -18.2751   -28.9763     0.7248 C.3     
  94 C94          -18.7280   -27.8413     1.6454 C.3     
  95 C95          -18.7207   -28.3202     3.0743 C.2     
  96 O96          -18.3874   -29.4531     3.3301 O.2     
  97 O97          -19.0844   -27.4882     4.0628 O.3     
  98 N98          -18.7449   -30.7328    -1.6615 N.am    
  99 C99          -18.4271   -31.8510    -2.5529 C.3     
 100 C100         -19.0156   -33.1212    -1.9949 C.2     
 101 O101         -18.2947   -34.0488    -1.7153 O.2     
 102 C102         -19.0165   -31.5818    -3.9390 C.3     
 103 H103          -5.2258     7.1896     1.9075 H       
 104 H104          -6.8817     7.1197     1.7694 H       
 105 H105          -5.0433     4.8155     1.8321 H       
 106 H106          -5.8844     4.4686    -0.5097 H       
 107 H107          -6.7332     6.0292    -0.3994 H       
 108 H108          -4.5750     7.1728     0.0285 H       
 109 H109          -3.7262     5.6121    -0.0818 H       
 110 H110          -4.5239     5.3431    -2.4141 H       
 111 H111          -5.3727     6.9038    -2.3038 H       
 112 H112          -2.6612     7.3159    -1.6300 H       
 113 H113          -1.6977     8.0711    -4.9020 H       
 114 H114          -4.6898     6.4067    -4.3781 H       
 115 H115          -3.6724     7.0432    -5.5540 H       
 116 H116          -6.2944     2.7061     1.4442 H       
 117 H117          -9.1840     2.8792     1.8284 H       
 118 H118          -9.1024     1.4226     3.8739 H       
 119 H119          -7.3355     1.6344     3.9123 H       
 120 H120          -7.6844     4.1195     4.0333 H       
 121 H121          -9.9223     4.1673     2.9663 H       
 122 H122         -10.6067     3.3016     4.3629 H       
 123 H123          -9.9603     4.9476     4.5656 H       
 124 H124          -7.3508     2.7728     6.0885 H       
 125 H125          -8.4586     4.1333     6.3889 H       
 126 H126          -9.1050     2.4873     6.1861 H       
 127 H127          -9.9502     0.3162     2.1551 H       
 128 H128          -8.1279    -1.4897     0.7603 H       
 129 H129          -9.8150    -1.9676    -1.0390 H       
 130 H130         -10.7747    -0.5854    -0.4587 H       
 131 H131          -7.3901    -1.3772    -2.1582 H       
 132 H132          -9.8123     1.8175    -1.1308 H       
 133 H133          -7.9734     2.7567    -2.6395 H       
 134 H134          -9.6095    -3.6984     0.3248 H       
 135 H135         -11.6718    -3.9761     2.3735 H       
 136 H136         -10.4614    -5.8798     3.4794 H       
 137 H137          -9.0177    -5.4739     2.5206 H       
 138 H138          -8.7008    -4.4836     5.0692 H       
 139 H139         -12.2343    -6.6116     2.3755 H       
 140 H140         -11.7246    -7.7759    -0.2537 H       
 141 H141         -14.1856    -7.9894    -0.7395 H       
 142 H142         -15.7358    -6.4867     0.4800 H       
 143 H143         -14.9846    -7.6626     1.5850 H       
 144 H144         -14.4049    -5.9801     1.5478 H       
 145 H145         -12.7762    -6.2098    -1.7786 H       
 146 H146         -14.4567    -5.6749    -1.5370 H       
 147 H147         -13.1792    -5.1252    -0.4260 H       
 148 H148         -13.0032   -10.0382    -0.3404 H       
 149 H149         -13.5133   -11.1155     2.3255 H       
 150 H150         -11.7104   -12.8482     2.0821 H       
 151 H151         -11.1062   -11.9699     0.6567 H       
 152 H152         -10.7581    -9.9484     2.0498 H       
 153 H153         -11.3623   -10.8267     3.4752 H       
 154 H154          -7.7214   -11.2266     3.6606 H       
 155 H155         -13.7148   -13.7728     1.9243 H       
 156 H156         -14.6637   -14.3376    -0.7790 H       
 157 H157         -16.9360   -15.0167     0.0501 H       
 158 H158         -16.5360   -14.3003     1.6297 H       
 159 H159         -16.5768   -11.6652     1.8033 H       
 160 H160         -17.0602   -14.3561    -2.5090 H       
 161 H161         -17.3376    -9.8038     0.2399 H       
 162 H162         -18.0609    -9.5137    -2.5263 H       
 163 H163         -17.7787   -13.2496    -4.5666 H       
 164 H164         -18.2770   -10.8425    -4.5783 H       
 165 H165         -15.7685   -16.7877    -0.5807 H       
 166 H166         -14.4982   -18.3209     1.5555 H       
 167 H167         -13.2400   -19.7662    -0.0283 H       
 168 H168         -14.0757   -17.6668    -2.0804 H       
 169 H169         -12.9408   -19.0071    -2.3699 H       
 170 H170         -14.6527   -19.3497    -2.0232 H       
 171 H171         -12.0912   -17.9286     0.8972 H       
 172 H172         -15.1320   -20.7825     1.2454 H       
 173 H173         -17.4572   -21.0525    -0.5619 H       
 174 H174         -18.6452   -22.3122     1.2785 H       
 175 H175         -16.3567   -21.1428     2.9219 H       
 176 H176         -17.8372   -21.8445     3.6175 H       
 177 H177         -19.2037   -19.9592     0.7634 H       
 178 H178         -19.3306   -20.2649     2.5123 H       
 179 H179         -17.9149   -19.4061     1.8593 H       
 180 H180         -16.2780   -23.6389     3.6326 H       
 181 H181         -17.2794   -23.9423     2.1926 H       
 182 H182         -15.6593   -23.2267     2.0153 H       
 183 H183         -18.1070   -23.6491    -0.4314 H       
 184 H184         -15.7039   -25.2816    -0.1350 H       
 185 H185         -15.7691   -25.9974    -2.5424 H       
 186 H186         -16.9618   -24.7139    -2.8561 H       
 187 H187         -15.3089   -23.0326    -1.9882 H       
 188 H188         -12.9536   -23.7567    -1.7108 H       
 189 H189         -14.0178   -24.5860    -0.5499 H       
 190 H190         -13.4389   -25.4451    -1.9974 H       
 191 H191         -15.4994   -23.5043    -4.4151 H       
 192 H192         -13.8188   -23.1249    -3.9680 H       
 193 H193         -14.3041   -24.8133    -4.2545 H       
 194 H194         -16.3930   -27.6533    -1.2134 H       
 195 H195         -19.2691   -28.0979    -0.9725 H       
 196 H196         -18.9556   -29.8215     0.8282 H       
 197 H197         -17.2667   -29.2861     0.9990 H       
 198 H198         -18.0476   -26.9961     1.5420 H       
 199 H199         -19.7365   -27.5315     1.3712 H       
 200 H200         -19.0638   -27.8406     4.9631 H       
 201 H201         -19.5234   -30.7785    -1.0847 H       
 202 H202         -17.3451   -31.9562    -2.6324 H       
 203 H203         -20.0821   -33.2019    -1.8451 H       
 204 H204         -20.0985   -31.4766    -3.8595 H       
 205 H205         -18.5908   -30.6631    -4.3426 H       
 206 H206         -18.7800   -32.4138    -4.6022 H       
@<TRIPOS>BOND
   1    1    2 1
   2    1  103 1
   3    1  104 1
   4    2    5 1
   5    2    3 1
   6    2  105 1
   7    3   12 am
   8    3    4 2
   9    5    6 1
  10    5  106 1
  11    5  107 1
  12    6    7 1
  13    6  108 1
  14    6  109 1
  15    7    8 1
  16    7  110 1
  17    7  111 1
  18    8    9 1
  19    8  112 1
  20    9   11 1
  21    9   10 2
  22   10  113 1
  23   11  114 1
  24   11  115 1
  25   12   13 1
  26   12  116 1
  27   13   14 1
  28   13   16 1
  29   13  117 1
  30   14   15 2
  31   14   20 am
  32   16   17 1
  33   16  118 1
  34   16  119 1
  35   17   19 1
  36   17   18 1
  37   17  120 1
  38   18  121 1
  39   18  122 1
  40   18  123 1
  41   19  124 1
  42   19  125 1
  43   19  126 1
  44   20   21 1
  45   20  127 1
  46   21   22 1
  47   21   24 1
  48   21  128 1
  49   22   30 am
  50   22   23 2
  51   24   25 1
  52   24  129 1
  53   24  130 1
  54   25   26 2
  55   25   27 1
  56   26   29 1
  57   26  131 1
  58   27   28 1
  59   27  132 1
  60   28   29 2
  61   28  133 1
  62   30   31 1
  63   30  134 1
  64   31   34 1
  65   31   32 1
  66   31  135 1
  67   32   36 am
  68   32   33 2
  69   34   35 1
  70   34  136 1
  71   34  137 1
  72   35  138 1
  73   36   37 1
  74   36  139 1
  75   37   38 1
  76   37   40 1
  77   37  140 1
  78   38   39 2
  79   38   43 am
  80   40   42 1
  81   40   41 1
  82   40  141 1
  83   41  142 1
  84   41  143 1
  85   41  144 1
  86   42  145 1
  87   42  146 1
  88   42  147 1
  89   43   44 1
  90   43  148 1
  91   44   47 1
  92   44   45 1
  93   44  149 1
  94   45   52 am
  95   45   46 2
  96   47   48 1
  97   47  150 1
  98   47  151 1
  99   48   49 1
 100   48  152 1
 101   48  153 1
 102   49   51 1
 103   49   50 2
 104   51  154 1
 105   52   53 1
 106   52  155 1
 107   53   56 1
 108   53   54 1
 109   53  156 1
 110   54   55 2
 111   54   66 am
 112   56   57 1
 113   56  157 1
 114   56  158 1
 115   57   58 2
 116   57   59 1
 117   58   62 1
 118   58  159 1
 119   59   61 ar
 120   59   60 ar
 121   60   62 1
 122   60   63 ar
 123   61   64 ar
 124   61  160 1
 125   62  161 1
 126   63   65 ar
 127   63  162 1
 128   64   65 ar
 129   64  163 1
 130   65  164 1
 131   66   67 1
 132   66  165 1
 133   67   70 1
 134   67   68 1
 135   67  166 1
 136   68   73 am
 137   68   69 2
 138   70   71 1
 139   70   72 1
 140   70  167 1
 141   71  168 1
 142   71  169 1
 143   71  170 1
 144   72  171 1
 145   73   74 1
 146   73  172 1
 147   74   77 1
 148   74   75 1
 149   74  173 1
 150   75   76 2
 151   75   81 am
 152   77   79 1
 153   77   78 1
 154   77  174 1
 155   78   80 1
 156   78  175 1
 157   78  176 1
 158   79  177 1
 159   79  178 1
 160   79  179 1
 161   80  180 1
 162   80  181 1
 163   80  182 1
 164   81   82 1
 165   81  183 1
 166   82   83 1
 167   82   85 1
 168   82  184 1
 169   83   84 2
 170   83   89 am
 171   85   86 1
 172   85  185 1
 173   85  186 1
 174   86   87 1
 175   86   88 1
 176   86  187 1
 177   87  188 1
 178   87  189 1
 179   87  190 1
 180   88  191 1
 181   88  192 1
 182   88  193 1
 183   89   90 1
 184   89  194 1
 185   90   91 1
 186   90   93 1
 187   90  195 1
 188   91   92 2
 189   91   98 am
 190   93   94 1
 191   93  196 1
 192   93  197 1
 193   94   95 1
 194   94  198 1
 195   94  199 1
 196   95   97 1
 197   95   96 2
 198   97  200 1
 199   98   99 1
 200   98  201 1
 201   99  102 1
 202   99  100 1
 203   99  202 1
 204  100  101 2
 205  100  203 1
 206  102  204 1
 207  102  205 1
 208  102  206 1

#	End of record

