#	Name: ASD01410597
#	Creating user name:	WinNT
#	Creation time:	15. 06. 2019 19:18

#	Modifying user name:	WinNT
#	Modification time:	15. 06. 2019 19:18

#	Program:	/corina/corina34_cracker 3.40 0067  02.08.2006

@<TRIPOS>MOLECULE
ASD01410597
  82   84    0    0    0
SMALL
NO_CHARGES


@<TRIPOS>ATOM
   1 C1             1.3775    -3.5822    -1.9302 C.ar    
   2 O2             0.8946    -3.5345    -0.6650 O.3     
   3 C3            -0.4503    -3.4182    -0.4988 C.ar    
   4 C4            -1.2622    -4.5451    -0.6002 C.ar    
   5 C5            -2.6305    -4.4368    -0.4332 C.ar    
   6 C6            -3.2031    -3.2027    -0.1627 C.ar    
   7 C7            -2.3891    -2.0638    -0.0590 C.ar    
   8 C8            -1.0060    -2.1838    -0.2243 C.ar    
   9 N9            -4.5826    -3.0938     0.0051 N.am    
  10 C10           -5.1246    -3.2253     1.2320 C.2     
  11 C11           -5.4432    -2.8364    -1.1522 C.3     
  12 O12           -6.3299    -3.2168     1.3666 O.2     
  13 C13           -4.2331    -3.3829     2.4367 C.3     
  14 C14           -4.9160    -4.2910     3.4613 C.3     
  15 C15           -4.0108    -4.4510     4.6844 C.3     
  16 C16           -3.7527    -3.0792     5.3108 C.3     
  17 C17           -3.0698    -2.1711     4.2862 C.3     
  18 C18           -3.9749    -2.0111     3.0631 C.3     
  19 C19           -2.8475    -3.2392     6.5339 C.3     
  20 C20           -4.5762    -2.5131    -2.3706 C.3     
  21 O21           -7.1973    -4.2990    -0.3619 O.3     
  22 C22           -6.2904    -4.0766    -1.4436 C.3     
  23 C23           -8.0400    -5.4400    -0.5351 C.3     
  24 O24           -3.8771    -1.2872    -2.1461 O.3     
  25 C25           -3.1291    -0.8296    -3.2744 C.3     
  26 F26           -0.7104    -5.7498    -0.8634 F       
  27 C27            2.7521    -3.5901    -2.1624 C.ar    
  28 C28            3.2002    -3.6399    -3.4692 C.ar    
  29 N29            2.3171    -3.6785    -4.4554 N.ar    
  30 C30            1.0162    -3.6699    -4.2044 C.ar    
  31 N31            0.5480    -3.6278    -2.9661 N.ar    
  32 N32            0.1245    -3.7107    -5.2620 N.pl3   
  33 C33            0.6187    -3.6475    -6.6397 C.3     
  34 C34           -1.3137    -3.8172    -5.0039 C.3     
  35 C35            0.8919    -5.0642    -7.1490 C.3     
  36 O36           -0.3370    -5.7897    -7.2212 O.3     
  37 C37           -0.1927    -7.1325    -7.6882 C.3     
  38 C38            3.7277    -3.5447    -1.0146 C.3     
  39 F39            5.0349    -3.5629    -1.5127 F       
  40 F40            3.5259    -2.3731    -0.2771 F       
  41 F41            3.5278    -4.6560    -0.1886 F       
  42 C42           -2.9886    -0.7496     0.2274 C.2     
  43 O43           -4.1785    -0.6619     0.4587 O.2     
  44 O44           -2.2178     0.3560     0.2330 O.3     
  45 H45           -3.2545    -5.3145    -0.5139 H       
  46 H46           -0.3740    -1.3116    -0.1454 H       
  47 H47           -6.0977    -1.9916    -0.9375 H       
  48 H48           -3.2856    -3.8272     2.1319 H       
  49 H49           -5.8635    -3.8467     3.7662 H       
  50 H50           -5.0999    -5.2683     3.0151 H       
  51 H51           -4.4973    -5.0980     5.4143 H       
  52 H52           -3.0633    -4.8954     4.3796 H       
  53 H53           -4.7002    -2.6349     5.6157 H       
  54 H54           -2.8859    -1.1938     4.7325 H       
  55 H55           -2.1223    -2.6154     3.9814 H       
  56 H56           -3.4884    -1.3641     2.3332 H       
  57 H57           -4.9224    -1.5668     3.3680 H       
  58 H58           -1.9000    -3.6835     6.2291 H       
  59 H59           -2.6636    -2.2619     6.9802 H       
  60 H60           -3.3340    -3.8862     7.2638 H       
  61 H61           -3.8578    -3.3174    -2.5290 H       
  62 H62           -5.2103    -2.4136    -3.2516 H       
  63 H63           -6.8535    -3.9239    -2.3643 H       
  64 H64           -5.6391    -4.9434    -1.5557 H       
  65 H65           -8.6394    -5.3155    -1.4369 H       
  66 H66           -7.4250    -6.3351    -0.6283 H       
  67 H67           -8.6984    -5.5398     0.3279 H       
  68 H68           -2.7018     0.1488    -3.0545 H       
  69 H69           -2.3274    -1.5361    -3.4896 H       
  70 H70           -3.7874    -0.7524    -4.1397 H       
  71 H71            4.2587    -3.6469    -3.6835 H       
  72 H72           -0.1302    -3.1719    -7.2729 H       
  73 H73            1.5407    -3.0669    -6.6686 H       
  74 H74           -1.7569    -2.8214    -5.0007 H       
  75 H75           -1.7792    -4.4196    -5.7840 H       
  76 H76           -1.4749    -4.2898    -4.0350 H       
  77 H77            1.3426    -5.0133    -8.1402 H       
  78 H78            1.5734    -5.5708    -6.4656 H       
  79 H79           -1.1697    -7.6151    -7.7142 H       
  80 H80            0.2355    -7.1246    -8.6905 H       
  81 H81            0.4662    -7.6821    -7.0159 H       
  82 H82           -2.6563     1.1959     0.4262 H       
@<TRIPOS>BOND
   1    1    2 1
   2    1   27 ar
   3    1   31 ar
   4    2    3 1
   5    3    4 ar
   6    3    8 ar
   7    4    5 ar
   8    4   26 1
   9    5    6 ar
  10    5   45 1
  11    6    7 ar
  12    6    9 1
  13    7    8 ar
  14    7   42 1
  15    8   46 1
  16    9   10 am
  17    9   11 1
  18   10   12 2
  19   10   13 1
  20   11   20 1
  21   11   22 1
  22   11   47 1
  23   13   14 1
  24   13   18 1
  25   13   48 1
  26   14   15 1
  27   14   49 1
  28   14   50 1
  29   15   16 1
  30   15   51 1
  31   15   52 1
  32   16   17 1
  33   16   19 1
  34   16   53 1
  35   17   18 1
  36   17   54 1
  37   17   55 1
  38   18   56 1
  39   18   57 1
  40   19   58 1
  41   19   59 1
  42   19   60 1
  43   20   24 1
  44   20   61 1
  45   20   62 1
  46   21   22 1
  47   21   23 1
  48   22   63 1
  49   22   64 1
  50   23   65 1
  51   23   66 1
  52   23   67 1
  53   24   25 1
  54   25   68 1
  55   25   69 1
  56   25   70 1
  57   27   28 ar
  58   27   38 1
  59   28   29 ar
  60   28   71 1
  61   29   30 ar
  62   30   31 ar
  63   30   32 1
  64   32   33 1
  65   32   34 1
  66   33   35 1
  67   33   72 1
  68   33   73 1
  69   34   74 1
  70   34   75 1
  71   34   76 1
  72   35   36 1
  73   35   77 1
  74   35   78 1
  75   36   37 1
  76   37   79 1
  77   37   80 1
  78   37   81 1
  79   38   39 1
  80   38   40 1
  81   38   41 1
  82   42   43 2
  83   42   44 1
  84   44   82 1

#	End of record

