#	Name: ASD09530029
#	Creating user name:	WinNT
#	Creation time:	15. 06. 2019 21:22

#	Modifying user name:	WinNT
#	Modification time:	15. 06. 2019 21:22

#	Program:	/corina/corina34_cracker 3.40 0067  02.08.2006

@<TRIPOS>MOLECULE
ASD09530029
  61   65    0    0    0
SMALL
NO_CHARGES


@<TRIPOS>ATOM
   1 C1            -0.0168     1.3846     0.0097 C.ar    
   2 C2             0.0021    -0.0041     0.0020 C.ar    
   3 C3             1.2158    -0.6790    -0.0132 C.ar    
   4 C4             2.3996     0.0321    -0.0207 C.ar    
   5 C5             2.3774     1.4148    -0.0126 C.ar    
   6 C6             1.1706     2.0899     0.0021 C.ar    
   7 C7             3.6712     2.1876    -0.0198 C.3     
   8 C8             4.0897     2.4533    -1.4429 C.2     
   9 N9             5.2251     3.1342    -1.6955 N.am    
  10 O10            3.4048     2.0544    -2.3609 O.2     
  11 C11            5.6319     3.3925    -3.0790 C.3     
  12 C12            6.5096     4.6166    -3.1243 C.ar    
  13 N13            7.1880     4.9706    -2.0505 N.ar    
  14 C14            7.9686     6.0330    -2.0413 C.ar    
  15 C15            8.1034     6.8222    -3.1740 C.ar    
  16 C16            7.4017     6.4776    -4.3250 C.ar    
  17 C17            6.5971     5.3503    -4.2928 C.ar    
  18 O18            8.9090     7.9167    -3.1596 O.3     
  19 C19            9.5941     8.2020    -1.9385 C.3     
  20 C20            6.4082     2.1882    -3.6156 C.3     
  21 N21           -1.1999    -0.7220     0.0101 N.pl3   
  22 N22           -2.3689    -0.3406     0.6767 N.2     
  23 C23           -3.3041    -1.2268     0.4831 C.2     
  24 C24           -2.7532    -2.2801    -0.3639 C.ar    
  25 C25           -1.4224    -1.9107    -0.6398 C.ar    
  26 C26           -3.2668    -3.4672    -0.8976 C.ar    
  27 C27           -2.4708    -4.2575    -1.6752 C.ar    
  28 C28           -1.1562    -3.8943    -1.9410 C.ar    
  29 C29           -0.6347    -2.7361    -1.4375 C.ar    
  30 C30           -4.7051    -1.1741     1.0359 C.3     
  31 C31           -4.8636    -1.1441     2.5573 C.3     
  32 C32           -5.1409     0.1155     1.7343 C.3     
  33 C33           10.4459     9.4608    -2.1136 C.3     
  34 F34            9.6204    10.5396    -2.4482 F       
  35 F35           11.1166     9.7401    -0.9180 F       
  36 F36           11.3795     9.2538    -3.1347 F       
  37 H37           -0.9590     1.9124     0.0170 H       
  38 H38            1.2338    -1.7589    -0.0188 H       
  39 H39            3.3438    -0.4922    -0.0325 H       
  40 H40            1.1567     3.1698     0.0084 H       
  41 H41            3.5314     3.1350     0.5007 H       
  42 H42            4.4441     1.6069     0.4838 H       
  43 H43            5.7728     3.4532    -0.9613 H       
  44 H44            4.7467     3.5572    -3.6933 H       
  45 H45            8.5085     6.2917    -1.1424 H       
  46 H46            7.4857     7.0719    -5.2229 H       
  47 H47            6.0381     5.0529    -5.1678 H       
  48 H48            8.8667     8.3633    -1.1429 H       
  49 H49           10.2373     7.3615    -1.6778 H       
  50 H50            5.7733     1.3028    -3.5829 H       
  51 H51            6.7109     2.3804    -4.6449 H       
  52 H52            7.2934     2.0235    -3.0013 H       
  53 H53           -4.2874    -3.7567    -0.6950 H       
  54 H54           -2.8664    -5.1740    -2.0876 H       
  55 H55           -0.5410    -4.5323    -2.5582 H       
  56 H56            0.3886    -2.4654    -1.6516 H       
  57 H57           -5.4575    -1.7150     0.4620 H       
  58 H58           -5.7206    -1.6650     2.9844 H       
  59 H59           -3.9546    -1.1625     3.1585 H       
  60 H60           -4.4143     0.9258     1.7941 H       
  61 H61           -6.1803     0.4233     1.6200 H       
@<TRIPOS>BOND
   1    1    2 ar
   2    1    6 ar
   3    1   37 1
   4    2    3 ar
   5    2   21 1
   6    3    4 ar
   7    3   38 1
   8    4    5 ar
   9    4   39 1
  10    5    6 ar
  11    5    7 1
  12    6   40 1
  13    7    8 1
  14    7   41 1
  15    7   42 1
  16    8    9 am
  17    8   10 2
  18    9   11 1
  19    9   43 1
  20   11   12 1
  21   11   20 1
  22   11   44 1
  23   12   13 ar
  24   12   17 ar
  25   13   14 ar
  26   14   15 ar
  27   14   45 1
  28   15   16 ar
  29   15   18 1
  30   16   17 ar
  31   16   46 1
  32   17   47 1
  33   18   19 1
  34   19   33 1
  35   19   48 1
  36   19   49 1
  37   20   50 1
  38   20   51 1
  39   20   52 1
  40   21   22 1
  41   21   25 1
  42   22   23 2
  43   23   24 1
  44   23   30 1
  45   24   25 ar
  46   24   26 ar
  47   25   29 ar
  48   26   27 ar
  49   26   53 1
  50   27   28 ar
  51   27   54 1
  52   28   29 ar
  53   28   55 1
  54   29   56 1
  55   30   31 1
  56   30   32 1
  57   30   57 1
  58   31   32 1
  59   31   58 1
  60   31   59 1
  61   32   60 1
  62   32   61 1
  63   33   34 1
  64   33   35 1
  65   33   36 1

#	End of record

