#	Name: ASD01028134
#	Creating user name:	WinNT
#	Creation time:	15. 06. 2019 18:56

#	Modifying user name:	WinNT
#	Modification time:	15. 06. 2019 18:56

#	Program:	/corina/corina34_cracker 3.40 0067  02.08.2006

@<TRIPOS>MOLECULE
ASD01028134
  32   33    0    0    0
SMALL
NO_CHARGES


@<TRIPOS>ATOM
   1 C1            -0.4726     1.6307    -0.0868 C.ar    
   2 C2            -0.4193     0.2599    -0.2564 C.ar    
   3 C3             0.7772    -0.3517    -0.6040 C.ar    
   4 C4             1.9233     0.4171    -0.7817 C.ar    
   5 C5             1.8642     1.7952    -0.6099 C.ar    
   6 C6             0.6637     2.3974    -0.2624 C.ar    
   7 O7             3.2017     0.0724    -1.1182 O.3     
   8 C8             3.8280     1.2954    -1.5487 C.3     
   9 O9             3.1048     2.3176    -0.8378 O.3     
  10 N10            0.8310    -1.7399    -0.7752 N.pl3   
  11 C11           -1.6614    -0.5714    -0.0631 C.3     
  12 N12           -1.6332    -1.1917     1.2682 N.3     
  13 C13           -1.7251    -0.1752     2.3247 C.3     
  14 C14           -2.7003    -2.1919     1.4057 C.3     
  15 C15           -2.3108    -3.4610     0.6451 C.3     
  16 O16           -1.1655    -4.0531     1.2613 O.3     
  17 H17           -1.4059     2.1045     0.1793 H       
  18 H18            0.6170     3.4681    -0.1288 H       
  19 H19            4.8813     1.3058    -1.2682 H       
  20 H20            3.7159     1.4250    -2.6252 H       
  21 H21            0.0317    -2.2752    -0.6509 H       
  22 H22            1.6675    -2.1665    -1.0182 H       
  23 H23           -2.5418     0.0655    -0.1486 H       
  24 H24           -1.7002    -1.3493    -0.8256 H       
  25 H25           -2.6079     0.4422     2.1590 H       
  26 H26           -1.8016    -0.6656     3.2951 H       
  27 H27           -0.8339     0.4521     2.3039 H       
  28 H28           -2.8421    -2.4293     2.4601 H       
  29 H29           -3.6277    -1.7925     0.9953 H       
  30 H30           -3.1410    -4.1670     0.6672 H       
  31 H31           -2.0769    -3.2076    -0.3889 H       
  32 H32           -0.8621    -4.8639     0.8304 H       
@<TRIPOS>BOND
   1    1    2 ar
   2    1    6 ar
   3    1   17 1
   4    2    3 ar
   5    2   11 1
   6    3    4 ar
   7    3   10 1
   8    4    5 ar
   9    4    7 1
  10    5    6 ar
  11    5    9 1
  12    6   18 1
  13    7    8 1
  14    8    9 1
  15    8   19 1
  16    8   20 1
  17   10   21 1
  18   10   22 1
  19   11   12 1
  20   11   23 1
  21   11   24 1
  22   12   13 1
  23   12   14 1
  24   13   25 1
  25   13   26 1
  26   13   27 1
  27   14   15 1
  28   14   28 1
  29   14   29 1
  30   15   16 1
  31   15   30 1
  32   15   31 1
  33   16   32 1

#	End of record

