#	Name: ASD01870621
#	Creating user name:	WinNT
#	Creation time:	15. 06. 2019 19:39

#	Modifying user name:	WinNT
#	Modification time:	15. 06. 2019 19:39

#	Program:	/corina/corina34_cracker 3.40 0067  02.08.2006

@<TRIPOS>MOLECULE
ASD01870621
  46   50    0    0    0
SMALL
NO_CHARGES


@<TRIPOS>ATOM
   1 C1            -0.0670     1.4239    -0.0457 C.ar    
   2 C2            -0.0579     0.0358    -0.0535 C.ar    
   3 C3             1.1377    -0.6564    -0.0569 C.ar    
   4 C4             2.3453     0.0252    -0.0531 C.ar    
   5 C5             2.3529     1.4104    -0.0458 C.ar    
   6 C6             1.1335     2.1185    -0.0419 C.ar    
   7 C7             3.4162     2.4370    -0.0398 C.2     
   8 N8             2.8386     3.6520    -0.0332 N.am    
   9 C9             1.4972     3.5501    -0.0334 C.2     
  10 C10            3.5414     4.8636    -0.0255 C.ar    
  11 C11            3.8956     5.4691     1.1979 C.ar    
  12 C12            4.6061     6.6943     1.1889 C.ar    
  13 C13            4.9479     7.2890    -0.0440 C.ar    
  14 C14            4.5873     6.6721    -1.2225 C.ar    
  15 C15            3.8944     5.4661    -1.2129 C.ar    
  16 O16            0.7158     4.4800    -0.0280 O.2     
  17 O17            4.6112     2.2201    -0.0400 O.2     
  18 N18            5.6482     8.4975    -0.0701 N.am    
  19 C19            6.5434     8.7366    -1.0488 C.2     
  20 C20            7.1882    10.0496    -1.1478 C.2     
  21 O21            6.8167     7.8624    -1.8505 O.2     
  22 C22            8.1081    10.4233    -2.0855 C.2     
  23 C23            8.4530    11.7546    -1.8043 C.2     
  24 C24            7.7376    12.1305    -0.7212 C.2     
  25 O25            6.9724    11.1023    -0.3321 O.3     
  26 C26            8.6484     9.5715    -3.2051 C.3     
  27 C27            3.5568     4.8785     2.4262 C.ar    
  28 C28            3.9144     5.4893     3.5892 C.ar    
  29 C29            4.6133     6.6947     3.5802 C.ar    
  30 C30            4.9581     7.2954     2.4080 C.ar    
  31 Cl31          -1.5737     2.2862    -0.0481 Cl      
  32 H32           -0.9917    -0.5068    -0.0565 H       
  33 H33            1.1318    -1.7364    -0.0623 H       
  34 H34            3.2765    -0.5219    -0.0555 H       
  35 H35            4.8498     7.1287    -2.1654 H       
  36 H36            3.6259     4.9981    -2.1486 H       
  37 H37            5.4901     9.1646     0.6161 H       
  38 H38            9.1577    12.3638    -2.3507 H       
  39 H39            7.7735    13.1015    -0.2498 H       
  40 H40            8.0211     9.6918    -4.0883 H       
  41 H41            9.6672     9.8810    -3.4380 H       
  42 H42            8.6475     8.5254    -2.8986 H       
  43 H43            3.0149     3.9446     2.4481 H       
  44 H44            3.6522     5.0331     4.5324 H       
  45 H45            4.8853     7.1592     4.5165 H       
  46 H46            5.5002     8.2295     2.4159 H       
@<TRIPOS>BOND
   1    1    2 ar
   2    1    6 ar
   3    1   31 1
   4    2    3 ar
   5    2   32 1
   6    3    4 ar
   7    3   33 1
   8    4    5 ar
   9    4   34 1
  10    5    7 1
  11    5    6 ar
  12    6    9 1
  13    7    8 am
  14    7   17 2
  15    8    9 am
  16    8   10 1
  17    9   16 2
  18   10   11 ar
  19   10   15 ar
  20   11   27 ar
  21   11   12 ar
  22   12   13 ar
  23   12   30 ar
  24   13   14 ar
  25   13   18 1
  26   14   15 ar
  27   14   35 1
  28   15   36 1
  29   18   19 am
  30   18   37 1
  31   19   20 1
  32   19   21 2
  33   20   22 2
  34   20   25 1
  35   22   23 1
  36   22   26 1
  37   23   24 2
  38   23   38 1
  39   24   25 1
  40   24   39 1
  41   26   40 1
  42   26   41 1
  43   26   42 1
  44   27   28 ar
  45   27   43 1
  46   28   29 ar
  47   28   44 1
  48   29   30 ar
  49   29   45 1
  50   30   46 1

#	End of record

