#	Name: ASD01880652
#	Creating user name:	WinNT
#	Creation time:	15. 06. 2019 19:41

#	Modifying user name:	WinNT
#	Modification time:	15. 06. 2019 19:41

#	Program:	/corina/corina34_cracker 3.40 0067  02.08.2006

@<TRIPOS>MOLECULE
ASD01880652
  47   49    0    0    0
SMALL
NO_CHARGES


@<TRIPOS>ATOM
   1 N1            -0.0158     1.3136     0.0093 N.ar    
   2 C2             0.0021    -0.0041     0.0020 C.ar    
   3 N3             1.1321    -0.6824    -0.0120 N.ar    
   4 C4             2.2981    -0.0570    -0.0197 C.ar    
   5 C5             2.3199     1.3290    -0.0130 C.ar    
   6 C6             1.1114     2.0071     0.0022 C.ar    
   7 C7             3.6262     2.0803    -0.0209 C.3     
   8 O8             4.7107     1.1499    -0.0353 O.3     
   9 C9             5.9656     1.6665    -0.0440 C.ar    
  10 C10            7.0672     0.8164    -0.0582 C.ar    
  11 C11            8.3360     1.3403    -0.0674 C.ar    
  12 C12            8.5299     2.7256    -0.0626 C.ar    
  13 C13            7.4201     3.5749    -0.0488 C.ar    
  14 C14            6.1493     3.0441    -0.0445 C.ar    
  15 C15            9.7101     0.7182    -0.0830 C.3     
  16 N16           10.6644     1.8328    -0.0865 N.am    
  17 C17            9.9793     2.9890    -0.0747 C.2     
  18 O18           10.4840     4.0952    -0.0745 O.2     
  19 C19           -1.3043    -0.7553     0.0105 C.3     
  20 C20            1.0812     3.5137     0.0096 C.3     
  21 C21            1.0567     4.0304    -1.4303 C.3     
  22 F22           -0.0825     3.5443    -2.0808 F       
  23 F23            1.0286     5.4291    -1.4234 F       
  24 F24            2.2015     3.5903    -2.1032 F       
  25 C25           14.1433     1.5363    -1.5615 C.3     
  26 C26           12.6191     1.6686    -1.5473 C.3     
  27 C27           12.1239     1.7061    -0.1001 C.3     
  28 H28            3.2205    -0.6188    -0.0309 H       
  29 H29            3.6771     2.7113    -0.9082 H       
  30 H30            3.6930     2.7024     0.8717 H       
  31 H31            6.9241    -0.2541    -0.0616 H       
  32 H32            7.5587     4.6460    -0.0446 H       
  33 H33            5.2921     3.7009    -0.0342 H       
  34 H34            9.8538     0.1047     0.8064 H       
  35 H35            9.8373     0.1131    -0.9807 H       
  36 H36           -1.6291    -0.9309    -1.0151 H       
  37 H37           -1.1707    -1.7107     0.5179 H       
  38 H38           -2.0580    -0.1677     0.5347 H       
  39 H39            0.1893     3.8567     0.5340 H       
  40 H40            1.9688     3.8925     0.5165 H       
  41 H41           14.5868     2.3892    -1.0478 H       
  42 H42           14.4329     0.6160    -1.0544 H       
  43 H43           14.4961     1.5095    -2.5925 H       
  44 H44           12.3295     2.5889    -2.0544 H       
  45 H45           12.1756     0.8156    -2.0610 H       
  46 H46           12.5674     2.5591     0.4136 H       
  47 H47           12.4135     0.7858     0.4070 H       
@<TRIPOS>BOND
   1    1    2 ar
   2    1    6 ar
   3    2    3 ar
   4    2   19 1
   5    3    4 ar
   6    4    5 ar
   7    4   28 1
   8    5    6 ar
   9    5    7 1
  10    6   20 1
  11    7    8 1
  12    7   29 1
  13    7   30 1
  14    8    9 1
  15    9   10 ar
  16    9   14 ar
  17   10   11 ar
  18   10   31 1
  19   11   12 ar
  20   11   15 1
  21   12   13 ar
  22   12   17 1
  23   13   14 ar
  24   13   32 1
  25   14   33 1
  26   15   16 1
  27   15   34 1
  28   15   35 1
  29   16   17 am
  30   16   27 1
  31   17   18 2
  32   19   36 1
  33   19   37 1
  34   19   38 1
  35   20   21 1
  36   20   39 1
  37   20   40 1
  38   21   22 1
  39   21   23 1
  40   21   24 1
  41   25   26 1
  42   25   41 1
  43   25   42 1
  44   25   43 1
  45   26   27 1
  46   26   44 1
  47   26   45 1
  48   27   46 1
  49   27   47 1

#	End of record

