#	Name: ASD00840868
#	Creating user name:	WinNT
#	Creation time:	15. 06. 2019 18:40

#	Modifying user name:	WinNT
#	Modification time:	15. 06. 2019 18:40

#	Program:	/corina/corina34_cracker 3.40 0067  02.08.2006

@<TRIPOS>MOLECULE
ASD00840868
  99  104    0    0    0
SMALL
NO_CHARGES


@<TRIPOS>ATOM
   1 F1             6.0577    -1.9500    -2.0368 F       
   2 N2             1.0763     1.4589    -0.7254 N.ar    
   3 C3             1.3334     0.1667    -0.8403 C.ar    
   4 C4             1.2483    -0.6728     0.2632 C.ar    
   5 C5             0.8901    -0.1394     1.4888 C.ar    
   6 C6             0.6283     1.2217     1.5676 C.ar    
   7 C7             0.7324     1.9964     0.4297 C.ar    
   8 C8             1.5417    -2.1447     0.1274 C.3     
   9 C9             1.2563    -2.8644     1.4281 C.2     
  10 C10            0.7197    -2.7507    -1.0119 C.3     
  11 C11           -0.7418    -2.4602    -0.7865 C.2     
  12 N12           -1.6679    -2.9797    -1.6165 N.am    
  13 O13           -1.0846    -1.7589     0.1417 O.2     
  14 C14           -3.0849    -2.6165    -1.4783 C.3     
  15 C15           -3.9137    -3.8995    -1.3614 C.3     
  16 C16           -3.6112    -4.8081    -2.5552 C.3     
  17 C17           -2.1288    -5.1881    -2.5465 C.3     
  18 C18           -1.2790    -3.9154    -2.6804 C.3     
  19 C19           -4.4629    -6.0755    -2.4599 C.3     
  20 C20           -5.9466    -5.6969    -2.4702 C.3     
  21 C21           -6.7934    -6.9712    -2.4361 C.3     
  22 N22           -6.4741    -7.8039    -3.6028 N.3     
  23 C23           -5.0656    -8.2190    -3.5894 C.3     
  24 C24           -4.1672    -6.9820    -3.6579 C.3     
  25 C25           -7.3656    -8.9691    -3.6777 C.3     
  26 O26            0.1836    -2.9396     1.9890 O.2     
  27 N27            2.4136    -3.4048     1.8447 N.am    
  28 C28            3.0188    -2.3712    -0.1029 C.ar    
  29 C29            3.4685    -3.1346     0.9696 C.ar    
  30 C30            3.8781    -1.9754    -1.1041 C.ar    
  31 C31            5.2133    -2.3363    -1.0555 C.ar    
  32 C32            5.6834    -3.1036     0.0152 C.ar    
  33 C33            4.8080    -3.5013     1.0253 C.ar    
  34 C34            2.2730    -5.9753     2.8177 C.ar    
  35 C35            1.0176    -6.3684     2.3766 C.ar    
  36 C36            3.2912    -6.9037     2.9243 C.ar    
  37 C37            3.0621    -8.2249     2.5916 C.ar    
  38 C38            1.8080    -8.6230     2.1499 C.ar    
  39 C39            0.7850    -7.6939     2.0426 C.ar    
  40 O40            1.5831    -9.9228     1.8233 O.3     
  41 O41            0.0167    -5.4551     2.2724 O.3     
  42 C42           -1.2498    -5.9303     1.8116 C.3     
  43 C43            2.6827   -10.8254     1.9585 C.3     
  44 C44           -7.1747    -9.6716    -5.0234 C.3     
  45 C45           -8.1032   -10.8852    -5.1015 C.3     
  46 S46            2.5714    -4.2898     3.2354 S.o2    
  47 O47            3.9391    -4.2057     3.6116 O.2     
  48 O48            1.5053    -3.8926     4.0869 O.2     
  49 O49            1.6832    -0.3440    -2.0477 O.3     
  50 C50            2.1796    -0.1694    -4.4064 C.3     
  51 C51            1.6447     0.5466    -3.1646 C.3     
  52 C52            7.0633    -3.4817     0.0737 C.1     
  53 N53            8.1580    -3.7815     0.1202 N.1     
  54 H54            0.8154    -0.7678     2.3640 H       
  55 H55            0.3459     1.6696     2.5089 H       
  56 H56            0.5302     3.0558     0.4857 H       
  57 H57            1.0349    -2.3141    -1.9596 H       
  58 H58            0.8758    -3.8291    -1.0389 H       
  59 H59           -3.2211    -2.0105    -0.5826 H       
  60 H60           -3.4049    -2.0534    -2.3550 H       
  61 H61           -3.6561    -4.4160    -0.4367 H       
  62 H62           -4.9743    -3.6482    -1.3550 H       
  63 H63           -3.8457    -4.2819    -3.4805 H       
  64 H64           -1.8880    -5.6925    -1.6106 H       
  65 H65           -1.9190    -5.8540    -3.3836 H       
  66 H66           -1.4530    -3.4608    -3.6557 H       
  67 H67           -0.2238    -4.1678    -2.5756 H       
  68 H68           -4.2281    -6.6035    -1.5357 H       
  69 H69           -6.1724    -5.0864    -1.5959 H       
  70 H70           -6.1722    -5.1341    -3.3760 H       
  71 H71           -6.5773    -7.5266    -1.5235 H       
  72 H72           -7.8503    -6.7056    -2.4578 H       
  73 H73           -4.8576    -8.7686    -2.6713 H       
  74 H74           -4.8676    -8.8597    -4.4487 H       
  75 H75           -4.3649    -6.4394    -4.5824 H       
  76 H76           -3.1218    -7.2896    -3.6322 H       
  77 H77           -7.1280    -9.6610    -2.8697 H       
  78 H78           -8.4008    -8.6412    -3.5826 H       
  79 H79            3.5093    -1.3830    -1.9283 H       
  80 H80            5.1713    -4.0939     1.8519 H       
  81 H81            4.2677    -6.5958     3.2678 H       
  82 H82            3.8595    -8.9484     2.6750 H       
  83 H83           -0.1916    -8.0018     1.6994 H       
  84 H84           -1.9572    -5.1019     1.7749 H       
  85 H85           -1.1371    -6.3563     0.8146 H       
  86 H86           -1.6210    -6.6951     2.4937 H       
  87 H87            3.0171   -10.8377     2.9959 H       
  88 H88            2.3685   -11.8273     1.6661 H       
  89 H89            3.5012   -10.4995     1.3167 H       
  90 H90           -7.4124    -8.9797    -5.8314 H       
  91 H91           -6.1395    -9.9995    -5.1185 H       
  92 H92           -7.9672   -11.3857    -6.0601 H       
  93 H93           -7.8656   -11.5770    -4.2934 H       
  94 H94           -9.1384   -10.5573    -5.0064 H       
  95 H95            3.1751    -0.5618    -4.1990 H       
  96 H96            1.5124    -0.9908    -4.6678 H       
  97 H97            2.2322     0.5344    -5.2371 H       
  98 H98            0.6167     0.8627    -3.3419 H       
  99 H99            2.2622     1.4199    -2.9544 H       
@<TRIPOS>BOND
   1    1   31 1
   2    2    3 ar
   3    2    7 ar
   4    3    4 ar
   5    3   49 1
   6    4    5 ar
   7    4    8 1
   8    5    6 ar
   9    5   54 1
  10    6    7 ar
  11    6   55 1
  12    7   56 1
  13    8    9 1
  14    8   10 1
  15    8   28 1
  16    9   26 2
  17    9   27 am
  18   10   11 1
  19   10   57 1
  20   10   58 1
  21   11   12 am
  22   11   13 2
  23   12   14 1
  24   12   18 1
  25   14   15 1
  26   14   59 1
  27   14   60 1
  28   15   16 1
  29   15   61 1
  30   15   62 1
  31   16   17 1
  32   16   19 1
  33   16   63 1
  34   17   18 1
  35   17   64 1
  36   17   65 1
  37   18   66 1
  38   18   67 1
  39   19   20 1
  40   19   24 1
  41   19   68 1
  42   20   21 1
  43   20   69 1
  44   20   70 1
  45   21   22 1
  46   21   71 1
  47   21   72 1
  48   22   23 1
  49   22   25 1
  50   23   24 1
  51   23   73 1
  52   23   74 1
  53   24   75 1
  54   24   76 1
  55   25   44 1
  56   25   77 1
  57   25   78 1
  58   27   46 am
  59   27   29 1
  60   28   29 ar
  61   28   30 ar
  62   29   33 ar
  63   30   31 ar
  64   30   79 1
  65   31   32 ar
  66   32   33 ar
  67   32   52 1
  68   33   80 1
  69   34   35 ar
  70   34   36 ar
  71   34   46 1
  72   35   41 1
  73   35   39 ar
  74   36   37 ar
  75   36   81 1
  76   37   38 ar
  77   37   82 1
  78   38   39 ar
  79   38   40 1
  80   39   83 1
  81   40   43 1
  82   41   42 1
  83   42   84 1
  84   42   85 1
  85   42   86 1
  86   43   87 1
  87   43   88 1
  88   43   89 1
  89   44   45 1
  90   44   90 1
  91   44   91 1
  92   45   92 1
  93   45   93 1
  94   45   94 1
  95   46   47 2
  96   46   48 2
  97   49   51 1
  98   50   51 1
  99   50   95 1
 100   50   96 1
 101   50   97 1
 102   51   98 1
 103   51   99 1
 104   52   53 3

#	End of record

