#	Name: ASD07932181
#	Creating user name:	WinNT
#	Creation time:	15. 06. 2019 21:14

#	Modifying user name:	WinNT
#	Modification time:	15. 06. 2019 21:14

#	Program:	/corina/corina34_cracker 3.40 0067  02.08.2006

@<TRIPOS>MOLECULE
ASD07932181
  49   50    0    0    0
SMALL
NO_CHARGES


@<TRIPOS>ATOM
   1 C1            -0.2357     1.4531    -0.0528 C.3     
   2 N2             1.2365    -1.6727    -0.9895 N.pl3   
   3 C3             0.2928    -2.7950    -0.9555 C.3     
   4 C4            -1.1303    -2.2644    -1.1805 C.3     
   5 N5            -0.1220    -0.0074    -0.0347 N.am    
   6 C6             1.0996    -0.6372    -0.1057 C.2     
   7 C7             0.6412    -3.7789    -2.0425 C.ar    
   8 C8             0.3708    -3.4875     0.4066 C.3     
   9 C9            -0.1231    -4.9190    -2.2142 C.ar    
  10 C10            1.7209    -3.5391    -2.8715 C.ar    
  11 C11            2.0417    -4.4408    -3.8693 C.ar    
  12 C12            1.2830    -5.5833    -4.0397 C.ar    
  13 C13            0.1980    -5.8229    -3.2139 C.ar    
  14 F14           -0.5440    -6.9397    -3.3794 F       
  15 Cl15          -1.4831    -5.2173    -1.1774 Cl      
  16 N16            2.1109    -0.2533     0.6579 N.2     
  17 O17            4.3209    -0.4892     1.3501 O.3     
  18 C18            5.5503    -1.2032     1.2058 C.3     
  19 C19            6.0499    -1.0727    -0.2344 C.3     
  20 C20            6.5933    -0.6214     2.1622 C.3     
  21 C21            5.3240    -2.6801     1.5353 C.3     
  22 C22            3.2902    -0.8805     0.5719 C.2     
  23 O23            3.4329    -1.8040    -0.2083 O.2     
  24 N24            3.1983    -4.1821    -4.7558 N.pl3   
  25 O25            3.8670    -3.1752    -4.6063 O.2     
  26 O26            3.4813    -4.9762    -5.6350 O.2     
  27 S27           -1.4654    -0.9873     0.0733 S.o2    
  28 O28           -2.5467    -0.1575    -0.3284 O.2     
  29 O29           -1.4029    -1.5368     1.3822 O.2     
  30 H30            0.7583     1.8940    -0.1273 H       
  31 H31           -0.8347     1.7603    -0.9101 H       
  32 H32           -0.7154     1.7915     0.8656 H       
  33 H33            1.9598    -1.6666    -1.6357 H       
  34 H34           -1.2076    -1.8304    -2.1774 H       
  35 H35           -1.8472    -3.0789    -1.0767 H       
  36 H36            0.1160    -2.7752     1.1914 H       
  37 H37           -0.3308    -4.3213     0.4310 H       
  38 H38            1.3827    -3.8591     0.5679 H       
  39 H39            2.3142    -2.6463    -2.7399 H       
  40 H40            1.5338    -6.2868    -4.8198 H       
  41 H41            6.2111    -0.0206    -0.4691 H       
  42 H42            6.9876    -1.6174    -0.3444 H       
  43 H43            5.3069    -1.4873    -0.9157 H       
  44 H44            6.2373    -0.7143     3.1882 H       
  45 H45            7.5310    -1.1660     2.0521 H       
  46 H46            6.7545     0.4308     1.9274 H       
  47 H47            4.5810    -3.0946     0.8540 H       
  48 H48            6.2617    -3.2247     1.4253 H       
  49 H49            4.9681    -2.7731     2.5614 H       
@<TRIPOS>BOND
   1    1    5 1
   2    1   30 1
   3    1   31 1
   4    1   32 1
   5    2    3 1
   6    2    6 1
   7    2   33 1
   8    3    4 1
   9    3    7 1
  10    3    8 1
  11    4   27 1
  12    4   34 1
  13    4   35 1
  14    5    6 1
  15    5   27 am
  16    6   16 2
  17    7   10 ar
  18    7    9 ar
  19    8   36 1
  20    8   37 1
  21    8   38 1
  22    9   15 1
  23    9   13 ar
  24   10   11 ar
  25   10   39 1
  26   11   12 ar
  27   11   24 1
  28   12   13 ar
  29   12   40 1
  30   13   14 1
  31   16   22 1
  32   17   18 1
  33   17   22 1
  34   18   19 1
  35   18   20 1
  36   18   21 1
  37   19   41 1
  38   19   42 1
  39   19   43 1
  40   20   44 1
  41   20   45 1
  42   20   46 1
  43   21   47 1
  44   21   48 1
  45   21   49 1
  46   22   23 2
  47   24   25 2
  48   24   26 2
  49   27   28 2
  50   27   29 2

#	End of record

