#	Name: ASD09740030
#	Creating user name:	WinNT
#	Creation time:	15. 06. 2019 21:22

#	Modifying user name:	WinNT
#	Modification time:	15. 06. 2019 21:22

#	Program:	/corina/corina34_cracker 3.40 0067  02.08.2006

@<TRIPOS>MOLECULE
ASD09740030
  47   50    0    0    0
SMALL
NO_CHARGES


@<TRIPOS>ATOM
   1 N1            -0.0144     1.2085     0.0087 N.2     
   2 O2             0.0021    -0.0041     0.0020 O.3     
   3 C3             1.2060     1.6802    -0.0004 C.2     
   4 N4             2.0461     0.6245    -0.0141 N.2     
   5 C5             1.2702    -0.4440    -0.0125 C.2     
   6 C6             1.7128    -1.8529    -0.0238 C.ar    
   7 C7             1.5947     3.1131     0.0031 C.ar    
   8 C8             3.0751    -2.1581    -0.0380 C.ar    
   9 C9             0.7692    -2.8832    -0.0146 C.ar    
  10 C10            1.1883    -4.1996    -0.0248 C.ar    
  11 C11            2.5499    -4.4974    -0.0443 C.ar    
  12 C12            3.4868    -3.4742    -0.0481 C.ar    
  13 O13            2.9605    -5.7925    -0.0538 O.3     
  14 O14            0.2724    -5.2049    -0.0153 O.3     
  15 C15            2.9423     3.4687    -0.0083 C.ar    
  16 C16            3.3064     4.8015    -0.0050 C.ar    
  17 C17            2.3421     5.7858     0.0095 C.ar    
  18 C18            0.9801     5.4437     0.0211 C.ar    
  19 C19            0.6124     4.1001     0.0121 C.ar    
  20 C20           -0.2120     6.3082     0.0373 C.2     
  21 C21           -1.4339     5.4219     0.0447 C.3     
  22 C22           -0.8929     3.9856     0.0275 C.3     
  23 O23           -0.2120     7.5207     0.0435 O.2     
  24 C24            4.3702    -6.0260    -0.0738 C.3     
  25 C25            4.6375    -7.5324    -0.0820 C.3     
  26 C26           -1.1056    -4.8270     0.0051 C.3     
  27 C27           -1.9789    -6.0832     0.0131 C.3     
  28 H28            3.8065    -1.3635    -0.0414 H       
  29 H29           -0.2854    -2.6510     0.0009 H       
  30 H30            4.5409    -3.7088    -0.0636 H       
  31 H31            3.7026     2.7018    -0.0194 H       
  32 H32            4.3516     5.0731    -0.0136 H       
  33 H33            2.6351     6.8252     0.0123 H       
  34 H34           -2.0216     5.5963     0.9461 H       
  35 H35           -2.0391     5.6055    -0.8430 H       
  36 H36           -1.2388     3.4659    -0.8660 H       
  37 H37           -1.2180     3.4523     0.9208 H       
  38 H38            4.8004    -5.5757    -0.9683 H       
  39 H39            4.8247    -5.5812     0.8114 H       
  40 H40            4.2072    -7.9827     0.8125 H       
  41 H41            4.1829    -7.9773    -0.9673 H       
  42 H42            5.7127    -7.7106    -0.0973 H       
  43 H43           -1.3076    -4.2383     0.9000 H       
  44 H44           -1.3324    -4.2324    -0.8798 H       
  45 H45           -1.7769    -6.6719    -0.8817 H       
  46 H46           -1.7521    -6.6778     0.8980 H       
  47 H47           -3.0300    -5.7949     0.0287 H       
@<TRIPOS>BOND
   1    1    2 1
   2    1    3 2
   3    2    5 1
   4    3    4 1
   5    3    7 1
   6    4    5 2
   7    5    6 1
   8    6    8 ar
   9    6    9 ar
  10    7   15 ar
  11    7   19 ar
  12    8   12 ar
  13    8   28 1
  14    9   10 ar
  15    9   29 1
  16   10   11 ar
  17   10   14 1
  18   11   12 ar
  19   11   13 1
  20   12   30 1
  21   13   24 1
  22   14   26 1
  23   15   16 ar
  24   15   31 1
  25   16   17 ar
  26   16   32 1
  27   17   18 ar
  28   17   33 1
  29   18   19 ar
  30   18   20 1
  31   19   22 1
  32   20   21 1
  33   20   23 2
  34   21   22 1
  35   21   34 1
  36   21   35 1
  37   22   36 1
  38   22   37 1
  39   24   25 1
  40   24   38 1
  41   24   39 1
  42   25   40 1
  43   25   41 1
  44   25   42 1
  45   26   27 1
  46   26   43 1
  47   26   44 1
  48   27   45 1
  49   27   46 1
  50   27   47 1

#	End of record

