#	Name: ASD01885403
#	Creating user name:	WinNT
#	Creation time:	15. 06. 2019 19:49

#	Modifying user name:	WinNT
#	Modification time:	15. 06. 2019 19:49

#	Program:	/corina/corina34_cracker 3.40 0067  02.08.2006

@<TRIPOS>MOLECULE
ASD01885403
  28   30    0    0    0
SMALL
NO_CHARGES


@<TRIPOS>ATOM
   1 C1            -0.0168     1.3902     0.0097 C.ar    
   2 C2             0.0021    -0.0041     0.0020 C.ar    
   3 N3            -1.1143    -0.7759     0.0184 N.2     
   4 C4            -2.1891    -0.5674    -0.6489 C.2     
   5 C5            -2.3478     0.6311    -1.5466 C.3     
   6 C6            -2.2770     1.8709    -0.6911 C.2     
   7 N7            -1.1813     2.1454     0.0184 N.am    
   8 C8             1.1911     2.0899     0.0019 C.ar    
   9 C9             2.3954     1.4185    -0.0174 C.ar    
  10 C10            2.4183     0.0331    -0.0303 C.ar    
  11 C11            1.2386    -0.6744    -0.0204 C.ar    
  12 C12           -3.3007    -1.5284    -0.5345 C.ar    
  13 C13           -3.2003    -2.6610     0.2890 C.ar    
  14 C14           -4.2864    -3.5164     0.3443 C.ar    
  15 N15           -5.3694    -3.2546    -0.3630 N.ar    
  16 N16           -5.4692    -2.2223    -1.1176 N.ar    
  17 C17           -4.4970    -1.3409    -1.2392 C.ar    
  18 O18           -3.2252     2.6259    -0.6482 O.2     
  19 Br19           4.0178     2.3899    -0.0270 Br      
  20 I20            1.2839    -2.7688    -0.0396 I       
  21 H21           -1.5457     0.6469    -2.2845 H       
  22 H22           -3.3126     0.5873    -2.0518 H       
  23 H23           -1.1998     2.9333     0.5838 H       
  24 H24            1.1822     3.1698     0.0108 H       
  25 H25            3.3623    -0.4912    -0.0473 H       
  26 H26           -2.3051    -2.8582     0.8600 H       
  27 H27           -4.2477    -4.3987     0.9660 H       
  28 H28           -4.6185    -0.4837    -1.8848 H       
@<TRIPOS>BOND
   1    1    2 ar
   2    1    8 ar
   3    1    7 1
   4    2    3 1
   5    2   11 ar
   6    3    4 2
   7    4    5 1
   8    4   12 1
   9    5    6 1
  10    5   21 1
  11    5   22 1
  12    6    7 am
  13    6   18 2
  14    7   23 1
  15    8    9 ar
  16    8   24 1
  17    9   10 ar
  18    9   19 1
  19   10   11 ar
  20   10   25 1
  21   11   20 1
  22   12   13 ar
  23   12   17 ar
  24   13   14 ar
  25   13   26 1
  26   14   15 ar
  27   14   27 1
  28   15   16 ar
  29   16   17 ar
  30   17   28 1

#	End of record

