#	Name: ASD03090341
#	Creating user name:	WinNT
#	Creation time:	15. 06. 2019 20:28

#	Modifying user name:	WinNT
#	Modification time:	15. 06. 2019 20:28

#	Program:	/corina/corina34_cracker 3.40 0067  02.08.2006

@<TRIPOS>MOLECULE
ASD03090341
  56   59    0    0    0
SMALL
NO_CHARGES


@<TRIPOS>ATOM
   1 C1             0.0453     1.5702    -0.0486 C.ar    
   2 C2             0.1685     0.4400     0.7492 C.ar    
   3 C3             1.3584    -0.2547     0.7906 C.ar    
   4 C4             2.4448     0.1773     0.0286 C.ar    
   5 C5             2.3225     1.3131    -0.7721 C.ar    
   6 C6             1.1258     2.0076    -0.8086 C.ar    
   7 C7             3.7223    -0.5665     0.0703 C.2     
   8 N8             7.1937    -0.8998    -0.3752 N.pl3   
   9 C9             7.6695     0.2711    -0.9728 C.ar    
  10 C10            6.7765     1.2119    -1.4660 C.ar    
  11 C11            7.2520     2.3717    -2.0579 C.ar    
  12 C12            8.6187     2.5900    -2.1563 C.ar    
  13 C13            9.5077     1.6521    -1.6651 C.ar    
  14 C14            9.0382     0.4974    -1.0687 C.ar    
  15 N15            4.9051    -0.0966    -0.2741 N.2     
  16 C16            5.8306    -1.0436    -0.1090 C.2     
  17 N17            5.2533    -2.1326     0.3432 N.2     
  18 N18            3.8847    -1.8467     0.4738 N.pl3   
  19 C19            2.8388    -2.7578     0.9453 C.3     
  20 C20            2.7711    -2.7096     2.4730 C.3     
  21 C21            1.6952    -3.6468     2.9580 C.2     
  22 N22            1.4539    -3.7703     4.2782 N.am    
  23 C23            0.4080    -4.6813     4.7496 C.3     
  24 O24            1.0465    -4.2900     2.1602 O.2     
  25 C25            2.2375    -2.9933     5.2418 C.3     
  26 O26            1.0241     3.1185    -1.5890 O.3     
  27 C27           -0.2990     3.5745    -1.8905 C.3     
  28 C28           -1.1154     3.5733    -0.5910 C.3     
  29 O29           -1.1414     2.2356    -0.0802 O.3     
  30 Cl30          10.1574    -0.6779    -0.4525 Cl      
  31 O31            6.3797     3.2947    -2.5423 O.3     
  32 C32            6.9396     4.4660    -3.1392 C.3     
  33 H33           -0.6712     0.1043     1.3397 H       
  34 H34            1.4500    -1.1328     1.4128 H       
  35 H35            3.1612     1.6505    -1.3630 H       
  36 H36            7.8106    -1.6123    -0.1455 H       
  37 H37            5.7129     1.0406    -1.3891 H       
  38 H38            8.9885     3.4938    -2.6175 H       
  39 H39           10.5710     1.8243    -1.7437 H       
  40 H40            1.8781    -2.4544     0.5292 H       
  41 H41            3.0696    -3.7734     0.6237 H       
  42 H42            3.7318    -3.0130     2.8891 H       
  43 H43            2.5403    -1.6940     2.7946 H       
  44 H44            0.8365    -5.6688     4.9211 H       
  45 H45           -0.0125    -4.3011     5.6806 H       
  46 H46           -0.3782    -4.7520     3.9980 H       
  47 H47            2.9617    -2.3773     4.7087 H       
  48 H48            1.5712    -2.3529     5.8197 H       
  49 H49            2.7627    -3.6718     5.9141 H       
  50 H50           -0.2559     4.5851    -2.2966 H       
  51 H51           -0.7620     2.9056    -2.6160 H       
  52 H52           -0.6487     4.2370     0.1369 H       
  53 H53           -2.1324     3.9080    -0.7954 H       
  54 H54            7.5463     4.9942    -2.4036 H       
  55 H55            7.5631     4.1796    -3.9862 H       
  56 H56            6.1366     5.1178    -3.4833 H       
@<TRIPOS>BOND
   1    1    2 ar
   2    1    6 ar
   3    1   29 1
   4    2    3 ar
   5    2   33 1
   6    3    4 ar
   7    3   34 1
   8    4    5 ar
   9    4    7 1
  10    5    6 ar
  11    5   35 1
  12    6   26 1
  13    7   15 2
  14    7   18 1
  15    8    9 1
  16    8   16 1
  17    8   36 1
  18    9   10 ar
  19    9   14 ar
  20   10   11 ar
  21   10   37 1
  22   11   12 ar
  23   11   31 1
  24   12   13 ar
  25   12   38 1
  26   13   14 ar
  27   13   39 1
  28   14   30 1
  29   15   16 1
  30   16   17 2
  31   17   18 1
  32   18   19 1
  33   19   20 1
  34   19   40 1
  35   19   41 1
  36   20   21 1
  37   20   42 1
  38   20   43 1
  39   21   22 am
  40   21   24 2
  41   22   23 1
  42   22   25 1
  43   23   44 1
  44   23   45 1
  45   23   46 1
  46   25   47 1
  47   25   48 1
  48   25   49 1
  49   26   27 1
  50   27   28 1
  51   27   50 1
  52   27   51 1
  53   28   29 1
  54   28   52 1
  55   28   53 1
  56   31   32 1
  57   32   54 1
  58   32   55 1
  59   32   56 1

#	End of record

