#	Name: ASD07930733
#	Creating user name:	WinNT
#	Creation time:	15. 06. 2019 21:13

#	Modifying user name:	WinNT
#	Modification time:	15. 06. 2019 21:13

#	Program:	/corina/corina34_cracker 3.40 0067  02.08.2006

@<TRIPOS>MOLECULE
ASD07930733
  46   48    0    0    0
SMALL
NO_CHARGES


@<TRIPOS>ATOM
   1 C1            -0.0178     1.4608     0.0101 C.3     
   2 N2             0.8031    -0.4153    -2.1619 N.2     
   3 N3            -0.8796    -1.7833    -1.2911 N.pl3   
   4 C4            -0.9005    -2.8248    -0.2586 C.3     
   5 C5            -1.2102    -2.1834     1.1010 C.3     
   6 S6             0.0275    -0.8859     1.4156 S.o2    
   7 N7             0.0021    -0.0041     0.0020 N.am    
   8 C8             0.0002    -0.7257    -1.1832 C.2     
   9 C9             0.4646    -3.5132    -0.1997 C.3     
  10 O10           -0.4323     0.0192     2.4099 O.2     
  11 O11            1.3354    -1.4387     1.4687 O.2     
  12 C12           -1.9634    -3.8404    -0.5898 C.ar    
  13 C13           -2.2925    -4.0886    -1.9068 C.ar    
  14 C14           -3.2753    -5.0283    -2.2116 C.ar    
  15 C15           -3.9204    -5.7124    -1.1837 C.ar    
  16 C16           -3.5834    -5.4563     0.1302 C.ar    
  17 C17           -2.6036    -4.5264     0.4268 C.ar    
  18 C18           -2.6096    -1.5655     1.0731 C.3     
  19 C19           -3.6337    -5.2990    -3.6260 C.ar    
  20 C20           -4.6149    -6.2374    -3.9285 C.ar    
  21 C21           -4.9466    -6.4860    -5.2597 C.ar    
  22 C22           -4.2919    -5.7917    -6.2801 C.ar    
  23 C23           -3.3195    -4.8624    -5.9713 C.ar    
  24 C24           -2.9915    -4.6091    -4.6533 C.ar    
  25 C25           -5.9552    -7.4507    -5.5801 C.1     
  26 N26           -6.7554    -8.2160    -5.8343 N.1     
  27 H27            1.0048     1.8381     0.0023 H       
  28 H28           -0.5450     1.8219    -0.8730 H       
  29 H29           -0.5280     1.8123     0.9069 H       
  30 H30            1.4154     0.3313    -2.0687 H       
  31 H31           -1.4804    -1.8399    -2.0505 H       
  32 H32           -1.1573    -2.9394     1.8845 H       
  33 H33            1.2322    -2.7780     0.0418 H       
  34 H34            0.4485    -4.2871     0.5677 H       
  35 H35            0.6857    -3.9650    -1.1667 H       
  36 H36           -1.7895    -3.5552    -2.6998 H       
  37 H37           -4.6831    -6.4414    -1.4143 H       
  38 H38           -4.0829    -5.9860     0.9279 H       
  39 H39           -2.3430    -4.3291     1.4562 H       
  40 H40           -3.3455    -2.3419     0.8638 H       
  41 H41           -2.8256    -1.1113     2.0401 H       
  42 H42           -2.6546    -0.8031     0.2953 H       
  43 H43           -5.1174    -6.7713    -3.1356 H       
  44 H44           -4.5469    -5.9829    -7.3120 H       
  45 H45           -2.8156    -4.3281    -6.7631 H       
  46 H46           -2.2296    -3.8805    -4.4185 H       
@<TRIPOS>BOND
   1    1    7 1
   2    1   27 1
   3    1   28 1
   4    1   29 1
   5    2    8 2
   6    2   30 1
   7    3    4 1
   8    3    8 1
   9    3   31 1
  10    4    5 1
  11    4    9 1
  12    4   12 1
  13    5    6 1
  14    5   18 1
  15    5   32 1
  16    6    7 am
  17    6   10 2
  18    6   11 2
  19    7    8 1
  20    9   33 1
  21    9   34 1
  22    9   35 1
  23   12   13 ar
  24   12   17 ar
  25   13   14 ar
  26   13   36 1
  27   14   15 ar
  28   14   19 1
  29   15   16 ar
  30   15   37 1
  31   16   17 ar
  32   16   38 1
  33   17   39 1
  34   18   40 1
  35   18   41 1
  36   18   42 1
  37   19   20 ar
  38   19   24 ar
  39   20   21 ar
  40   20   43 1
  41   21   22 ar
  42   21   25 1
  43   22   23 ar
  44   22   44 1
  45   23   24 ar
  46   23   45 1
  47   24   46 1
  48   25   26 3

#	End of record

