#	Name: ASD03331823
#	Creating user name:	WinNT
#	Creation time:	15. 06. 2019 20:39

#	Modifying user name:	WinNT
#	Modification time:	15. 06. 2019 20:39

#	Program:	/corina/corina34_cracker 3.40 0067  02.08.2006

@<TRIPOS>MOLECULE
ASD03331823
  34   36    0    0    0
SMALL
NO_CHARGES


@<TRIPOS>ATOM
   1 C1             3.3044     4.0509    -1.4696 C.ar    
   2 C2             4.4908     3.5645    -1.9426 C.ar    
   3 C3             4.9610     2.3266    -1.5271 C.ar    
   4 C4             4.2414     1.5660    -0.6312 C.ar    
   5 C5             2.5594     3.2972    -0.5609 C.ar    
   6 C6             1.2843     3.5046     0.1296 C.2     
   7 C7             3.0319     2.0415    -0.1365 C.ar    
   8 N8             2.1031     1.5346     0.7455 N.pl3   
   9 C9             1.0698     2.4196     0.8925 C.2     
  10 C10            0.3842     4.7071     0.0077 C.3     
  11 C11            0.4370     5.5056     1.2847 C.ar    
  12 C12           -0.6817     6.5332     3.1354 C.ar    
  13 C13            0.5339     6.9700     3.6277 C.ar    
  14 C14            1.7005     6.6801     2.9451 C.ar    
  15 C15            1.6521     5.9476     1.7737 C.ar    
  16 C16           -0.7302     5.8008     1.9640 C.ar    
  17 C17            0.8530     5.5791    -1.1588 C.3     
  18 N18            0.7084     4.8359    -2.4130 N.pl3   
  19 O19           -0.2945     4.1755    -2.6174 O.2     
  20 O20            1.5910     4.8783    -3.2513 O.2     
  21 Br21          -0.4370     2.1545     2.0039 Br      
  22 H22            2.9467     5.0168    -1.7942 H       
  23 H23            5.0668     4.1479    -2.6456 H       
  24 H24            5.9002     1.9555    -1.9101 H       
  25 H25            4.6154     0.6036    -0.3144 H       
  26 H26            2.1716     0.6780     1.1956 H       
  27 H27           -0.6392     4.3781    -0.1730 H       
  28 H28           -1.5931     6.7598     3.6687 H       
  29 H29            0.5718     7.5422     4.5429 H       
  30 H30            2.6503     7.0213     3.3297 H       
  31 H31            2.5635     5.7204     1.2408 H       
  32 H32           -1.6799     5.4596     1.5794 H       
  33 H33            0.2482     6.4848    -1.2014 H       
  34 H34            1.8995     5.8474    -1.0141 H       
@<TRIPOS>BOND
   1    1    2 ar
   2    1    5 ar
   3    1   22 1
   4    2    3 ar
   5    2   23 1
   6    3    4 ar
   7    3   24 1
   8    4    7 ar
   9    4   25 1
  10    5    7 ar
  11    5    6 1
  12    6    9 2
  13    6   10 1
  14    7    8 1
  15    8    9 1
  16    8   26 1
  17    9   21 1
  18   10   11 1
  19   10   17 1
  20   10   27 1
  21   11   16 ar
  22   11   15 ar
  23   12   13 ar
  24   12   16 ar
  25   12   28 1
  26   13   14 ar
  27   13   29 1
  28   14   15 ar
  29   14   30 1
  30   15   31 1
  31   16   32 1
  32   17   18 1
  33   17   33 1
  34   17   34 1
  35   18   19 2
  36   18   20 2

#	End of record

