#	Name: ASD02500139
#	Creating user name:	WinNT
#	Creation time:	15. 06. 2019 20:22

#	Modifying user name:	WinNT
#	Modification time:	15. 06. 2019 20:22

#	Program:	/corina/corina34_cracker 3.40 0067  02.08.2006

@<TRIPOS>MOLECULE
ASD02500139
  60   64    0    0    0
SMALL
NO_CHARGES


@<TRIPOS>ATOM
   1 N1            -3.5808     5.4584    -0.0921 N.ar    
   2 C2            -4.7462     6.0285    -0.2792 C.ar    
   3 C3            -5.8400     5.7462     0.5364 C.ar    
   4 C4            -5.7128     4.8540     1.5626 C.ar    
   5 C5            -4.4599     4.2433     1.7603 C.ar    
   6 C6            -4.2531     3.3168     2.7945 C.ar    
   7 C7            -3.0261     2.7480     2.9531 C.ar    
   8 C8            -1.9719     3.0738     2.1026 C.ar    
   9 C9            -2.1371     3.9679     1.0898 C.ar    
  10 C10           -3.3890     4.5762     0.8939 C.ar    
  11 S11           -0.7866     4.3622     0.0290 S.o2    
  12 O12           -0.7321     5.7804    -0.0409 O.2     
  13 O13            0.3070     3.5625     0.4577 O.2     
  14 N14           -1.1853     3.8341    -1.4890 N.am    
  15 C15           -1.4044     2.4805    -1.7190 C.ar    
  16 C16           -2.5188     2.0708    -2.4460 C.ar    
  17 C17           -2.7384     0.7319    -2.6753 C.ar    
  18 C18           -1.8410    -0.2174    -2.1774 C.ar    
  19 C19           -0.7229     0.1971    -1.4478 C.ar    
  20 C20           -0.5058     1.5379    -1.2267 C.ar    
  21 C21           -2.0738    -1.6536    -2.4210 C.2     
  22 O22           -1.1428    -2.3795    -2.7125 O.2     
  23 N23           -3.3182    -2.1612    -2.3204 N.am    
  24 C24           -3.5530    -3.6033    -2.4793 C.3     
  25 C25           -4.2836    -4.1210    -1.2341 C.3     
  26 N26           -5.4301    -3.2424    -0.9631 N.am    
  27 C27           -5.1953    -1.8003    -0.8042 C.3     
  28 C28           -4.4640    -1.2834    -2.0438 C.3     
  29 C29           -6.6745    -3.7500    -0.8625 C.2     
  30 O30           -6.8560    -4.9417    -0.9959 O.2     
  31 C31           -7.8406    -2.8367    -0.5842 C.3     
  32 C32           -9.1288    -3.6597    -0.5195 C.3     
  33 C33          -10.4150    -2.9289    -0.1289 C.3     
  34 C34          -10.2001    -3.3792    -1.5752 C.3     
  35 H35           -4.8616     6.7362    -1.0869 H       
  36 H36           -6.7875     6.2328     0.3576 H       
  37 H37           -6.5500     4.6237     2.2048 H       
  38 H38           -5.0625     3.0568     3.4607 H       
  39 H39           -2.8679     2.0353     3.7490 H       
  40 H40           -1.0079     2.6096     2.2494 H       
  41 H41           -1.2659     4.4692    -2.2178 H       
  42 H42           -3.2119     2.8047    -2.8300 H       
  43 H43           -3.6033     0.4147    -3.2389 H       
  44 H44           -0.0281    -0.5339    -1.0616 H       
  45 H45            0.3603     1.8590    -0.6672 H       
  46 H46           -4.1666    -3.7789    -3.3629 H       
  47 H47           -2.5989    -4.1198    -2.5848 H       
  48 H48           -4.6355    -5.1371    -1.4124 H       
  49 H49           -3.6051    -4.1106    -0.3811 H       
  50 H50           -6.1494    -1.2838    -0.6986 H       
  51 H51           -4.5817    -1.6247     0.0794 H       
  52 H52           -4.1114    -0.2681    -1.8619 H       
  53 H53           -5.1439    -1.2900    -2.8957 H       
  54 H54           -7.6854    -2.3292     0.3678 H       
  55 H55           -7.9213    -2.0975    -1.3811 H       
  56 H56           -9.0124    -4.6893    -0.1814 H       
  57 H57          -11.1449    -3.4780     0.4660 H       
  58 H58          -10.3434    -1.8619     0.0820 H       
  59 H59           -9.9871    -2.6083    -2.3159 H       
  60 H60          -10.7886    -4.2244    -1.9320 H       
@<TRIPOS>BOND
   1    1    2 ar
   2    1   10 ar
   3    2    3 ar
   4    2   35 1
   5    3    4 ar
   6    3   36 1
   7    4    5 ar
   8    4   37 1
   9    5    6 ar
  10    5   10 ar
  11    6    7 ar
  12    6   38 1
  13    7    8 ar
  14    7   39 1
  15    8    9 ar
  16    8   40 1
  17    9   10 ar
  18    9   11 1
  19   11   12 2
  20   11   13 2
  21   11   14 am
  22   14   15 1
  23   14   41 1
  24   15   16 ar
  25   15   20 ar
  26   16   17 ar
  27   16   42 1
  28   17   18 ar
  29   17   43 1
  30   18   19 ar
  31   18   21 1
  32   19   20 ar
  33   19   44 1
  34   20   45 1
  35   21   22 2
  36   21   23 am
  37   23   24 1
  38   23   28 1
  39   24   25 1
  40   24   46 1
  41   24   47 1
  42   25   26 1
  43   25   48 1
  44   25   49 1
  45   26   27 1
  46   26   29 am
  47   27   28 1
  48   27   50 1
  49   27   51 1
  50   28   52 1
  51   28   53 1
  52   29   30 2
  53   29   31 1
  54   31   32 1
  55   31   54 1
  56   31   55 1
  57   32   33 1
  58   32   34 1
  59   32   56 1
  60   33   34 1
  61   33   57 1
  62   33   58 1
  63   34   59 1
  64   34   60 1

#	End of record

