#	Name: ASD01814566
#	Creating user name:	WinNT
#	Creation time:	15. 06. 2019 19:32

#	Modifying user name:	WinNT
#	Modification time:	15. 06. 2019 19:32

#	Program:	/corina/corina34_cracker 3.40 0067  02.08.2006

@<TRIPOS>MOLECULE
ASD01814566
  62   66    0    0    0
SMALL
NO_CHARGES


@<TRIPOS>ATOM
   1 C1            -0.0168     1.3882     0.0097 C.ar    
   2 C2             0.0021    -0.0041     0.0020 C.ar    
   3 C3             1.1795    -0.6891    -0.0124 C.ar    
   4 C4             2.3944     0.0147    -0.0202 C.ar    
   5 C5             2.3745     1.4312    -0.0129 C.ar    
   6 C6             1.1424     2.1038     0.0024 C.ar    
   7 C7             3.6273    -0.6667    -0.0345 C.ar    
   8 C8             4.7911     0.0287    -0.0410 C.ar    
   9 C9             4.7929     1.4362    -0.0341 C.ar    
  10 C10            3.5923     2.1420    -0.0203 C.ar    
  11 O11            3.5945     3.4965    -0.0140 O.3     
  12 C12            6.0721     2.1670    -0.0414 C.2     
  13 O13            6.0777     3.3832    -0.0354 O.2     
  14 C14            3.6526    -2.1735    -0.0423 C.3     
  15 C15            3.5246    -2.6708    -1.4591 C.ar    
  16 C16            4.6567    -2.8816    -2.2332 C.ar    
  17 C17            4.4942    -3.3395    -3.5297 C.ar    
  18 C18            3.2111    -3.5710    -4.0087 C.ar    
  19 N19            2.1556    -3.3580    -3.2394 N.ar    
  20 C20            2.2790    -2.9272    -1.9992 C.ar    
  21 N21            3.0330    -4.0330    -5.3163 N.pl3   
  22 N22            7.2362     1.4879    -0.0548 N.am    
  23 C23            8.5082     2.2146    -0.0621 C.3     
  24 C24            9.5942     1.3354    -0.6854 C.3     
  25 C25           10.9227     2.0944    -0.6931 C.3     
  26 C26           11.3155     2.4494     0.7424 C.3     
  27 C27           10.2295     3.3285     1.3658 C.3     
  28 C28            8.9010     2.5696     1.3734 C.3     
  29 O29            9.2274     1.0039    -2.0261 O.3     
  30 C30            1.8437    -4.3013    -5.9154 C.2     
  31 C31            2.1053    -4.7238    -7.1736 C.2     
  32 C32            3.4933    -4.7148    -7.3523 C.2     
  33 N33            4.0489    -4.2962    -6.2444 N.2     
  34 C34            3.5844     4.1511    -1.2841 C.3     
  35 H35           -0.9635     1.9079     0.0170 H       
  36 H36           -0.9304    -0.5489     0.0080 H       
  37 H37            1.1785    -1.7691    -0.0175 H       
  38 H38            1.1136     3.1834     0.0085 H       
  39 H39            5.7301    -0.5049    -0.0514 H       
  40 H40            4.5938    -2.5232     0.3819 H       
  41 H41            2.8223    -2.5539     0.5527 H       
  42 H42            5.6421    -2.6924    -1.8336 H       
  43 H43            5.3535    -3.5140    -4.1602 H       
  44 H44            1.3948    -2.7649    -1.4007 H       
  45 H45            7.2317     0.5179    -0.0596 H       
  46 H46            8.4011     3.1287    -0.6461 H       
  47 H47            9.7014     0.4214    -0.1014 H       
  48 H48           11.6964     1.4681    -1.1371 H       
  49 H49           10.8156     3.0085    -1.2771 H       
  50 H50           11.4226     1.5353     1.3264 H       
  51 H51           12.2619     2.9901     0.7370 H       
  52 H52           10.5093     3.5815     2.3884 H       
  53 H53           10.1223     4.2426     0.7818 H       
  54 H54            8.1273     3.1959     1.8175 H       
  55 H55            9.0081     1.6555     1.9574 H       
  56 H56            9.8717     0.4467    -2.4839 H       
  57 H57            0.8663    -4.1969    -5.4680 H       
  58 H58            1.3720    -5.0166    -7.9105 H       
  59 H59            4.0165    -5.0001    -8.2531 H       
  60 H60            3.5874     5.2311    -1.1363 H       
  61 H61            4.4690     3.8595    -1.8503 H       
  62 H62            2.6891     3.8623    -1.8347 H       
@<TRIPOS>BOND
   1    1    2 ar
   2    1    6 ar
   3    1   35 1
   4    2    3 ar
   5    2   36 1
   6    3    4 ar
   7    3   37 1
   8    4    5 ar
   9    4    7 ar
  10    5    6 ar
  11    5   10 ar
  12    6   38 1
  13    7    8 ar
  14    7   14 1
  15    8    9 ar
  16    8   39 1
  17    9   10 ar
  18    9   12 1
  19   10   11 1
  20   11   34 1
  21   12   13 2
  22   12   22 am
  23   14   15 1
  24   14   40 1
  25   14   41 1
  26   15   16 ar
  27   15   20 ar
  28   16   17 ar
  29   16   42 1
  30   17   18 ar
  31   17   43 1
  32   18   19 ar
  33   18   21 1
  34   19   20 ar
  35   20   44 1
  36   21   30 1
  37   21   33 1
  38   22   23 1
  39   22   45 1
  40   23   24 1
  41   23   28 1
  42   23   46 1
  43   24   25 1
  44   24   29 1
  45   24   47 1
  46   25   26 1
  47   25   48 1
  48   25   49 1
  49   26   27 1
  50   26   50 1
  51   26   51 1
  52   27   28 1
  53   27   52 1
  54   27   53 1
  55   28   54 1
  56   28   55 1
  57   29   56 1
  58   30   31 2
  59   30   57 1
  60   31   32 1
  61   31   58 1
  62   32   33 2
  63   32   59 1
  64   34   60 1
  65   34   61 1
  66   34   62 1

#	End of record

