#	Name: ASD03092839
#	Creating user name:	WinNT
#	Creation time:	15. 06. 2019 20:33

#	Modifying user name:	WinNT
#	Modification time:	15. 06. 2019 20:33

#	Program:	/corina/corina34_cracker 3.40 0067  02.08.2006

@<TRIPOS>MOLECULE
ASD03092839
  34   36    0    0    0
SMALL
NO_CHARGES


@<TRIPOS>ATOM
   1 C1            -0.0187     1.5255     0.0104 C.3     
   2 C2             1.4304     2.0303    -0.0007 C.3     
   3 C3             2.0877     1.6246     1.3214 C.3     
   4 C4             1.8108     0.1772     1.6069 C.2     
   5 N5             0.9024    -0.5082     1.0303 N.2     
   6 C6             0.0021    -0.0041     0.0020 C.3     
   7 C7             2.6448    -0.4976     2.6212 C.ar    
   8 C8             3.6515     0.2015     3.2903 C.ar    
   9 N9             4.3989    -0.3943     4.1967 N.ar    
  10 C10            4.2357    -1.6632     4.5127 C.ar    
  11 C11            3.2537    -2.4354     3.8932 C.ar    
  12 C12            2.4347    -1.8454     2.9307 C.ar    
  13 C13            3.0791    -3.8637     4.2566 C.ar    
  14 C14            2.0994    -4.6301     3.6289 C.ar    
  15 C15            1.9417    -5.9581     3.9704 C.ar    
  16 C16            2.7537    -6.5281     4.9343 C.ar    
  17 C17            3.7278    -5.7718     5.5606 C.ar    
  18 C18            3.8981    -4.4445     5.2227 C.ar    
  19 H19           -0.5241     1.8807     0.9085 H       
  20 H20           -0.5411     1.8903    -0.8739 H       
  21 H21            1.9704     1.5798    -0.8334 H       
  22 H22            1.4409     3.1159    -0.0989 H       
  23 H23            3.1643     1.7807     1.2533 H       
  24 H24            1.6849     2.2363     2.1287 H       
  25 H25           -1.0042    -0.3785     0.1898 H       
  26 H26            0.3391    -0.3538    -0.9738 H       
  27 H27            3.8196     1.2435     3.0616 H       
  28 H28            4.8716    -2.1114     5.2617 H       
  29 H29            1.6620    -2.4146     2.4354 H       
  30 H30            1.4644    -4.1859     2.8767 H       
  31 H31            1.1826    -6.5531     3.4845 H       
  32 H32            2.6264    -7.5674     5.1990 H       
  33 H33            4.3589    -6.2218     6.3127 H       
  34 H34            4.6617    -3.8559     5.7094 H       
@<TRIPOS>BOND
   1    1    6 1
   2    1    2 1
   3    1   19 1
   4    1   20 1
   5    2    3 1
   6    2   21 1
   7    2   22 1
   8    3    4 1
   9    3   23 1
  10    3   24 1
  11    4    5 2
  12    4    7 1
  13    5    6 1
  14    6   25 1
  15    6   26 1
  16    7   12 ar
  17    7    8 ar
  18    8    9 ar
  19    8   27 1
  20    9   10 ar
  21   10   11 ar
  22   10   28 1
  23   11   12 ar
  24   11   13 1
  25   12   29 1
  26   13   18 ar
  27   13   14 ar
  28   14   15 ar
  29   14   30 1
  30   15   16 ar
  31   15   31 1
  32   16   17 ar
  33   16   32 1
  34   17   18 ar
  35   17   33 1
  36   18   34 1

#	End of record

