#	Name: ASD05430060
#	Creating user name:	WinNT
#	Creation time:	15. 06. 2019 20:59

#	Modifying user name:	WinNT
#	Modification time:	15. 06. 2019 20:59

#	Program:	/corina/corina34_cracker 3.40 0067  02.08.2006

@<TRIPOS>MOLECULE
ASD05430060
  61   66    0    0    0
SMALL
NO_CHARGES


@<TRIPOS>ATOM
   1 C1             0.0682     1.4879     0.0272 C.ar    
   2 C2             0.1117     0.1015     0.0262 C.ar    
   3 C3            -1.0949    -0.6108     0.0393 C.ar    
   4 C4            -2.2813     0.0915     0.0527 C.ar    
   5 C5            -2.2457     1.4900     0.0529 C.ar    
   6 N6            -1.0821     2.1326     0.0445 N.ar    
   7 O7            -2.2973     4.3178     0.0546 O.3     
   8 C8            -3.4725     3.6035     0.0673 C.2     
   9 C9            -3.5025     2.2534     0.0671 C.2     
  10 C10           -2.2886     5.4869     0.8848 C.3     
  11 C11           -3.3904     6.5162     0.5891 C.3     
  12 N12           -4.6463     5.7868     0.4168 N.pl3   
  13 C13           -4.7053     4.4300     0.0818 C.2     
  14 C14           -6.0281     6.2392     0.5587 C.3     
  15 O15           -6.7815     5.2124    -0.1212 O.3     
  16 N16           -5.9146     4.0887    -0.2027 N.2     
  17 C17           -6.4181     6.3109     2.0126 C.ar    
  18 C18           -6.2256     7.5948    -0.1227 C.3     
  19 C19           -5.4448     6.4621     2.9826 C.ar    
  20 C20           -7.7494     6.2311     2.3759 C.ar    
  21 C21           -8.1071     6.2968     3.7096 C.ar    
  22 C22           -7.1334     6.4419     4.6800 C.ar    
  23 C23           -5.8025     6.5278     4.3162 C.ar    
  24 C24           -1.8591     5.3153     2.3415 C.3     
  25 C25           -0.9326     6.0180     1.3465 C.3     
  26 C26            1.4891     2.0094     0.0126 C.3     
  27 C27            2.3659     0.7469     0.0029 C.3     
  28 N28            1.4241    -0.3757     0.0123 N.am    
  29 C29            1.7732    -1.6775     0.0085 C.2     
  30 O30            2.9448    -1.9912    -0.0036 O.2     
  31 C31            0.7078    -2.7433     0.0191 C.3     
  32 C32            1.3674    -4.1238     0.0121 C.3     
  33 C33           -7.5233     6.5141     6.1338 C.3     
  34 F34           -7.5410     5.2248     6.6765 F       
  35 F35           -6.5958     7.2992     6.8270 F       
  36 F36           -8.7953     7.0855     6.2477 F       
  37 H37           -1.0956    -1.6908     0.0385 H       
  38 H38           -3.2262    -0.4314     0.0626 H       
  39 H39           -4.4496     1.7344     0.0773 H       
  40 H40           -3.4789     7.2125     1.4230 H       
  41 H41           -3.1513     7.0610    -0.3242 H       
  42 H42           -5.9910     7.5059    -1.1834 H       
  43 H43           -7.2614     7.9132    -0.0050 H       
  44 H44           -5.5650     8.3312     0.3350 H       
  45 H45           -4.4050     6.5286     2.6984 H       
  46 H46           -8.5102     6.1177     1.6178 H       
  47 H47           -9.1473     6.2352     3.9933 H       
  48 H48           -5.0417     6.6413     5.0744 H       
  49 H49           -2.3564     5.9333     3.0891 H       
  50 H50           -1.5793     4.3141     2.6692 H       
  51 H51           -0.0433     5.4791     1.0198 H       
  52 H52           -0.8203     7.0982     1.4397 H       
  53 H53            1.6669     2.6026    -0.8844 H       
  54 H54            1.6857     2.6018     0.9062 H       
  55 H55            2.9784     0.7190    -0.8983 H       
  56 H56            2.9972     0.7182     0.8910 H       
  57 H57            0.0967    -2.6372     0.9154 H       
  58 H58            0.0785    -2.6369    -0.8645 H       
  59 H59            0.5969    -4.8947     0.0198 H       
  60 H60            1.9786    -4.2300    -0.8841 H       
  61 H61            1.9968    -4.2303     0.8957 H       
@<TRIPOS>BOND
   1    1    2 ar
   2    1   26 1
   3    1    6 ar
   4    2    3 ar
   5    2   28 1
   6    3    4 ar
   7    3   37 1
   8    4    5 ar
   9    4   38 1
  10    5    6 ar
  11    5    9 1
  12    7    8 1
  13    7   10 1
  14    8    9 2
  15    8   13 1
  16    9   39 1
  17   10   11 1
  18   10   24 1
  19   10   25 1
  20   11   12 1
  21   11   40 1
  22   11   41 1
  23   12   13 1
  24   12   14 1
  25   13   16 2
  26   14   15 1
  27   14   17 1
  28   14   18 1
  29   15   16 1
  30   17   19 ar
  31   17   20 ar
  32   18   42 1
  33   18   43 1
  34   18   44 1
  35   19   23 ar
  36   19   45 1
  37   20   21 ar
  38   20   46 1
  39   21   22 ar
  40   21   47 1
  41   22   23 ar
  42   22   33 1
  43   23   48 1
  44   24   25 1
  45   24   49 1
  46   24   50 1
  47   25   51 1
  48   25   52 1
  49   26   27 1
  50   26   53 1
  51   26   54 1
  52   27   28 1
  53   27   55 1
  54   27   56 1
  55   28   29 am
  56   29   30 2
  57   29   31 1
  58   31   32 1
  59   31   57 1
  60   31   58 1
  61   32   59 1
  62   32   60 1
  63   32   61 1
  64   33   34 1
  65   33   35 1
  66   33   36 1

#	End of record

