#	Name: ASD06170199
#	Creating user name:	WinNT
#	Creation time:	15. 06. 2019 21:05

#	Modifying user name:	WinNT
#	Modification time:	15. 06. 2019 21:05

#	Program:	/corina/corina34_cracker 3.40 0067  02.08.2006

@<TRIPOS>MOLECULE
ASD06170199
  63   68    0    0    0
SMALL
NO_CHARGES


@<TRIPOS>ATOM
   1 C1             0.4081    -0.1416    -1.0216 C.2     
   2 C2             1.1156    -1.2437    -1.5679 C.2     
   3 C3             2.4221    -1.4801    -1.1527 C.2     
   4 C4             2.9978    -0.6170    -0.2040 C.2     
   5 C5             2.2639     0.4396     0.2940 C.2     
   6 N6             0.9980     0.6594    -0.1155 N.am    
   7 C7             0.4767    -2.1236    -2.5584 C.2     
   8 O8             1.1275    -2.9891    -3.1126 O.2     
   9 N9            -0.8299    -1.9710    -2.8519 N.am    
  10 C10            4.3884    -0.8417     0.2599 C.ar    
  11 C11            5.1303    -1.9109    -0.2438 C.ar    
  12 N12            4.9343    -0.0221     1.1529 N.ar    
  13 N13            6.3670    -2.1062     0.1724 N.ar    
  14 C14            6.9031    -1.2909     1.0651 C.ar    
  15 C15            6.1731    -0.2264     1.5631 C.ar    
  16 C16            0.2840     1.7422     0.4118 C.ar    
  17 C17           -0.4109     1.6021     1.6060 C.ar    
  18 C18           -1.1139     2.6722     2.1238 C.ar    
  19 C19           -1.1263     3.8822     1.4545 C.ar    
  20 C20           -0.4354     4.0250     0.2651 C.ar    
  21 C21            0.2738     2.9602    -0.2553 C.ar    
  22 O22           -0.7354     0.0832    -1.3779 O.2     
  23 C23           -1.4133    -2.7413    -3.8577 C.ar    
  24 C24           -0.8053    -3.9267    -4.2559 C.ar    
  25 C25           -1.3925    -4.6832    -5.2538 C.ar    
  26 C26           -2.5777    -4.2244    -5.8238 C.ar    
  27 C27           -3.1264    -3.0333    -5.3762 C.ar    
  28 N28           -2.5422    -2.3389    -4.4185 N.ar    
  29 O29           -3.1885    -4.9363    -6.8080 O.3     
  30 N30           -5.9544    -7.7797    -5.6792 N.ar    
  31 C31           -5.4131    -6.9919    -4.7799 C.ar    
  32 C32           -4.4790    -6.0227    -5.1225 C.ar    
  33 C33           -4.0982    -5.8733    -6.4446 C.ar    
  34 C34           -4.6872    -6.7274    -7.4045 C.ar    
  35 C35           -4.3511    -6.6360    -8.7631 C.ar    
  36 C36           -4.9352    -7.4730    -9.6632 C.ar    
  37 C37           -5.8702    -8.4268    -9.2507 C.ar    
  38 C38           -6.2211    -8.5412    -7.9245 C.ar    
  39 C39           -5.6330    -7.6903    -6.9752 C.ar    
  40 O40           -6.4396    -9.2498   -10.1691 O.3     
  41 C41           -6.0352    -9.0822   -11.5294 C.3     
  42 H42            2.9838    -2.3118    -1.5516 H       
  43 H43            2.7096     1.1005     1.0227 H       
  44 H44           -1.3644    -1.3253    -2.3638 H       
  45 H45            4.6930    -2.5773    -0.9725 H       
  46 H46            7.9157    -1.4541     1.4033 H       
  47 H47            6.6172     0.4391     2.2886 H       
  48 H48           -0.4019     0.6573     2.1291 H       
  49 H49           -1.6548     2.5638     3.0523 H       
  50 H50           -1.6771     4.7174     1.8612 H       
  51 H51           -0.4473     4.9711    -0.2555 H       
  52 H52            0.8166     3.0735    -1.1821 H       
  53 H53            0.1141    -4.2524    -3.7922 H       
  54 H54           -0.9425    -5.6080    -5.5835 H       
  55 H55           -4.0449    -2.6711    -5.8138 H       
  56 H56           -5.7024    -7.0997    -3.7449 H       
  57 H57           -4.0513    -5.3885    -4.3602 H       
  58 H58           -3.6306    -5.9028    -9.0942 H       
  59 H59           -4.6736    -7.3994   -10.7084 H       
  60 H60           -6.9448    -9.2812    -7.6161 H       
  61 H61           -6.2719    -8.0698   -11.8568 H       
  62 H62           -4.9612    -9.2491   -11.6124 H       
  63 H63           -6.5639    -9.7999   -12.1567 H       
@<TRIPOS>BOND
   1    1    2 1
   2    1    6 am
   3    1   22 2
   4    2    3 2
   5    2    7 1
   6    3    4 1
   7    3   42 1
   8    4    5 2
   9    4   10 1
  10    5    6 1
  11    5   43 1
  12    6   16 1
  13    7    8 2
  14    7    9 am
  15    9   23 1
  16    9   44 1
  17   10   11 ar
  18   10   12 ar
  19   11   13 ar
  20   11   45 1
  21   12   15 ar
  22   13   14 ar
  23   14   15 ar
  24   14   46 1
  25   15   47 1
  26   16   17 ar
  27   16   21 ar
  28   17   18 ar
  29   17   48 1
  30   18   19 ar
  31   18   49 1
  32   19   20 ar
  33   19   50 1
  34   20   21 ar
  35   20   51 1
  36   21   52 1
  37   23   24 ar
  38   23   28 ar
  39   24   25 ar
  40   24   53 1
  41   25   26 ar
  42   25   54 1
  43   26   27 ar
  44   26   29 1
  45   27   28 ar
  46   27   55 1
  47   29   33 1
  48   30   31 ar
  49   30   39 ar
  50   31   32 ar
  51   31   56 1
  52   32   33 ar
  53   32   57 1
  54   33   34 ar
  55   34   35 ar
  56   34   39 ar
  57   35   36 ar
  58   35   58 1
  59   36   37 ar
  60   36   59 1
  61   37   38 ar
  62   37   40 1
  63   38   39 ar
  64   38   60 1
  65   40   41 1
  66   41   61 1
  67   41   62 1
  68   41   63 1

#	End of record

