#	Name: ASD03090184
#	Creating user name:	WinNT
#	Creation time:	15. 06. 2019 20:28

#	Modifying user name:	WinNT
#	Modification time:	15. 06. 2019 20:28

#	Program:	/corina/corina34_cracker 3.40 0067  02.08.2006

@<TRIPOS>MOLECULE
ASD03090184
  46   48    0    0    0
SMALL
NO_CHARGES


@<TRIPOS>ATOM
   1 N1            -0.2821     0.9158    -0.8051 N.ar    
   2 C2            -0.1631    -0.1754    -0.0733 C.ar    
   3 C3             1.0661    -0.7739     0.1115 C.ar    
   4 C4             2.1943    -0.2066    -0.4910 C.ar    
   5 C5             2.0215     0.9500    -1.2586 C.ar    
   6 C6             0.7552     1.4826    -1.3903 C.ar    
   7 C7             3.5336    -0.8132    -0.3206 C.2     
   8 N8             7.0469    -0.7764    -0.4219 N.pl3   
   9 C9             7.4527     0.4462    -0.9634 C.ar    
  10 C10            6.6697     1.0773    -1.9215 C.ar    
  11 C11            7.0736     2.2859    -2.4543 C.ar    
  12 C12            8.2557     2.8677    -2.0349 C.ar    
  13 C13            9.0378     2.2420    -1.0810 C.ar    
  14 C14            8.6374     1.0361    -0.5404 C.ar    
  15 N15            4.6880    -0.2201    -0.5493 N.2     
  16 C16            5.6870    -1.0646    -0.2902 C.2     
  17 N17            5.1858    -2.2115     0.1084 N.2     
  18 N18            3.7885    -2.0713     0.1027 N.pl3   
  19 C19            2.8025    -3.0897     0.4726 C.3     
  20 C20            2.5543    -3.0350     1.9814 C.3     
  21 C21            0.5547     2.7281    -2.2147 C.3     
  22 C22            1.5401    -4.0826     2.3619 C.2     
  23 C23            1.1189    -4.2362     3.8007 C.3     
  24 O24            1.0648    -4.7991     1.5139 O.2     
  25 C25           10.3254     2.8798    -0.6270 C.3     
  26 F26           10.5128     4.0877    -1.3074 F       
  27 F27           10.2649     3.1243     0.7492 F       
  28 F28           11.3940     2.0195    -0.9012 F       
  29 H29           -1.0398    -0.6058     0.3877 H       
  30 H30            1.1562    -1.6667     0.7125 H       
  31 H31            2.8665     1.4195    -1.7402 H       
  32 H32            7.7098    -1.4248    -0.1375 H       
  33 H33            5.7464     0.6233    -2.2498 H       
  34 H34            6.4655     2.7770    -3.1996 H       
  35 H35            8.5694     3.8126    -2.4534 H       
  36 H36            9.2485     0.5481     0.2045 H       
  37 H37            1.8685    -2.9003    -0.0564 H       
  38 H38            3.1798    -4.0759     0.2020 H       
  39 H39            3.4883    -3.2244     2.5103 H       
  40 H40            2.1771    -2.0488     2.2520 H       
  41 H41            0.3502     2.4503    -3.2487 H       
  42 H42           -0.2871     3.2951    -1.8175 H       
  43 H43            1.4562     3.3395    -2.1743 H       
  44 H44            1.6502    -3.5087     4.4144 H       
  45 H45            0.0454    -4.0676     3.8850 H       
  46 H46            1.3566    -5.2432     4.1434 H       
@<TRIPOS>BOND
   1    1    2 ar
   2    1    6 ar
   3    2    3 ar
   4    2   29 1
   5    3    4 ar
   6    3   30 1
   7    4    5 ar
   8    4    7 1
   9    5    6 ar
  10    5   31 1
  11    6   21 1
  12    7   15 2
  13    7   18 1
  14    8    9 1
  15    8   16 1
  16    8   32 1
  17    9   10 ar
  18    9   14 ar
  19   10   11 ar
  20   10   33 1
  21   11   12 ar
  22   11   34 1
  23   12   13 ar
  24   12   35 1
  25   13   14 ar
  26   13   25 1
  27   14   36 1
  28   15   16 1
  29   16   17 2
  30   17   18 1
  31   18   19 1
  32   19   20 1
  33   19   37 1
  34   19   38 1
  35   20   22 1
  36   20   39 1
  37   20   40 1
  38   21   41 1
  39   21   42 1
  40   21   43 1
  41   22   23 1
  42   22   24 2
  43   23   44 1
  44   23   45 1
  45   23   46 1
  46   25   26 1
  47   25   27 1
  48   25   28 1

#	End of record

