#	Name: ASD03090090
#	Creating user name:	WinNT
#	Creation time:	15. 06. 2019 20:28

#	Modifying user name:	WinNT
#	Modification time:	15. 06. 2019 20:28

#	Program:	/corina/corina34_cracker 3.40 0067  02.08.2006

@<TRIPOS>MOLECULE
ASD03090090
  41   43    0    0    0
SMALL
NO_CHARGES


@<TRIPOS>ATOM
   1 C1            -0.0179     1.4706     0.0101 C.2     
   2 C2             0.0021    -0.0041     0.0020 C.ar    
   3 C3             1.2216    -0.6880    -0.0133 C.ar    
   4 C4             1.2372    -2.0588    -0.0203 C.ar    
   5 C5             0.0396    -2.7703    -0.0122 C.ar    
   6 C6            -1.1768    -2.0917     0.0030 C.ar    
   7 C7            -1.1984    -0.7210     0.0155 C.ar    
   8 O8             1.0268     2.0929     0.0035 O.2     
   9 N9            -1.1941     2.1285     0.0193 N.am    
  10 S10            0.0635    -4.5322    -0.0219 S.3     
  11 C11           -1.6982    -4.9642    -0.0067 C.3     
  12 F12           -2.3195    -4.4287    -1.1400 F       
  13 F13           -1.8370    -6.3563    -0.0128 F       
  14 F14           -2.2968    -4.4409     1.1444 F       
  15 C15           -1.2140     3.5934     0.0273 C.3     
  16 C16           -2.6415     4.0763     0.0367 C.ar    
  17 C17           -3.2894     4.2909     1.2393 C.ar    
  18 C18           -4.5977     4.7336     1.2511 C.ar    
  19 C19           -5.2622     4.9630     0.0540 C.ar    
  20 C20           -4.6091     4.7466    -1.1518 C.ar    
  21 C21           -3.2989     4.3094    -1.1572 C.ar    
  22 N22           -6.5904     5.4119     0.0627 N.pl3   
  23 C23           -7.3500     5.6731    -1.0418 C.2     
  24 C24           -8.5667     6.0827    -0.6290 C.2     
  25 C25           -8.5601     6.0747     0.7804 C.2     
  26 C26           -7.3415     5.6550     1.1771 C.2     
  27 H27            2.1504    -0.1369    -0.0199 H       
  28 H28            2.1788    -2.5876    -0.0325 H       
  29 H29           -2.1037    -2.6459     0.0089 H       
  30 H30           -2.1417    -0.1954     0.0315 H       
  31 H31           -2.0275     1.6321     0.0205 H       
  32 H32           -0.7009     3.9588     0.9169 H       
  33 H33           -0.7094     3.9685    -0.8630 H       
  34 H34           -2.7721     4.1120     2.1703 H       
  35 H35           -5.1034     4.9007     2.1907 H       
  36 H36           -5.1237     4.9239    -2.0847 H       
  37 H37           -2.7888     4.1454    -2.0949 H       
  38 H38           -7.0311     5.5700    -2.0685 H       
  39 H39           -9.3944     6.3656    -1.2624 H       
  40 H40           -9.3818     6.3505     1.4247 H       
  41 H41           -7.0151     5.5342     2.1995 H       
@<TRIPOS>BOND
   1    1    2 1
   2    1    8 2
   3    1    9 am
   4    2    3 ar
   5    2    7 ar
   6    3    4 ar
   7    3   27 1
   8    4    5 ar
   9    4   28 1
  10    5    6 ar
  11    5   10 1
  12    6    7 ar
  13    6   29 1
  14    7   30 1
  15    9   15 1
  16    9   31 1
  17   10   11 1
  18   11   12 1
  19   11   13 1
  20   11   14 1
  21   15   16 1
  22   15   32 1
  23   15   33 1
  24   16   17 ar
  25   16   21 ar
  26   17   18 ar
  27   17   34 1
  28   18   19 ar
  29   18   35 1
  30   19   20 ar
  31   19   22 1
  32   20   21 ar
  33   20   36 1
  34   21   37 1
  35   22   23 1
  36   22   26 1
  37   23   24 2
  38   23   38 1
  39   24   25 1
  40   24   39 1
  41   25   26 2
  42   25   40 1
  43   26   41 1

#	End of record

