#	Name: ASD02408437
#	Creating user name:	WinNT
#	Creation time:	15. 06. 2019 20:21

#	Modifying user name:	WinNT
#	Modification time:	15. 06. 2019 20:21

#	Program:	/corina/corina34_cracker 3.40 0067  02.08.2006

@<TRIPOS>MOLECULE
ASD02408437
  43   46    0    0    0
SMALL
NO_CHARGES


@<TRIPOS>ATOM
   1 N1            -0.0633     1.3240    -0.4568 N.am    
   2 C2            -0.0485    -0.0327    -0.4762 C.2     
   3 N3             1.0495    -0.7305    -0.4654 N.2     
   4 C4             2.2583    -0.1490    -0.4338 C.2     
   5 C5             2.3437     1.2523    -0.4118 C.2     
   6 C6             1.0980     2.0188    -0.4245 C.2     
   7 N7             3.5366    -0.6160    -0.4166 N.pl3   
   8 N8             4.4049     0.4825    -0.3842 N.2     
   9 C9             3.7104     1.5873    -0.3812 C.2     
  10 C10           -1.3650    -0.7652    -0.5116 C.3     
  11 C11           -1.1095    -2.2665    -0.6595 C.3     
  12 C12            3.9183    -1.9639    -0.4286 C.ar    
  13 C13            3.4404    -2.8317     0.5458 C.ar    
  14 C14            3.8193    -4.1610     0.5306 C.ar    
  15 C15            4.6725    -4.6267    -0.4525 C.ar    
  16 C16            5.1499    -3.7649    -1.4232 C.ar    
  17 C17            4.7705    -2.4370    -1.4176 C.ar    
  18 O18            1.1053     3.2370    -0.4070 O.2     
  19 C19           -2.4352    -3.0401    -0.5502 C.3     
  20 C20           -2.6216    -3.7862    -1.8874 C.3     
  21 C21           -1.1851    -3.9206    -2.4509 C.3     
  22 C22           -0.5367    -2.5696    -2.0595 C.3     
  23 C23            5.2915    -1.4992    -2.4760 C.3     
  24 Cl24           2.3695    -2.2471     1.7807 Cl      
  25 H25           -0.9095     1.7980    -0.4701 H       
  26 H26            4.1154     2.5883    -0.3597 H       
  27 H27           -1.9095    -0.5789     0.4141 H       
  28 H28           -1.9548    -0.4119    -1.3574 H       
  29 H29           -0.4154    -2.6045     0.1099 H       
  30 H30            3.4487    -4.8363     1.2876 H       
  31 H31            4.9671    -5.6657    -0.4624 H       
  32 H32            5.8165    -4.1320    -2.1895 H       
  33 H33           -2.3841    -3.7541     0.2718 H       
  34 H34           -3.2605    -2.3460    -0.3917 H       
  35 H35           -3.0584    -4.7703    -1.7175 H       
  36 H36           -3.2446    -3.2034    -2.5659 H       
  37 H37           -0.6612    -4.7517    -1.9789 H       
  38 H38           -1.2047    -4.0402    -3.5342 H       
  39 H39           -0.8229    -1.7902    -2.7657 H       
  40 H40            0.5482    -2.6658    -2.0151 H       
  41 H41            4.5626    -1.4208    -3.2826 H       
  42 H42            5.4574    -0.5145    -2.0391 H       
  43 H43            6.2314    -1.8842    -2.8717 H       
@<TRIPOS>BOND
   1    1    2 1
   2    1    6 am
   3    1   25 1
   4    2    3 2
   5    2   10 1
   6    3    4 1
   7    4    5 2
   8    4    7 1
   9    5    6 1
  10    5    9 1
  11    6   18 2
  12    7    8 1
  13    7   12 1
  14    8    9 2
  15    9   26 1
  16   10   11 1
  17   10   27 1
  18   10   28 1
  19   11   19 1
  20   11   22 1
  21   11   29 1
  22   12   13 ar
  23   12   17 ar
  24   13   14 ar
  25   13   24 1
  26   14   15 ar
  27   14   30 1
  28   15   16 ar
  29   15   31 1
  30   16   17 ar
  31   16   32 1
  32   17   23 1
  33   19   20 1
  34   19   33 1
  35   19   34 1
  36   20   21 1
  37   20   35 1
  38   20   36 1
  39   21   22 1
  40   21   37 1
  41   21   38 1
  42   22   39 1
  43   22   40 1
  44   23   41 1
  45   23   42 1
  46   23   43 1

#	End of record

