#	Name: ASD00431136
#	Creating user name:	WinNT
#	Creation time:	15. 06. 2019 18:35

#	Modifying user name:	WinNT
#	Modification time:	15. 06. 2019 18:35

#	Program:	/corina/corina34_cracker 3.40 0067  02.08.2006

@<TRIPOS>MOLECULE
ASD00431136
  48   50    0    0    0
SMALL
NO_CHARGES


@<TRIPOS>ATOM
   1 C1             0.1421     1.5765     0.1634 C.2     
   2 C2             0.2672     0.0795     0.2832 C.3     
   3 O3             1.1355     2.2592     0.0287 O.2     
   4 N4            -1.0740     2.1563     0.2004 N.am    
   5 C5            -1.1956     3.6116     0.0840 C.3     
   6 C6            -1.2149     4.0051    -1.3944 C.3     
   7 O7            -3.6635     3.4448     0.6857 O.3     
   8 N8            -4.5104     4.0394     1.3110 N.2     
   9 C9            -4.0211     5.1238     1.8665 C.2     
  10 C10           -2.6447     5.1681     1.4991 C.2     
  11 C11           -2.4746     4.0630     0.7407 C.2     
  12 S12           -4.0675     7.5496     3.4353 S.3     
  13 C13           -5.5874     7.9329     4.1174 C.2     
  14 N14           -6.4658     7.0343     3.7938 N.2     
  15 C15           -6.0549     6.0395     3.0383 C.2     
  16 C16           -4.7494     6.0999     2.7021 C.2     
  17 O17           -5.8387     9.0189     4.8864 O.3     
  18 C18           -7.1297     9.2733     5.2295 C.ar    
  19 C19           -7.4198    10.2714     6.1503 C.ar    
  20 C20           -8.7319    10.5297     6.4982 C.ar    
  21 C21           -9.7588     9.7918     5.9274 C.ar    
  22 C22           -9.4686     8.7948     5.0082 C.ar    
  23 C23           -8.1572     8.5399     4.6557 C.ar    
  24 O24          -11.0499    10.0459     6.2697 O.3     
  25 C25          -11.2689    10.9893     7.3205 C.3     
  26 C26          -11.4756    12.3817     6.7209 C.3     
  27 C27          -12.5123    10.5870     8.1161 C.3     
  28 Cl28          -6.1344    11.1940     6.8646 Cl      
  29 H29            0.3751    -0.1933     1.3330 H       
  30 H30           -0.6260    -0.3935    -0.1251 H       
  31 H31            1.1427    -0.2575    -0.2717 H       
  32 H32           -1.8688     1.6100     0.3041 H       
  33 H33           -0.3471     4.0875     0.5756 H       
  34 H34           -1.3053     5.0879    -1.4811 H       
  35 H35           -0.2897     3.6786    -1.8694 H       
  36 H36           -2.0633     3.5291    -1.8861 H       
  37 H37           -1.9087     5.9124     1.7650 H       
  38 H38           -6.7069     5.2417     2.7147 H       
  39 H39           -8.9580    11.3056     7.2145 H       
  40 H40          -10.2682     8.2201     4.5647 H       
  41 H41           -7.9320     7.7666     3.9362 H       
  42 H42          -10.4029    11.0036     7.9823 H       
  43 H43          -11.6426    13.1013     7.5224 H       
  44 H44          -10.5898    12.6683     6.1540 H       
  45 H45          -12.3416    12.3674     6.0591 H       
  46 H46          -12.3651     9.5950     8.5433 H       
  47 H47          -12.6793    11.3066     8.9176 H       
  48 H48          -13.3783    10.5727     7.4543 H       
@<TRIPOS>BOND
   1    1    2 1
   2    1    3 2
   3    1    4 am
   4    2   29 1
   5    2   30 1
   6    2   31 1
   7    4    5 1
   8    4   32 1
   9    5    6 1
  10    5   11 1
  11    5   33 1
  12    6   34 1
  13    6   35 1
  14    6   36 1
  15    7    8 1
  16    7   11 1
  17    8    9 2
  18    9   10 1
  19    9   16 1
  20   10   11 2
  21   10   37 1
  22   12   13 1
  23   12   16 1
  24   13   14 2
  25   13   17 1
  26   14   15 1
  27   15   16 2
  28   15   38 1
  29   17   18 1
  30   18   19 ar
  31   18   23 ar
  32   19   20 ar
  33   19   28 1
  34   20   21 ar
  35   20   39 1
  36   21   22 ar
  37   21   24 1
  38   22   23 ar
  39   22   40 1
  40   23   41 1
  41   24   25 1
  42   25   26 1
  43   25   27 1
  44   25   42 1
  45   26   43 1
  46   26   44 1
  47   26   45 1
  48   27   46 1
  49   27   47 1
  50   27   48 1

#	End of record

