#	Name: ASD00311173
#	Creating user name:	WinNT
#	Creation time:	15. 06. 2019 18:34

#	Modifying user name:	WinNT
#	Modification time:	15. 06. 2019 18:34

#	Program:	/corina/corina34_cracker 3.40 0067  02.08.2006

@<TRIPOS>MOLECULE
ASD00311173
  42   45    0    0    0
SMALL
NO_CHARGES


@<TRIPOS>ATOM
   1 C1            -0.0167     1.3775     0.0096 C.2     
   2 C2             0.0021    -0.0041     0.0020 C.2     
   3 C3             1.2586    -0.6767    -0.0140 C.2     
   4 C4             2.4315     0.0671    -0.0217 C.2     
   5 C5             2.3575     1.4749    -0.0134 C.2     
   6 N6             1.1650     2.0901     0.0022 N.am    
   7 C7            -1.3435    -0.5754     0.0123 C.2     
   8 C8            -2.3233     0.3267     0.0268 C.2     
   9 S9            -1.6791     1.9565     0.0358 S.3     
  10 O10            3.3824     2.1371    -0.0200 O.2     
  11 C11            3.7475    -0.6123    -0.0379 C.ar    
  12 C12            4.5929    -0.4750    -1.1387 C.ar    
  13 C13            5.8177    -1.1104    -1.1479 C.ar    
  14 C14            6.2077    -1.8825    -0.0682 C.ar    
  15 C15            5.3736    -2.0225     1.0266 C.ar    
  16 C16            4.1489    -1.3873     1.0501 C.ar    
  17 O17            1.3083    -2.0292    -0.0213 O.3     
  18 C18           -1.5961    -2.0354     0.0070 C.ar    
  19 C19           -2.2068    -2.6442     1.1029 C.ar    
  20 C20           -2.4394    -4.0043     1.0921 C.ar    
  21 C21           -2.0680    -4.7637    -0.0030 C.ar    
  22 C22           -1.4618    -4.1654    -1.0931 C.ar    
  23 C23           -1.2292    -2.8053    -1.0964 C.ar    
  24 C24           -2.3244    -6.2487    -0.0082 C.3     
  25 C25           -3.7056    -6.5257    -0.6053 C.3     
  26 Cl26          -4.0154    -0.0609     0.0415 Cl      
  27 H27            1.1328     3.0595     0.0077 H       
  28 H28            4.2894     0.1272    -1.9823 H       
  29 H29            6.4730    -1.0052    -1.9999 H       
  30 H30            7.1671    -2.3782    -0.0802 H       
  31 H31            5.6836    -2.6265     1.8665 H       
  32 H32            3.5004    -1.4937     1.9072 H       
  33 H33            2.2055    -2.3898    -0.0322 H       
  34 H34           -2.4968    -2.0524     1.9585 H       
  35 H35           -2.9120    -4.4769     1.9405 H       
  36 H36           -1.1737    -4.7635    -1.9450 H       
  37 H37           -0.7599    -2.3386    -1.9499 H       
  38 H38           -1.5627    -6.7468    -0.6079 H       
  39 H39           -2.2876    -6.6273     1.0133 H       
  40 H40           -3.8910    -7.5998    -0.6091 H       
  41 H41           -4.4673    -6.0275    -0.0055 H       
  42 H42           -3.7424    -6.1470    -1.6268 H       
@<TRIPOS>BOND
   1    1    2 2
   2    1    6 1
   3    1    9 1
   4    2    3 1
   5    2    7 1
   6    3    4 2
   7    3   17 1
   8    4    5 1
   9    4   11 1
  10    5    6 am
  11    5   10 2
  12    6   27 1
  13    7    8 2
  14    7   18 1
  15    8    9 1
  16    8   26 1
  17   11   12 ar
  18   11   16 ar
  19   12   13 ar
  20   12   28 1
  21   13   14 ar
  22   13   29 1
  23   14   15 ar
  24   14   30 1
  25   15   16 ar
  26   15   31 1
  27   16   32 1
  28   17   33 1
  29   18   19 ar
  30   18   23 ar
  31   19   20 ar
  32   19   34 1
  33   20   21 ar
  34   20   35 1
  35   21   22 ar
  36   21   24 1
  37   22   23 ar
  38   22   36 1
  39   23   37 1
  40   24   25 1
  41   24   38 1
  42   24   39 1
  43   25   40 1
  44   25   41 1
  45   25   42 1

#	End of record

