#	Name: ASD03431007
#	Creating user name:	WinNT
#	Creation time:	15. 06. 2019 20:41

#	Modifying user name:	WinNT
#	Modification time:	15. 06. 2019 20:41

#	Program:	/corina/corina34_cracker 3.40 0067  02.08.2006

@<TRIPOS>MOLECULE
ASD03431007
  48   53    0    0    0
SMALL
NO_CHARGES


@<TRIPOS>ATOM
   1 O1            -0.0161     1.3379     0.0094 O.3     
   2 C2             0.0021    -0.0041     0.0020 C.2     
   3 N3             1.2786    -0.4359    -0.0104 N.am    
   4 C4             2.1029     0.6897    -0.0086 C.ar    
   5 C5             1.2586     1.8003    -0.0003 C.ar    
   6 C6             3.4763     0.8597    -0.0093 C.ar    
   7 C7             4.0234     2.1382    -0.0073 C.ar    
   8 C8             3.1715     3.2408    -0.0168 C.ar    
   9 C9             1.8034     3.0742    -0.0068 C.ar    
  10 O10            5.3307     2.5249     0.0173 O.3     
  11 C11            4.0508     4.4615    -0.0541 C.3     
  12 C12            5.4293     3.8937    -0.4198 C.3     
  13 N13            3.3752     6.6194    -0.3928 N.am    
  14 C14            3.5808     5.4692    -1.0646 C.2     
  15 C15            4.0742     5.1931     1.2548 C.ar    
  16 C16            4.4044     4.8312     2.5419 C.ar    
  17 C17            4.3232     5.7585     3.5653 C.ar    
  18 C18            3.9100     7.0499     3.2931 C.ar    
  19 C19            3.5770     7.4174     2.0062 C.ar    
  20 C20            3.6553     6.4903     0.9698 C.ar    
  21 O21           -0.9811    -0.7196     0.0065 O.2     
  22 O22            3.4185     5.2840    -2.2523 O.2     
  23 C23            2.9124     7.8605    -1.0185 C.3     
  24 O24            0.5896     7.4284    -1.9458 O.3     
  25 C25            1.4063     7.9052    -0.9922 C.2     
  26 C26            0.6519     8.4289    -0.0094 C.2     
  27 C27           -0.6979     8.2576    -0.3935 C.2     
  28 C28           -0.6876     7.6393    -1.5881 C.2     
  29 C29           -1.9031     7.2495    -2.3892 C.3     
  30 F30           -2.2551     8.3000    -3.2434 F       
  31 F31           -1.6162     6.1087    -3.1465 F       
  32 F32           -2.9662     6.9780    -1.5213 F       
  33 C33            1.7203    -1.8327    -0.0229 C.3     
  34 H34            4.1254    -0.0035    -0.0109 H       
  35 H35            1.1551     3.9379    -0.0040 H       
  36 H36            6.2187     4.4164     0.1203 H       
  37 H37            5.5958     3.9452    -1.4958 H       
  38 H38            4.7267     3.8222     2.7527 H       
  39 H39            4.5815     5.4744     4.5747 H       
  40 H40            3.8475     7.7739     4.0920 H       
  41 H41            3.2544     8.4276     1.8014 H       
  42 H42            3.3109     8.7143    -0.4704 H       
  43 H43            3.2590     7.8979    -2.0513 H       
  44 H44            1.0088     8.8911     0.8992 H       
  45 H45           -1.5699     8.5639     0.1652 H       
  46 H46            0.8500    -2.4890    -0.0212 H       
  47 H47            2.3134    -2.0182    -0.9184 H       
  48 H48            2.3260    -2.0302     0.8615 H       
@<TRIPOS>BOND
   1    1    2 1
   2    1    5 1
   3    2    3 am
   4    2   21 2
   5    3    4 1
   6    3   33 1
   7    4    5 ar
   8    4    6 ar
   9    5    9 ar
  10    6    7 ar
  11    6   34 1
  12    7    8 ar
  13    7   10 1
  14    8    9 ar
  15    8   11 1
  16    9   35 1
  17   10   12 1
  18   11   12 1
  19   11   14 1
  20   11   15 1
  21   12   36 1
  22   12   37 1
  23   13   14 am
  24   13   20 1
  25   13   23 1
  26   14   22 2
  27   15   16 ar
  28   15   20 ar
  29   16   17 ar
  30   16   38 1
  31   17   18 ar
  32   17   39 1
  33   18   19 ar
  34   18   40 1
  35   19   20 ar
  36   19   41 1
  37   23   25 1
  38   23   42 1
  39   23   43 1
  40   24   25 1
  41   24   28 1
  42   25   26 2
  43   26   27 1
  44   26   44 1
  45   27   28 2
  46   27   45 1
  47   28   29 1
  48   29   30 1
  49   29   31 1
  50   29   32 1
  51   33   46 1
  52   33   47 1
  53   33   48 1

#	End of record

