#	Name: ASD01028259
#	Creating user name:	WinNT
#	Creation time:	15. 06. 2019 18:56

#	Modifying user name:	WinNT
#	Modification time:	15. 06. 2019 18:56

#	Program:	/corina/corina34_cracker 3.40 0067  02.08.2006

@<TRIPOS>MOLECULE
ASD01028259
  36   39    0    0    0
SMALL
NO_CHARGES


@<TRIPOS>ATOM
   1 C1            -0.0184     1.5028     0.0103 C.3     
   2 C2             0.0021    -0.0041     0.0020 C.2     
   3 N3             0.0235    -0.8151     1.0954 N.pl3   
   4 C4             0.0355    -2.1001     0.6099 C.2     
   5 N5             0.0213    -2.0106    -0.7099 N.2     
   6 N6            -0.0032    -0.7719    -1.0567 N.2     
   7 C7             0.0340    -0.5811     2.4367 C.2     
   8 C8             0.0567    -1.6196     3.3168 C.2     
   9 C9             0.0694    -2.9528     2.8413 C.2     
  10 C10            0.0586    -3.1889     1.5045 C.2     
  11 C11            0.0685    -1.3536     4.7757 C.ar    
  12 N12            0.0570    -0.1028     5.2258 N.ar    
  13 C13            0.0676     0.1291     6.5259 C.ar    
  14 C14            0.0912    -0.9268     7.4197 C.ar    
  15 N15            0.1031    -2.1732     6.9778 N.ar    
  16 C16            0.0859    -2.4155     5.6808 C.ar    
  17 C17            1.3954     2.0244    -0.0004 C.ar    
  18 C18            2.0315     2.2697    -1.2033 C.ar    
  19 C19            3.3275     2.7479    -1.2158 C.ar    
  20 C20            3.9908     2.9819    -0.0200 C.ar    
  21 C21            3.3504     2.7350     1.1856 C.ar    
  22 C22            2.0524     2.2622     1.1928 C.ar    
  23 O23            5.2659     3.4519    -0.0297 O.3     
  24 H24           -0.5455     1.8639    -0.8728 H       
  25 H25           -0.5286     1.8543     0.9071 H       
  26 H26            0.0247     0.4343     2.8046 H       
  27 H27            0.0881    -3.7776     3.5383 H       
  28 H28            0.0679    -4.2019     1.1300 H       
  29 H29            0.0583     1.1451     6.8922 H       
  30 H30            0.1002    -0.7325     8.4821 H       
  31 H31            0.0957    -3.4336     5.3204 H       
  32 H32            1.5148     2.0870    -2.1339 H       
  33 H33            3.8240     2.9390    -2.1557 H       
  34 H34            3.8647     2.9164     2.1178 H       
  35 H35            1.5534     2.0698     2.1311 H       
  36 H36            5.3295     4.4168    -0.0253 H       
@<TRIPOS>BOND
   1    1    2 1
   2    1   17 1
   3    1   24 1
   4    1   25 1
   5    2    3 1
   6    2    6 2
   7    3    4 1
   8    3    7 1
   9    4    5 2
  10    4   10 1
  11    5    6 1
  12    7    8 2
  13    7   26 1
  14    8    9 1
  15    8   11 1
  16    9   10 2
  17    9   27 1
  18   10   28 1
  19   11   12 ar
  20   11   16 ar
  21   12   13 ar
  22   13   14 ar
  23   13   29 1
  24   14   15 ar
  25   14   30 1
  26   15   16 ar
  27   16   31 1
  28   17   18 ar
  29   17   22 ar
  30   18   19 ar
  31   18   32 1
  32   19   20 ar
  33   19   33 1
  34   20   21 ar
  35   20   23 1
  36   21   22 ar
  37   21   34 1
  38   22   35 1
  39   23   36 1

#	End of record

