#	Name: ASD00844770
#	Creating user name:	WinNT
#	Creation time:	15. 06. 2019 18:50

#	Modifying user name:	WinNT
#	Modification time:	15. 06. 2019 18:50

#	Program:	/corina/corina34_cracker 3.40 0067  02.08.2006

@<TRIPOS>MOLECULE
ASD00844770
  97  102    0    0    0
SMALL
NO_CHARGES


@<TRIPOS>ATOM
   1 F1             5.6847    -2.4018    -1.8799 F       
   2 C2             0.8333     1.1971    -0.3563 C.ar    
   3 C3             1.0316    -0.1466    -0.6376 C.ar    
   4 C4             0.8496    -1.0956     0.3582 C.ar    
   5 C5             0.4717    -0.7003     1.6265 C.ar    
   6 C6             0.2742     0.6399     1.9043 C.ar    
   7 C7             0.4553     1.5874     0.9140 C.ar    
   8 C8             1.0637    -2.5564     0.0559 C.3     
   9 C9             0.6786    -3.4065     1.2479 C.2     
  10 C10            0.2610    -2.9700    -1.1791 C.3     
  11 C11           -1.1888    -2.6103    -0.9796 C.2     
  12 N12           -2.1064    -2.9769    -1.8962 N.am    
  13 O13           -1.5299    -1.9910     0.0058 O.2     
  14 C14           -3.5065    -2.5419    -1.7786 C.3     
  15 C15           -3.9372    -1.9218    -3.1121 C.3     
  16 N16           -3.6716    -2.8733    -4.1994 N.3     
  17 C17           -2.2347    -3.1520    -4.3244 C.3     
  18 C18           -1.7329    -3.8175    -3.0439 C.3     
  19 C19           -4.2264    -2.3887    -5.4703 C.3     
  20 C20           -3.8244    -3.3406    -6.6002 C.3     
  21 C21           -4.4555    -2.8644    -7.9106 C.3     
  22 N22           -5.9167    -2.8337    -7.7689 N.3     
  23 C23           -6.3289    -1.8906    -6.7214 C.3     
  24 C24           -5.7538    -2.3377    -5.3756 C.3     
  25 C25           -6.5632    -2.5144    -9.0488 C.3     
  26 O26           -0.4210    -3.4812     1.7543 O.2     
  27 N27            1.7836    -4.0635     1.6390 N.am    
  28 C28            2.5337    -2.8460    -0.1431 C.ar    
  29 C29            2.8898    -3.7570     0.8436 C.ar    
  30 C30            3.4619    -2.3920    -1.0527 C.ar    
  31 C31            4.7702    -2.8449    -0.9896 C.ar    
  32 C32            5.1372    -3.7535    -0.0099 C.ar    
  33 C33            4.2061    -4.2088     0.9024 C.ar    
  34 Cl34           6.7754    -4.3221     0.0709 Cl      
  35 C35            1.4529    -6.7173     2.2886 C.ar    
  36 C36            0.1985    -6.9778     1.7569 C.ar    
  37 C37            2.4093    -7.7140     2.3193 C.ar    
  38 C38            2.1172    -8.9697     1.8204 C.ar    
  39 C39            0.8673    -9.2318     1.2898 C.ar    
  40 C40           -0.0924    -8.2390     1.2571 C.ar    
  41 H41            0.6415   -10.2136     0.9006 H       
  42 O42           -0.7442    -5.9993     1.7259 O.3     
  43 C43           -2.0134    -6.3388     1.1640 C.3     
  44 C44           -2.9365    -5.1197     1.2156 C.3     
  45 C45           -8.0819    -2.6137    -8.8918 C.3     
  46 C46           -6.1859    -1.0928    -9.4701 C.3     
  47 S47            1.8287    -5.1149     2.9176 S.o2    
  48 O48            3.1810    -5.1611     3.3516 O.2     
  49 O49            0.7505    -4.7557     3.7706 O.2     
  50 O50            1.4030    -0.5330    -1.8864 O.3     
  51 C51            1.4882     0.4877    -2.8829 C.3     
  52 C52            2.0076    -0.1167    -4.1890 C.3     
  53 F53            3.2344    -0.7474    -3.9556 F       
  54 F54            1.0856    -1.0533    -4.6685 F       
  55 H55            0.9786     1.9381    -1.1285 H       
  56 H56            0.3300    -1.4386     2.4019 H       
  57 H57           -0.0219     0.9469     2.8964 H       
  58 H58            0.3005     2.6335     1.1334 H       
  59 H59            0.6474    -2.4488    -2.0550 H       
  60 H60            0.3512    -4.0461    -1.3275 H       
  61 H61           -4.1389    -3.4004    -1.5528 H       
  62 H62           -3.5940    -1.8001    -0.9847 H       
  63 H63           -5.0027    -1.6942    -3.0801 H       
  64 H64           -3.3740    -1.0048    -3.2856 H       
  65 H65           -2.0655    -3.8167    -5.1716 H       
  66 H66           -1.6953    -2.2179    -4.4811 H       
  67 H67           -0.6488    -3.9217    -3.0861 H       
  68 H68           -2.1941    -4.7992    -2.9365 H       
  69 H69           -3.8400    -1.3912    -5.6796 H       
  70 H70           -2.7391    -3.3484    -6.7007 H       
  71 H71           -4.1765    -4.3465    -6.3712 H       
  72 H72           -4.0923    -1.8641    -8.1461 H       
  73 H73           -4.1829    -3.5482    -8.7145 H       
  74 H74           -5.9570    -0.8948    -6.9625 H       
  75 H75           -7.4170    -1.8671    -6.6616 H       
  76 H76           -6.1362    -3.3278    -5.1273 H       
  77 H77           -6.0469    -1.6290    -4.6011 H       
  78 H78           -6.2297    -3.2196    -9.8101 H       
  79 H79            3.1709    -1.6841    -1.8146 H       
  80 H80            4.4991    -4.9170     1.6634 H       
  81 H81            3.3862    -7.5117     2.7332 H       
  82 H82            2.8664    -9.7471     1.8447 H       
  83 H83           -1.0686    -8.4445     0.8433 H       
  84 H84           -1.8805    -6.6504     0.1280 H       
  85 H85           -2.4569    -7.1547     1.7348 H       
  86 H86           -3.0694    -4.8082     2.2516 H       
  87 H87           -2.4931    -4.3038     0.6448 H       
  88 H88           -3.9047    -5.3787     0.7870 H       
  89 H89           -8.5616    -2.3768    -9.8415 H       
  90 H90           -8.3507    -3.6265    -8.5917 H       
  91 H91           -8.4154    -1.9086    -8.1305 H       
  92 H92           -5.1039    -1.0220    -9.5819 H       
  93 H93           -6.6656    -0.8559   -10.4198 H       
  94 H94           -6.5194    -0.3876    -8.7087 H       
  95 H95            0.5001     0.9169    -3.0488 H       
  96 H96            2.1713     1.2676    -2.5466 H       
  97 H97            2.1402     0.6737    -4.9277 H       
@<TRIPOS>BOND
   1    1   31 1
   2    2    3 ar
   3    2    7 ar
   4    2   55 1
   5    3    4 ar
   6    3   50 1
   7    4    5 ar
   8    4    8 1
   9    5    6 ar
  10    5   56 1
  11    6    7 ar
  12    6   57 1
  13    7   58 1
  14    8    9 1
  15    8   10 1
  16    8   28 1
  17    9   26 2
  18    9   27 am
  19   10   11 1
  20   10   59 1
  21   10   60 1
  22   11   12 am
  23   11   13 2
  24   12   14 1
  25   12   18 1
  26   14   15 1
  27   14   61 1
  28   14   62 1
  29   15   16 1
  30   15   63 1
  31   15   64 1
  32   16   17 1
  33   16   19 1
  34   17   18 1
  35   17   65 1
  36   17   66 1
  37   18   67 1
  38   18   68 1
  39   19   20 1
  40   19   24 1
  41   19   69 1
  42   20   21 1
  43   20   70 1
  44   20   71 1
  45   21   22 1
  46   21   72 1
  47   21   73 1
  48   22   23 1
  49   22   25 1
  50   23   24 1
  51   23   74 1
  52   23   75 1
  53   24   76 1
  54   24   77 1
  55   25   45 1
  56   25   46 1
  57   25   78 1
  58   27   47 am
  59   27   29 1
  60   28   29 ar
  61   28   30 ar
  62   29   33 ar
  63   30   31 ar
  64   30   79 1
  65   31   32 ar
  66   32   33 ar
  67   32   34 1
  68   33   80 1
  69   35   36 ar
  70   35   37 ar
  71   35   47 1
  72   36   42 1
  73   36   40 ar
  74   37   38 ar
  75   37   81 1
  76   38   39 ar
  77   38   82 1
  78   39   40 ar
  79   39   41 1
  80   40   83 1
  81   42   43 1
  82   43   44 1
  83   43   84 1
  84   43   85 1
  85   44   86 1
  86   44   87 1
  87   44   88 1
  88   45   89 1
  89   45   90 1
  90   45   91 1
  91   46   92 1
  92   46   93 1
  93   46   94 1
  94   47   48 2
  95   47   49 2
  96   50   51 1
  97   51   52 1
  98   51   95 1
  99   51   96 1
 100   52   53 1
 101   52   54 1
 102   52   97 1

#	End of record

