#	Name: ASD01915572
#	Creating user name:	WinNT
#	Creation time:	15. 06. 2019 20:05

#	Modifying user name:	WinNT
#	Modification time:	15. 06. 2019 20:05

#	Program:	/corina/corina34_cracker 3.40 0067  02.08.2006

@<TRIPOS>MOLECULE
ASD01915572
  44   47    0    0    0
SMALL
NO_CHARGES


@<TRIPOS>ATOM
   1 C1            -0.0043     1.4634     0.2185 C.2     
   2 N2             0.0618     0.1104    -0.0288 N.pl3   
   3 C3            -1.1506    -0.6737    -0.2934 C.3     
   4 C4            -2.3297    -0.0464     0.4483 C.3     
   5 N5            -2.4043     1.3988     0.2637 N.am    
   6 C6            -1.2918     2.1722     0.2687 C.2     
   7 C7             1.2783     1.9007     0.3954 C.2     
   8 C8             2.0746     0.7563     0.2533 C.2     
   9 N9             1.2816    -0.2609     0.0092 N.2     
  10 C10            3.5768     0.7030     0.3610 C.3     
  11 O11            4.0816     2.0118     0.6340 O.3     
  12 C12            5.4285     2.1393     0.7618 C.ar    
  13 O13           -1.3545     3.3862     0.3120 O.2     
  14 C14            5.9868     3.3813     1.0270 C.ar    
  15 C15            6.2471     1.0267     0.6329 C.ar    
  16 C16            7.6160     1.1590     0.7633 C.ar    
  17 C17            8.1704     2.3989     1.0220 C.ar    
  18 C18            7.3563     3.5083     1.1565 C.ar    
  19 C19           -3.6491     1.9979     0.0772 C.ar    
  20 C20           -4.8055     1.2637     0.3043 C.ar    
  21 C21           -6.0388     1.8675     0.1164 C.ar    
  22 C22           -6.0725     3.1916    -0.2943 C.ar    
  23 C23           -4.8761     3.8679    -0.5034 C.ar    
  24 N24           -3.7159     3.2631    -0.3095 N.ar    
  25 F25           -7.2541     3.8169    -0.4893 F       
  26 O26           -4.8988     5.1640    -0.9054 O.3     
  27 C27           -3.6366     5.8041    -1.1032 C.3     
  28 H28           -1.3548    -0.6777    -1.3641 H       
  29 H29           -1.0051    -1.6967     0.0536 H       
  30 H30           -3.2538    -0.4960     0.0850 H       
  31 H31           -2.2307    -0.2608     1.5124 H       
  32 H32            1.6068     2.9089     0.6003 H       
  33 H33            3.8594     0.0287     1.1694 H       
  34 H34            3.9957     0.3405    -0.5777 H       
  35 H35            5.3513     4.2483     1.1318 H       
  36 H36            5.8145     0.0579     0.4313 H       
  37 H37            8.2537     0.2930     0.6634 H       
  38 H38            9.2408     2.5003     1.1235 H       
  39 H39            7.7917     4.4759     1.3582 H       
  40 H40           -4.7447     0.2337     0.6234 H       
  41 H41           -6.9535     1.3188     0.2857 H       
  42 H42           -3.0752     5.7970    -0.1689 H       
  43 H43           -3.0743     5.2698    -1.8690 H       
  44 H44           -3.7975     6.8338    -1.4227 H       
@<TRIPOS>BOND
   1    1    2 1
   2    1    7 2
   3    1    6 1
   4    2    3 1
   5    2    9 1
   6    3    4 1
   7    3   28 1
   8    3   29 1
   9    4    5 1
  10    4   30 1
  11    4   31 1
  12    5    6 am
  13    5   19 1
  14    6   13 2
  15    7    8 1
  16    7   32 1
  17    8    9 2
  18    8   10 1
  19   10   11 1
  20   10   33 1
  21   10   34 1
  22   11   12 1
  23   12   14 ar
  24   12   15 ar
  25   14   18 ar
  26   14   35 1
  27   15   16 ar
  28   15   36 1
  29   16   17 ar
  30   16   37 1
  31   17   18 ar
  32   17   38 1
  33   18   39 1
  34   19   20 ar
  35   19   24 ar
  36   20   21 ar
  37   20   40 1
  38   21   22 ar
  39   21   41 1
  40   22   23 ar
  41   22   25 1
  42   23   24 ar
  43   23   26 1
  44   26   27 1
  45   27   42 1
  46   27   43 1
  47   27   44 1

#	End of record

