#	Name: ASD09740015
#	Creating user name:	WinNT
#	Creation time:	15. 06. 2019 21:22

#	Modifying user name:	WinNT
#	Modification time:	15. 06. 2019 21:22

#	Program:	/corina/corina34_cracker 3.40 0067  02.08.2006

@<TRIPOS>MOLECULE
ASD09740015
  40   42    0    0    0
SMALL
NO_CHARGES


@<TRIPOS>ATOM
   1 N1            -0.0144     1.2085     0.0087 N.2     
   2 O2             0.0021    -0.0041     0.0020 O.3     
   3 C3             1.2057     1.6798    -0.0004 C.2     
   4 N4             2.0455     0.6238    -0.0141 N.2     
   5 C5             1.2699    -0.4438    -0.0124 C.2     
   6 C6             1.7129    -1.8545    -0.0243 C.ar    
   7 C7             0.7709    -2.8835    -0.0208 C.ar    
   8 C8             3.0739    -2.1600    -0.0447 C.ar    
   9 C9             3.4846    -3.4828    -0.0562 C.ar    
  10 C10            2.5447    -4.5031    -0.0474 C.ar    
  11 C11            1.1901    -4.2036    -0.0324 C.ar    
  12 C12            1.5950     3.1130     0.0035 C.ar    
  13 C13            0.6264     4.1194     0.0187 C.ar    
  14 C14            1.0316     5.4391     0.0224 C.ar    
  15 N15            2.3123     5.7538     0.0118 N.ar    
  16 C16            3.2578     4.8344    -0.0026 C.ar    
  17 C17            2.9398     3.4911    -0.0019 C.ar    
  18 O18            0.2733    -5.2068    -0.0233 O.3     
  19 C19           -0.3956    -7.5291    -0.0182 C.3     
  20 C20            0.7755    -6.5446    -0.0300 C.3     
  21 O21            4.8103    -3.7816    -0.0766 O.3     
  22 C22            6.6868    -5.3041    -0.1101 C.3     
  23 C23            5.1632    -5.1663    -0.0875 C.3     
  24 H24           -0.2837    -2.6511    -0.0087 H       
  25 H25            3.8063    -1.3663    -0.0520 H       
  26 H26            2.8682    -5.5335    -0.0567 H       
  27 H27           -0.4241     3.8688     0.0271 H       
  28 H28            0.2901     6.2241     0.0337 H       
  29 H29            4.2947     5.1365    -0.0113 H       
  30 H30            3.7191     2.7435    -0.0138 H       
  31 H31           -1.0140    -7.3687    -0.9013 H       
  32 H32           -0.0126    -8.5495    -0.0233 H       
  33 H33           -0.9947    -7.3703     0.8785 H       
  34 H34            1.3746    -6.7034    -0.9267 H       
  35 H35            1.3939    -6.7050     0.8531 H       
  36 H36            7.0821    -4.8214    -1.0039 H       
  37 H37            7.1078    -4.8289     0.7759 H       
  38 H38            6.9559    -6.3604    -0.1184 H       
  39 H39            4.7679    -5.6490     0.8062 H       
  40 H40            4.7422    -5.6415    -0.9735 H       
@<TRIPOS>BOND
   1    1    2 1
   2    1    3 2
   3    2    5 1
   4    3    4 1
   5    3   12 1
   6    4    5 2
   7    5    6 1
   8    6    7 ar
   9    6    8 ar
  10    7   11 ar
  11    7   24 1
  12    8    9 ar
  13    8   25 1
  14    9   10 ar
  15    9   21 1
  16   10   11 ar
  17   10   26 1
  18   11   18 1
  19   12   13 ar
  20   12   17 ar
  21   13   14 ar
  22   13   27 1
  23   14   15 ar
  24   14   28 1
  25   15   16 ar
  26   16   17 ar
  27   16   29 1
  28   17   30 1
  29   18   20 1
  30   19   20 1
  31   19   31 1
  32   19   32 1
  33   19   33 1
  34   20   34 1
  35   20   35 1
  36   21   23 1
  37   22   23 1
  38   22   36 1
  39   22   37 1
  40   22   38 1
  41   23   39 1
  42   23   40 1

#	End of record

