#	Name: ASD01900154
#	Creating user name:	WinNT
#	Creation time:	15. 06. 2019 19:51

#	Modifying user name:	WinNT
#	Modification time:	15. 06. 2019 19:51

#	Program:	/corina/corina34_cracker 3.40 0067  02.08.2006

@<TRIPOS>MOLECULE
ASD01900154
  39   41    0    0    0
SMALL
NO_CHARGES


@<TRIPOS>ATOM
   1 C1             0.0087     1.3396    -0.0101 C.ar    
   2 C2            -1.1436     1.7067    -0.6862 C.ar    
   3 C3            -1.1611     2.8915    -1.4059 C.ar    
   4 C4            -0.0159     3.6716    -1.4228 C.ar    
   5 C5             1.1071     3.2404    -0.7198 C.ar    
   6 N6             1.0821     2.0989    -0.0430 N.ar    
   7 C7             2.3392     4.0625    -0.7282 C.2     
   8 N8             3.4287     3.6507    -0.0501 N.am    
   9 O9             2.3678     5.1084    -1.3466 O.2     
  10 C10            4.6229     4.3754    -0.1377 C.ar    
  11 C11            4.5892     5.7608    -0.2280 C.ar    
  12 C12            5.7669     6.4768    -0.3145 C.ar    
  13 C13            6.9855     5.8125    -0.3108 C.ar    
  14 C14            7.0205     4.4246    -0.2199 C.ar    
  15 C15            5.8419     3.7091    -0.1285 C.ar    
  16 N16            8.1801     6.5392    -0.3990 N.am    
  17 C17            8.1957     7.8505    -0.0877 C.2     
  18 C18            9.4240     8.6446    -0.2959 C.ar    
  19 O19            7.1990     8.3798     0.3646 O.2     
  20 C20            9.4439    10.0040     0.0257 C.ar    
  21 C21           10.5965    10.7397    -0.1715 C.ar    
  22 C22           11.7275    10.1332    -0.6861 C.ar    
  23 C23           11.7138     8.7868    -1.0071 C.ar    
  24 C24           10.5724     8.0386    -0.8098 C.ar    
  25 Cl25           8.0241    10.7666     0.6708 Cl      
  26 F26            8.2062     3.7772    -0.2166 F       
  27 H27            0.0243     0.4195     0.5552 H       
  28 H28           -2.0196     1.0758    -0.6531 H       
  29 H29           -2.0470     3.1993    -1.9415 H       
  30 H30            0.0059     4.6004    -1.9734 H       
  31 H31            3.3853     2.8521     0.4987 H       
  32 H32            3.6413     6.2784    -0.2310 H       
  33 H33            5.7397     7.5542    -0.3855 H       
  34 H34            5.8681     2.6318    -0.0575 H       
  35 H35            8.9959     6.0987    -0.6842 H       
  36 H36           10.6140    11.7907     0.0765 H       
  37 H37           12.6259    10.7130    -0.8387 H       
  38 H38           12.6008     8.3201    -1.4093 H       
  39 H39           10.5638     6.9883    -1.0609 H       
@<TRIPOS>BOND
   1    1    2 ar
   2    1    6 ar
   3    1   27 1
   4    2    3 ar
   5    2   28 1
   6    3    4 ar
   7    3   29 1
   8    4    5 ar
   9    4   30 1
  10    5    6 ar
  11    5    7 1
  12    7    8 am
  13    7    9 2
  14    8   10 1
  15    8   31 1
  16   10   11 ar
  17   10   15 ar
  18   11   12 ar
  19   11   32 1
  20   12   13 ar
  21   12   33 1
  22   13   14 ar
  23   13   16 1
  24   14   15 ar
  25   14   26 1
  26   15   34 1
  27   16   17 am
  28   16   35 1
  29   17   18 1
  30   17   19 2
  31   18   20 ar
  32   18   24 ar
  33   20   21 ar
  34   20   25 1
  35   21   22 ar
  36   21   36 1
  37   22   23 ar
  38   22   37 1
  39   23   24 ar
  40   23   38 1
  41   24   39 1

#	End of record

