#	Name: ASD01910011
#	Creating user name:	WinNT
#	Creation time:	15. 06. 2019 19:55

#	Modifying user name:	WinNT
#	Modification time:	15. 06. 2019 19:55

#	Program:	/corina/corina34_cracker 3.40 0067  02.08.2006

@<TRIPOS>MOLECULE
ASD01910011
  46   49    0    0    0
SMALL
NO_CHARGES


@<TRIPOS>ATOM
   1 N1            -0.0193     1.2962    -0.1753 N.2     
   2 C2             0.0019    -0.0203    -0.1870 C.2     
   3 C3             1.3457    -0.4387    -0.1675 C.2     
   4 C4             2.1269     0.6731    -0.1438 C.2     
   5 N5             1.3029     1.7576    -0.1482 N.pl3   
   6 C6            -1.1859    -0.9093    -0.2152 C.ar    
   7 C7            -2.4678    -0.3633    -0.2325 C.ar    
   8 C8            -3.5690    -1.1949    -0.2592 C.ar    
   9 C9            -3.4019    -2.5680    -0.2685 C.ar    
  10 C10           -2.1317    -3.1154    -0.2514 C.ar    
  11 C11           -1.0233    -2.2932    -0.2304 C.ar    
  12 C12            1.7067     3.0988    -0.1298 C.ar    
  13 C13            0.9764     4.0549    -0.8232 C.ar    
  14 C14            1.3772     5.3765    -0.8032 C.ar    
  15 C15            2.5045     5.7479    -0.0937 C.ar    
  16 C16            3.2340     4.7982     0.5978 C.ar    
  17 C17            2.8351     3.4759     0.5864 C.ar    
  18 N18            3.5201     0.6990    -0.1190 N.am    
  19 C19            4.2156    -0.4555    -0.1176 C.2     
  20 C20            5.6931    -0.4281    -0.0913 C.ar    
  21 O21            3.6276    -1.5194    -0.1379 O.2     
  22 C22            6.4141    -1.6167     0.0323 C.ar    
  23 C23            7.7933    -1.5841     0.0563 C.ar    
  24 C24            8.4615    -0.3767    -0.0419 C.ar    
  25 C25            7.7527     0.8055    -0.1647 C.ar    
  26 C26            6.3738     0.7864    -0.1957 C.ar    
  27 C27            5.6879    -2.9328     0.1399 C.3     
  28 H28            1.6939    -1.4611    -0.1703 H       
  29 H29           -2.5994     0.7086    -0.2246 H       
  30 H30           -4.5630    -0.7728    -0.2727 H       
  31 H31           -4.2663    -3.2150    -0.2887 H       
  32 H32           -2.0069    -4.1881    -0.2587 H       
  33 H33           -0.0320    -2.7216    -0.2171 H       
  34 H34            0.0960     3.7654    -1.3778 H       
  35 H35            0.8098     6.1205    -1.3425 H       
  36 H36            2.8161     6.7819    -0.0799 H       
  37 H37            4.1142     5.0913     1.1507 H       
  38 H38            3.4052     2.7346     1.1266 H       
  39 H39            3.9892     1.5478    -0.1028 H       
  40 H40            8.3524    -2.5030     0.1522 H       
  41 H41            9.5411    -0.3566    -0.0223 H       
  42 H42            8.2804     1.7447    -0.2406 H       
  43 H43            5.8218     1.7097    -0.2916 H       
  44 H44            5.4260    -3.2859    -0.8575 H       
  45 H45            6.3325    -3.6647     0.6268 H       
  46 H46            4.7801    -2.7998     0.7283 H       
@<TRIPOS>BOND
   1    1    2 2
   2    1    5 1
   3    2    3 1
   4    2    6 1
   5    3    4 2
   6    3   28 1
   7    4    5 1
   8    4   18 1
   9    5   12 1
  10    6    7 ar
  11    6   11 ar
  12    7    8 ar
  13    7   29 1
  14    8    9 ar
  15    8   30 1
  16    9   10 ar
  17    9   31 1
  18   10   11 ar
  19   10   32 1
  20   11   33 1
  21   12   13 ar
  22   12   17 ar
  23   13   14 ar
  24   13   34 1
  25   14   15 ar
  26   14   35 1
  27   15   16 ar
  28   15   36 1
  29   16   17 ar
  30   16   37 1
  31   17   38 1
  32   18   19 am
  33   18   39 1
  34   19   20 1
  35   19   21 2
  36   20   22 ar
  37   20   26 ar
  38   22   23 ar
  39   22   27 1
  40   23   24 ar
  41   23   40 1
  42   24   25 ar
  43   24   41 1
  44   25   26 ar
  45   25   42 1
  46   26   43 1
  47   27   44 1
  48   27   45 1
  49   27   46 1

#	End of record

