#	Name: ASD01940011
#	Creating user name:	WinNT
#	Creation time:	15. 06. 2019 20:11

#	Modifying user name:	WinNT
#	Modification time:	15. 06. 2019 20:11

#	Program:	/corina/corina34_cracker 3.40 0067  02.08.2006

@<TRIPOS>MOLECULE
ASD01940011
  47   49    0    0    0
SMALL
NO_CHARGES


@<TRIPOS>ATOM
   1 C1            -0.0538     1.4053     0.0362 C.ar    
   2 C2            -0.1542     0.1600    -0.5711 C.ar    
   3 C3            -1.3503    -0.5283    -0.5409 C.ar    
   4 C4            -2.4539     0.0245     0.0970 C.ar    
   5 C5            -2.3534     1.2701     0.7044 C.ar    
   6 C6            -1.1556     1.9558     0.6786 C.ar    
   7 N7             1.1594     2.1029     0.0059 N.pl3   
   8 C8             1.1614     3.4829    -0.0887 C.2     
   9 C9             2.2581     4.3296    -0.0110 C.2     
  10 C10            1.9320     5.6801    -0.1448 C.2     
  11 N11            0.6777     5.9659    -0.3204 N.2     
  12 S12           -0.1938     4.5129    -0.3352 S.3     
  13 O13            2.8820     6.6497    -0.0934 O.3     
  14 C14            3.6343     3.8492     0.1935 C.2     
  15 N15            4.1320     3.7061     1.4720 N.pl3   
  16 N16            4.3847     3.5581    -0.8362 N.2     
  17 C17            5.5017     3.2280     1.6756 C.3     
  18 C18            6.4721     4.4076     1.5875 C.3     
  19 C19            5.6147     2.5766     3.0554 C.3     
  20 O20            5.4047     3.5640     4.0669 O.3     
  21 S21           -3.9810    -0.8536     0.1352 S.3     
  22 C22           -4.9950     0.1590     1.1604 C.ar    
  23 C23           -5.8465     1.0970     0.5890 C.ar    
  24 C24           -6.6400     1.8885     1.3955 C.ar    
  25 C25           -6.5879     1.7489     2.7705 C.ar    
  26 C26           -5.7414     0.8168     3.3428 C.ar    
  27 C27           -4.9495     0.0176     2.5423 C.ar    
  28 H28            0.7036    -0.2695    -1.0672 H       
  29 H29           -1.4284    -1.4963    -1.0134 H       
  30 H30           -3.2112     1.7001     1.2000 H       
  31 H31           -1.0773     2.9238     1.1510 H       
  32 H32            1.9986     1.6187     0.0513 H       
  33 H33            3.2660     6.8701    -0.9531 H       
  34 H34            3.5750     3.9221     2.2362 H       
  35 H35            5.2916     3.2416    -0.7014 H       
  36 H36            5.7490     2.4959     0.9068 H       
  37 H37            6.2247     5.1397     2.3562 H       
  38 H38            7.4912     4.0519     1.7390 H       
  39 H39            6.3916     4.8717     0.6045 H       
  40 H40            4.8624     1.7936     3.1502 H       
  41 H41            6.6077     2.1425     3.1720 H       
  42 H42            5.4620     3.2210     4.9692 H       
  43 H43           -5.8872     1.2070    -0.4846 H       
  44 H44           -7.3019     2.6176     0.9521 H       
  45 H45           -7.2094     2.3695     3.3989 H       
  46 H46           -5.7030     0.7108     4.4169 H       
  47 H47           -4.2890    -0.7103     2.9898 H       
@<TRIPOS>BOND
   1    1    2 ar
   2    1    7 1
   3    1    6 ar
   4    2    3 ar
   5    2   28 1
   6    3    4 ar
   7    3   29 1
   8    4    5 ar
   9    4   21 1
  10    5    6 ar
  11    5   30 1
  12    6   31 1
  13    7    8 1
  14    7   32 1
  15    8    9 2
  16    8   12 1
  17    9   10 1
  18    9   14 1
  19   10   11 2
  20   10   13 1
  21   11   12 1
  22   13   33 1
  23   14   15 1
  24   14   16 2
  25   15   17 1
  26   15   34 1
  27   16   35 1
  28   17   18 1
  29   17   19 1
  30   17   36 1
  31   18   37 1
  32   18   38 1
  33   18   39 1
  34   19   20 1
  35   19   40 1
  36   19   41 1
  37   20   42 1
  38   21   22 1
  39   22   23 ar
  40   22   27 ar
  41   23   24 ar
  42   23   43 1
  43   24   25 ar
  44   24   44 1
  45   25   26 ar
  46   25   45 1
  47   26   27 ar
  48   26   46 1
  49   27   47 1

#	End of record

