#	Name: ASD02500846
#	Creating user name:	WinNT
#	Creation time:	15. 06. 2019 20:23

#	Modifying user name:	WinNT
#	Modification time:	15. 06. 2019 20:23

#	Program:	/corina/corina34_cracker 3.40 0067  02.08.2006

@<TRIPOS>MOLECULE
ASD02500846
  29   30    0    0    0
SMALL
NO_CHARGES


@<TRIPOS>ATOM
   1 C1            -0.0170     1.4057     0.0098 C.2     
   2 C2             0.0021    -0.0041     0.0020 C.2     
   3 C3             1.2932    -0.3916    -0.0124 C.2     
   4 N4             2.0750     0.7292    -0.0138 N.pl3   
   5 C5             1.2631     1.8282    -0.0002 C.2     
   6 C6             1.7887    -1.8148    -0.0240 C.3     
   7 C7             1.7198     3.2643     0.0022 C.3     
   8 C8             3.4716     0.7482    -0.0262 C.ar    
   9 C9             4.1866     0.7518     1.1803 C.ar    
  10 C10            5.5834     0.7704     1.1551 C.ar    
  11 C11            6.2490     0.7850    -0.0528 C.ar    
  12 C12            5.5381     0.7818    -1.2431 C.ar    
  13 C13            4.1577     0.7577    -1.2321 C.ar    
  14 C14            3.4684     0.7366     2.4679 C.2     
  15 O15            4.1593     0.7401     3.6248 O.3     
  16 O16            2.2536     0.7208     2.4858 O.2     
  17 Cl17           7.9846     0.8081    -0.0829 Cl      
  18 H18           -0.8965     2.0325     0.0175 H       
  19 H19           -0.8600    -0.6546     0.0073 H       
  20 H20            1.8985    -2.1528    -1.0544 H       
  21 H21            2.7534    -1.8678     0.4806 H       
  22 H22            1.0724    -2.4531     0.4934 H       
  23 H23            1.8194     3.6156    -1.0248 H       
  24 H24            0.9870     3.8777     0.5265 H       
  25 H25            2.6832     3.3384     0.5066 H       
  26 H26            6.1411     0.7736     2.0800 H       
  27 H27            6.0673     0.7937    -2.1845 H       
  28 H28            3.6111     0.7551    -2.1636 H       
  29 H29            3.6447     0.7297     4.4435 H       
@<TRIPOS>BOND
   1    1    2 1
   2    1    5 2
   3    1   18 1
   4    2    3 2
   5    2   19 1
   6    3    4 1
   7    3    6 1
   8    4    5 1
   9    4    8 1
  10    5    7 1
  11    6   20 1
  12    6   21 1
  13    6   22 1
  14    7   23 1
  15    7   24 1
  16    7   25 1
  17    8    9 ar
  18    8   13 ar
  19    9   10 ar
  20    9   14 1
  21   10   11 ar
  22   10   26 1
  23   11   12 ar
  24   11   17 1
  25   12   13 ar
  26   12   27 1
  27   13   28 1
  28   14   15 1
  29   14   16 2
  30   15   29 1

#	End of record

