#	Name: ASD03092916
#	Creating user name:	WinNT
#	Creation time:	15. 06. 2019 20:33

#	Modifying user name:	WinNT
#	Modification time:	15. 06. 2019 20:33

#	Program:	/corina/corina34_cracker 3.40 0067  02.08.2006

@<TRIPOS>MOLECULE
ASD03092916
  53   56    0    0    0
SMALL
NO_CHARGES


@<TRIPOS>ATOM
   1 C1            -0.4877     1.4492     0.0446 C.3     
   2 C2            -0.2049    -0.0308     0.0162 C.2     
   3 C3            -0.0911    -0.8414    -1.1419 C.2     
   4 C4            -0.2253    -0.4023    -2.5300 C.2     
   5 O5            -1.3251    -0.3209    -3.0372 O.2     
   6 C6             1.0018    -0.0508    -3.3311 C.3     
   7 C7             0.5986     0.2501    -4.7760 C.3     
   8 C8             0.8402     1.6686    -5.2960 C.3     
   9 C9             1.7206     0.5154    -5.7819 C.3     
  10 C10            0.1738    -2.1404    -0.7008 C.2     
  11 C11            0.3708    -3.3259    -1.5560 C.ar    
  12 C12           -0.4878    -3.5658    -2.6321 C.ar    
  13 C13           -0.2972    -4.6761    -3.4277 C.ar    
  14 C14            0.7410    -5.5518    -3.1622 C.ar    
  15 C15            1.5953    -5.3207    -2.0982 C.ar    
  16 C16            1.4204    -4.2115    -1.2975 C.ar    
  17 S17            0.9760    -6.9683    -4.1834 S.o2    
  18 N18            1.9914    -6.5228    -5.4134 N.am    
  19 O19            1.6877    -7.9152    -3.3986 O.2     
  20 O20           -0.2827    -7.2444    -4.7823 O.2     
  21 N21            0.2181    -2.1158     0.6598 N.pl3   
  22 C22            0.4715    -3.2724     1.5225 C.3     
  23 C23           -0.0064    -0.8316     1.0942 C.2     
  24 C24           -0.0317    -0.3940     2.5063 C.ar    
  25 C25           -0.7123    -1.1501     3.4620 C.ar    
  26 C26           -0.7324    -0.7367     4.7779 C.ar    
  27 C27           -0.0795     0.4259     5.1513 C.ar    
  28 Cl28          -0.1092     0.9397     6.8093 Cl      
  29 C29            0.5974     1.1801     4.2076 C.ar    
  30 C30            0.6298     0.7736     2.8899 C.ar    
  31 H31            0.4523     1.9976     0.1063 H       
  32 H32           -1.0164     1.7356    -0.8646 H       
  33 H33           -1.1035     1.6848     0.9125 H       
  34 H34            1.4799     0.8272    -2.8969 H       
  35 H35            1.6984    -0.8890    -3.3153 H       
  36 H36           -0.2865    -0.2744    -5.1361 H       
  37 H37            0.1138     2.0777    -5.9983 H       
  38 H38            1.2863     2.3874    -4.6088 H       
  39 H39            2.7459     0.4756    -5.4142 H       
  40 H40            1.5734     0.1659    -6.8037 H       
  41 H41           -1.2988    -2.8836    -2.8401 H       
  42 H42           -0.9599    -4.8628    -4.2597 H       
  43 H43            2.4031    -6.0086    -1.8968 H       
  44 H44            2.0904    -4.0301    -0.4700 H       
  45 H45            2.5832    -7.1780    -5.8151 H       
  46 H46            1.9943    -5.6067    -5.7322 H       
  47 H47            1.5429    -3.3654     1.7001 H       
  48 H48           -0.0440    -3.1363     2.4732 H       
  49 H49            0.1040    -4.1759     1.0360 H       
  50 H50           -1.2224    -2.0566     3.1718 H       
  51 H51           -1.2587    -1.3209     5.5183 H       
  52 H52            1.1045     2.0862     4.5047 H       
  53 H53            1.1620     1.3601     2.1556 H       
@<TRIPOS>BOND
   1    1    2 1
   2    1   31 1
   3    1   32 1
   4    1   33 1
   5    2   23 2
   6    2    3 1
   7    3    4 1
   8    3   10 2
   9    4    5 2
  10    4    6 1
  11    6    7 1
  12    6   34 1
  13    6   35 1
  14    7    9 1
  15    7    8 1
  16    7   36 1
  17    8    9 1
  18    8   37 1
  19    8   38 1
  20    9   39 1
  21    9   40 1
  22   10   11 1
  23   10   21 1
  24   11   16 ar
  25   11   12 ar
  26   12   13 ar
  27   12   41 1
  28   13   14 ar
  29   13   42 1
  30   14   15 ar
  31   14   17 1
  32   15   16 ar
  33   15   43 1
  34   16   44 1
  35   17   18 am
  36   17   19 2
  37   17   20 2
  38   18   45 1
  39   18   46 1
  40   21   22 1
  41   21   23 1
  42   22   47 1
  43   22   48 1
  44   22   49 1
  45   23   24 1
  46   24   30 ar
  47   24   25 ar
  48   25   26 ar
  49   25   50 1
  50   26   27 ar
  51   26   51 1
  52   27   28 1
  53   27   29 ar
  54   29   30 ar
  55   29   52 1
  56   30   53 1

#	End of record

