#	Name: ASD01813153
#	Creating user name:	WinNT
#	Creation time:	15. 06. 2019 19:29

#	Modifying user name:	WinNT
#	Modification time:	15. 06. 2019 19:29

#	Program:	/corina/corina34_cracker 3.40 0067  02.08.2006

@<TRIPOS>MOLECULE
ASD01813153
  56   60    0    0    0
SMALL
NO_CHARGES


@<TRIPOS>ATOM
   1 O1             0.0544     0.9310     0.3965 O.3     
   2 C2             0.0840    -0.4872     0.2241 C.3     
   3 H3             0.5854    -0.7391    -0.7104 H       
   4 C4             0.8148    -1.1487     1.4108 C.3     
   5 C5            -0.3242    -1.5615     2.3759 C.3     
   6 C6            -1.4388    -2.0307     1.4082 C.3     
   7 C7            -1.3489    -1.0479     0.2212 C.3     
   8 H8            -2.0669    -0.2382     0.3513 H       
   9 N9            -1.6094    -1.7531    -1.0362 N.am    
  10 C10           -2.8729    -1.8825    -1.4871 C.2     
  11 O11           -3.8044    -1.5018    -0.8038 O.2     
  12 C12           -3.1254    -2.4844    -2.8057 C.2     
  13 C13           -4.4153    -2.7325    -3.2278 C.2     
  14 N14           -4.6831    -3.2792    -4.4207 N.pl3   
  15 C15           -6.0824    -3.5082    -4.7889 C.3     
  16 C16           -6.5196    -4.8598    -4.2857 C.ar    
  17 C17           -6.2532    -5.9931    -5.0319 C.ar    
  18 C18           -6.6531    -7.2331    -4.5735 C.ar    
  19 C19           -7.3227    -7.3411    -3.3621 C.ar    
  20 C20           -7.5883    -6.2014    -2.6150 C.ar    
  21 C21           -7.1814    -4.9647    -3.0761 C.ar    
  22 N22           -7.7302    -8.5982    -2.8944 N.pl3   
  23 C23           -8.3915    -8.8420    -1.7404 C.2     
  24 C24           -8.5981   -10.1768    -1.6584 C.2     
  25 C25           -8.0453   -10.7692    -2.7991 C.2     
  26 N26           -7.5297    -9.8237    -3.5428 N.2     
  27 C27           -3.6980    -3.6354    -5.3170 C.ar    
  28 C28           -4.0305    -4.2014    -6.5474 C.ar    
  29 F29           -5.3265    -4.4051    -6.8699 F       
  30 C30           -3.0346    -4.5527    -7.4350 C.ar    
  31 C31           -1.6993    -4.3496    -7.1179 C.ar    
  32 C32           -1.3489    -3.7920    -5.9082 C.ar    
  33 C33           -2.3446    -3.4311    -5.0004 C.ar    
  34 C34           -2.0069    -2.8260    -3.6984 C.2     
  35 O35           -0.8502    -2.6220    -3.3739 O.2     
  36 H36            0.9290     1.3430     0.4175 H       
  37 H37            1.3685    -2.0262     1.0766 H       
  38 H38            1.4834    -0.4353     1.8926 H       
  39 H39           -0.0051    -2.3786     3.0229 H       
  40 H40           -0.6588    -0.7082     2.9659 H       
  41 H41           -1.2491    -3.0506     1.0736 H       
  42 H42           -2.4150    -1.9610     1.8882 H       
  43 H43           -0.8724    -2.1268    -1.5444 H       
  44 H44           -5.2365    -2.4776    -2.5743 H       
  45 H45           -6.7070    -2.7347    -4.3421 H       
  46 H46           -6.1828    -3.4745    -5.8738 H       
  47 H47           -5.7323    -5.9085    -5.9741 H       
  48 H48           -6.4453    -8.1179    -5.1570 H       
  49 H49           -8.1093    -6.2822    -1.6724 H       
  50 H50           -7.3838    -4.0783    -2.4933 H       
  51 H51           -8.6993    -8.1040    -1.0145 H       
  52 H52           -9.1010   -10.6936    -0.8544 H       
  53 H53           -8.0473   -11.8246    -3.0283 H       
  54 H54           -3.2972    -4.9907    -8.3866 H       
  55 H55           -0.9308    -4.6305    -7.8229 H       
  56 H56           -0.3087    -3.6353    -5.6636 H       
@<TRIPOS>BOND
   1    1    2 1
   2    1   36 1
   3    2    3 1
   4    2    7 1
   5    2    4 1
   6    4    5 1
   7    4   37 1
   8    4   38 1
   9    5    6 1
  10    5   39 1
  11    5   40 1
  12    6    7 1
  13    6   41 1
  14    6   42 1
  15    7    8 1
  16    7    9 1
  17    9   10 am
  18    9   43 1
  19   10   11 2
  20   10   12 1
  21   12   34 1
  22   12   13 2
  23   13   14 1
  24   13   44 1
  25   14   15 1
  26   14   27 1
  27   15   16 1
  28   15   45 1
  29   15   46 1
  30   16   21 ar
  31   16   17 ar
  32   17   18 ar
  33   17   47 1
  34   18   19 ar
  35   18   48 1
  36   19   20 ar
  37   19   22 1
  38   20   21 ar
  39   20   49 1
  40   21   50 1
  41   22   26 1
  42   22   23 1
  43   23   24 2
  44   23   51 1
  45   24   25 1
  46   24   52 1
  47   25   26 2
  48   25   53 1
  49   27   33 ar
  50   27   28 ar
  51   28   29 1
  52   28   30 ar
  53   30   31 ar
  54   30   54 1
  55   31   32 ar
  56   31   55 1
  57   32   33 ar
  58   32   56 1
  59   33   34 1
  60   34   35 2

#	End of record

