#	Name: ASD01140020
#	Creating user name:	WinNT
#	Creation time:	15. 06. 2019 18:59

#	Modifying user name:	WinNT
#	Modification time:	15. 06. 2019 18:59

#	Program:	/corina/corina34_cracker 3.40 0067  02.08.2006

@<TRIPOS>MOLECULE
ASD01140020
  38   41    0    0    0
SMALL
NO_CHARGES


@<TRIPOS>ATOM
   1 C1            -0.0516     1.4487    -0.7352 C.ar    
   2 C2            -0.2410     0.1875    -1.2948 C.ar    
   3 C3            -1.4802    -0.4213    -1.2081 C.ar    
   4 C4            -2.5335     0.2162    -0.5686 C.ar    
   5 C5            -2.3444     1.4635    -0.0118 C.ar    
   6 C6            -1.1035     2.0774    -0.0930 C.ar    
   7 C7            -3.8649    -0.4863    -0.5104 C.3     
   8 N8            -4.7152     0.1096     0.5248 N.3     
   9 C9            -4.8049     1.5660     0.3341 C.3     
  10 C10           -3.4574     2.1876     0.7019 C.3     
  11 H11           -4.3604    -0.3986    -1.4773 H       
  12 C12           -3.6417    -1.9658    -0.1906 C.3     
  13 C13           -3.0928    -2.1185     1.2087 C.2     
  14 C14           -3.9738    -2.8431     1.8937 C.2     
  15 C15           -5.1010    -3.1928     1.0252 C.2     
  16 O16           -4.9105    -2.6784    -0.2042 O.3     
  17 O17           -6.0650    -3.8507     1.3643 O.2     
  18 H18           -2.9549    -2.4062    -0.9134 H       
  19 C19           -3.8341    -3.2422     3.3402 C.3     
  20 C20           -6.0498    -0.5042     0.5276 C.3     
  21 O21            1.2408     1.8317    -0.9503 O.3     
  22 C22            1.9489     0.6239    -1.2863 C.3     
  23 O23            0.9329    -0.2198    -1.8600 O.3     
  24 H24           -1.6288    -1.3993    -1.6414 H       
  25 H25           -0.9594     3.0555     0.3415 H       
  26 H26           -5.0371     1.7853    -0.7080 H       
  27 H27           -5.5839     1.9725     0.9792 H       
  28 H28           -3.3060     2.1121     1.7787 H       
  29 H29           -3.4515     3.2377     0.4099 H       
  30 H30           -2.1623    -1.7167     1.5817 H       
  31 H31           -4.2865    -2.4788     3.9730 H       
  32 H32           -4.3371    -4.1952     3.5043 H       
  33 H33           -2.7776    -3.3414     3.5893 H       
  34 H34           -6.0237    -1.4278     1.1060 H       
  35 H35           -6.7657     0.1849     0.9755 H       
  36 H36           -6.3502    -0.7253    -0.4966 H       
  37 H37            2.7326     0.8296    -2.0154 H       
  38 H38            2.3681     0.1641    -0.3913 H       
@<TRIPOS>BOND
   1    1    2 ar
   2    1   21 1
   3    1    6 ar
   4    2    3 ar
   5    2   23 1
   6    3    4 ar
   7    3   24 1
   8    4    5 ar
   9    4    7 1
  10    5    6 ar
  11    5   10 1
  12    6   25 1
  13    7    8 1
  14    7   11 1
  15    7   12 1
  16    8    9 1
  17    8   20 1
  18    9   10 1
  19    9   26 1
  20    9   27 1
  21   10   28 1
  22   10   29 1
  23   12   13 1
  24   12   18 1
  25   12   16 1
  26   13   14 2
  27   13   30 1
  28   14   15 1
  29   14   19 1
  30   15   16 1
  31   15   17 2
  32   19   31 1
  33   19   32 1
  34   19   33 1
  35   20   34 1
  36   20   35 1
  37   20   36 1
  38   21   22 1
  39   22   23 1
  40   22   37 1
  41   22   38 1

#	End of record

