#	Name: ASD01150752
#	Creating user name:	WinNT
#	Creation time:	15. 06. 2019 19:04

#	Modifying user name:	WinNT
#	Modification time:	15. 06. 2019 19:04

#	Program:	/corina/corina34_cracker 3.40 0067  02.08.2006

@<TRIPOS>MOLECULE
ASD01150752
  35   37    0    0    0
SMALL
NO_CHARGES


@<TRIPOS>ATOM
   1 C1             0.0304     1.5086     0.4581 C.2     
   2 C2            -0.3581     1.2400     1.8892 C.3     
   3 F3            -1.6168     0.6303     1.9240 F       
   4 F4             0.5869     0.3929     2.4779 F       
   5 F5            -0.4052     2.4475     2.5941 F       
   6 N6             3.6092     2.0318    -0.3219 N.ar    
   7 C7             2.4706     1.4492    -0.0516 C.ar    
   8 C8             1.2932     2.1906     0.1569 C.ar    
   9 C9             1.3419     3.5944     0.0724 C.ar    
  10 C10            2.5918     4.1932    -0.2222 C.ar    
  11 C11            2.7240     5.5846    -0.3231 C.ar    
  12 C12            3.9428     6.1275    -0.6077 C.ar    
  13 C13            5.0572     5.3144    -0.7996 C.ar    
  14 C14            4.9614     3.9585    -0.7081 C.ar    
  15 C15            3.7232     3.3637    -0.4163 C.ar    
  16 C16            2.4180    -0.0542     0.0390 C.3     
  17 C17            0.1322     4.4150     0.2830 C.ar    
  18 C18            0.0561     5.2851     1.3735 C.ar    
  19 C19           -1.0752     6.0488     1.5648 C.ar    
  20 C20           -2.1365     5.9549     0.6774 C.ar    
  21 C21           -2.0666     5.0932    -0.4066 C.ar    
  22 C22           -0.9382     4.3285    -0.6108 C.ar    
  23 F23           -3.2431     6.7056     0.8701 F       
  24 Br24           4.1209     8.0052    -0.7439 Br      
  25 O25           -0.6991     1.1563    -0.4449 O.2     
  26 H26            1.8658     6.2236    -0.1768 H       
  27 H27            6.0122     5.7659    -1.0246 H       
  28 H28            5.8356     3.3426    -0.8594 H       
  29 H29            2.5212    -0.3593     1.0803 H       
  30 H30            1.4635    -0.4084    -0.3504 H       
  31 H31            3.2310    -0.4822    -0.5474 H       
  32 H32            0.8821     5.3587     2.0655 H       
  33 H33           -1.1352     6.7215     2.4076 H       
  34 H34           -2.8964     5.0238    -1.0944 H       
  35 H35           -0.8831     3.6606    -1.4578 H       
@<TRIPOS>BOND
   1    1    2 1
   2    1    8 1
   3    1   25 2
   4    2    3 1
   5    2    4 1
   6    2    5 1
   7    6    7 ar
   8    6   15 ar
   9    7    8 ar
  10    7   16 1
  11    8    9 ar
  12    9   10 ar
  13    9   17 1
  14   10   11 ar
  15   10   15 ar
  16   11   12 ar
  17   11   26 1
  18   12   13 ar
  19   12   24 1
  20   13   14 ar
  21   13   27 1
  22   14   15 ar
  23   14   28 1
  24   16   29 1
  25   16   30 1
  26   16   31 1
  27   17   18 ar
  28   17   22 ar
  29   18   19 ar
  30   18   32 1
  31   19   20 ar
  32   19   33 1
  33   20   21 ar
  34   20   23 1
  35   21   22 ar
  36   21   34 1
  37   22   35 1

#	End of record

