#	Name: ASD01811193
#	Creating user name:	WinNT
#	Creation time:	15. 06. 2019 19:26

#	Modifying user name:	WinNT
#	Modification time:	15. 06. 2019 19:26

#	Program:	/corina/corina34_cracker 3.40 0067  02.08.2006

@<TRIPOS>MOLECULE
ASD01811193
  28   29    0    0    0
SMALL
NO_CHARGES


@<TRIPOS>ATOM
   1 C1            -0.0180     1.4731     0.0101 C.2     
   2 C2             0.0021    -0.0041     0.0020 C.ar    
   3 C3             1.2190    -0.6889    -0.0133 C.ar    
   4 C4             1.2309    -2.0681    -0.0203 C.ar    
   5 C5             0.0405    -2.7736    -0.0127 C.ar    
   6 C6            -1.1693    -2.1015     0.0020 C.ar    
   7 C7            -1.1954    -0.7215     0.0154 C.ar    
   8 O8             1.0256     2.0947     0.0035 O.2     
   9 O9            -1.1936     2.1307     0.0193 O.3     
  10 I10           -2.9648    -3.1810     0.0120 I       
  11 C11            2.5166     0.0774    -0.0226 C.3     
  12 C12            2.8143     0.5591    -1.4439 C.3     
  13 C13            0.0614    -4.2804    -0.0210 C.3     
  14 C14            0.7385    -4.9710    -1.2065 C.3     
  15 C15            1.4148    -4.9691     0.1659 C.3     
  16 H16            2.1715    -2.5987    -0.0322 H       
  17 H17           -2.1399    -0.1980     0.0314 H       
  18 H18           -1.1561     3.0970     0.0244 H       
  19 H19            2.4358     0.9369     0.6429 H       
  20 H20            3.3240    -0.5710     0.3179 H       
  21 H21            2.8951    -0.3004    -2.1094 H       
  22 H22            2.0070     1.2075    -1.7844 H       
  23 H23            3.7528     1.1134    -1.4507 H       
  24 H24           -0.8142    -4.7651     0.4108 H       
  25 H25            0.3086    -5.9102    -1.5545 H       
  26 H26            1.1688    -4.3354    -1.9805 H       
  27 H27            2.2900    -4.3323     0.2948 H       
  28 H28            1.4298    -5.9071     0.7208 H       
@<TRIPOS>BOND
   1    1    2 1
   2    1    8 2
   3    1    9 1
   4    2    3 ar
   5    2    7 ar
   6    3    4 ar
   7    3   11 1
   8    4    5 ar
   9    4   16 1
  10    5    6 ar
  11    5   13 1
  12    6    7 ar
  13    6   10 1
  14    7   17 1
  15    9   18 1
  16   11   12 1
  17   11   19 1
  18   11   20 1
  19   12   21 1
  20   12   22 1
  21   12   23 1
  22   13   14 1
  23   13   15 1
  24   13   24 1
  25   14   15 1
  26   14   25 1
  27   14   26 1
  28   15   27 1
  29   15   28 1

#	End of record

