#	Name: ASD08178090
#	Creating user name:	WinNT
#	Creation time:	15. 06. 2019 21:18

#	Modifying user name:	WinNT
#	Modification time:	15. 06. 2019 21:18

#	Program:	/corina/corina34_cracker 3.40 0067  02.08.2006

@<TRIPOS>MOLECULE
ASD08178090
  52   55    0    0    0
SMALL
NO_CHARGES


@<TRIPOS>ATOM
   1 N1            -0.0150     1.2583     0.0090 N.2     
   2 N2             0.0021    -0.0041     0.0020 N.2     
   3 C3             1.1271     1.8769     0.0014 C.2     
   4 S4             2.3826     0.7116    -0.0169 S.3     
   5 C5             1.1681    -0.5677    -0.0121 C.2     
   6 N6             1.3017     3.2566     0.0067 N.am    
   7 C7             0.2284     4.0717     0.0214 C.2     
   8 O8            -0.8897     3.6019     0.0299 O.2     
   9 C9             1.4387    -2.0502    -0.0227 C.3     
  10 C10            1.5165    -2.5442    -1.4687 C.3     
  11 C11            1.8690    -4.5432    -2.9254 C.3     
  12 C12            2.1395    -6.0257    -2.9359 C.2     
  13 N13            1.2478    -6.9651    -2.9329 N.2     
  14 S14            3.7275    -6.7933    -2.9623 S.3     
  15 C15            2.9647    -8.3272    -2.9581 C.2     
  16 N16            1.6777    -8.1521    -2.9433 N.2     
  17 N17            3.6154    -9.5562    -2.9730 N.am    
  18 C18            2.8993   -10.6980    -2.9678 C.2     
  19 O19            1.6874   -10.6536    -2.9501 O.2     
  20 C20            3.6044   -12.0297    -2.9839 C.3     
  21 C21            0.4176     5.5667     0.0272 C.3     
  22 C22           -0.9288     6.2434     0.0438 C.2     
  23 C23            2.5840   -13.1386    -2.9741 C.2     
  24 C24            1.7912    -4.0493    -1.4794 C.3     
  25 C25           -1.6052     6.5832     1.1422 C.2     
  26 C26           -2.8242     7.1964     0.9102 C.2     
  27 C27           -3.1379     7.3547    -0.3766 C.2     
  28 S28           -1.8453     6.7129    -1.3821 S.3     
  29 C29            2.0475   -13.6995    -4.0589 C.2     
  30 C30            1.1292   -14.7031    -3.8031 C.2     
  31 C31            0.9198   -14.9572    -2.5104 C.2     
  32 S32            1.9238   -13.8963    -1.5306 S.3     
  33 H33            2.1959     3.6323    -0.0001 H       
  34 H34            2.3843    -2.2506     0.4811 H       
  35 H35            0.6334    -2.5702     0.4961 H       
  36 H36            0.5709    -2.3438    -1.9724 H       
  37 H37            2.3218    -2.0242    -1.9874 H       
  38 H38            2.6743    -4.0232    -3.4441 H       
  39 H39            0.9234    -4.3429    -3.4291 H       
  40 H40            4.5846    -9.5917    -2.9871 H       
  41 H41            4.2156   -12.1064    -3.8831 H       
  42 H42            4.2413   -12.1143    -2.1034 H       
  43 H43            0.9817     5.8582     0.9132 H       
  44 H44            0.9643     5.8672    -0.8667 H       
  45 H45            2.7368    -4.2496    -0.9756 H       
  46 H46            0.9858    -4.5693    -0.9606 H       
  47 H47           -1.2302     6.3938     2.1371 H       
  48 H48           -3.4725     7.5218     1.7104 H       
  49 H49           -4.0451     7.8106    -0.7448 H       
  50 H50            2.3096   -13.3936    -5.0610 H       
  51 H51            0.6204   -15.2396    -4.5904 H       
  52 H52            0.2404   -15.7029    -2.1246 H       
@<TRIPOS>BOND
   1    1    2 1
   2    1    3 2
   3    2    5 2
   4    3    4 1
   5    3    6 1
   6    4    5 1
   7    5    9 1
   8    6    7 am
   9    6   33 1
  10    7    8 2
  11    7   21 1
  12    9   10 1
  13    9   34 1
  14    9   35 1
  15   10   24 1
  16   10   36 1
  17   10   37 1
  18   11   12 1
  19   11   24 1
  20   11   38 1
  21   11   39 1
  22   12   13 2
  23   12   14 1
  24   13   16 1
  25   14   15 1
  26   15   16 2
  27   15   17 1
  28   17   18 am
  29   17   40 1
  30   18   19 2
  31   18   20 1
  32   20   23 1
  33   20   41 1
  34   20   42 1
  35   21   22 1
  36   21   43 1
  37   21   44 1
  38   22   25 2
  39   22   28 1
  40   23   29 2
  41   23   32 1
  42   24   45 1
  43   24   46 1
  44   25   26 1
  45   25   47 1
  46   26   27 2
  47   26   48 1
  48   27   28 1
  49   27   49 1
  50   29   30 1
  51   29   50 1
  52   30   31 2
  53   30   51 1
  54   31   32 1
  55   31   52 1

#	End of record

