#	Name: ASD01917838
#	Creating user name:	WinNT
#	Creation time:	15. 06. 2019 20:10

#	Modifying user name:	WinNT
#	Modification time:	15. 06. 2019 20:10

#	Program:	/corina/corina34_cracker 3.40 0067  02.08.2006

@<TRIPOS>MOLECULE
ASD01917838
  44   47    0    0    0
SMALL
NO_CHARGES


@<TRIPOS>ATOM
   1 C1            -0.0136     1.3186    -0.0048 C.2     
   2 C2            -0.0103    -0.0282     0.0045 C.2     
   3 C3            -1.2499    -0.8861     0.0241 C.3     
   4 C4            -2.4379    -0.0296     0.4796 C.3     
   5 N5            -2.4043     1.2578    -0.2304 N.am    
   6 C6            -1.2651     2.1611     0.0135 C.3     
   7 C7            -3.3897     1.6029    -1.0828 C.2     
   8 O8            -4.2642     0.8043    -1.3561 O.2     
   9 O9             1.2630     1.7236    -0.0264 O.3     
  10 C10            2.0355     0.6257    -0.0268 C.2     
  11 N11            1.2679    -0.4295    -0.0077 N.2     
  12 C12            3.5424     0.6137    -0.0464 C.3     
  13 O13            4.0010     0.5985    -1.3997 O.3     
  14 C14            5.3458     0.5863    -1.5953 C.ar    
  15 C15            5.8604     0.5711    -2.8836 C.ar    
  16 C16            7.2278     0.5587    -3.0797 C.ar    
  17 C17            8.0833     0.5613    -1.9935 C.ar    
  18 C18            7.5729     0.5758    -0.7086 C.ar    
  19 C19            6.2063     0.5946    -0.5072 C.ar    
  20 C20           -3.4069     2.9537    -1.6855 C.ar    
  21 C21           -3.8643     3.1283    -2.9920 C.ar    
  22 C22           -3.8808     4.3891    -3.5544 C.ar    
  23 C23           -3.4386     5.4898    -2.8130 C.ar    
  24 C24           -2.9811     5.3115    -1.5049 C.ar    
  25 C25           -2.9706     4.0543    -0.9443 C.ar    
  26 F26           -4.3231     4.5595    -4.8195 F       
  27 C27           -3.4543     6.7984    -3.3944 C.1     
  28 N28           -3.4668     7.8365    -3.8557 N.1     
  29 H29           -1.4416    -1.2739    -0.9764 H       
  30 H30           -1.1096    -1.7147     0.7183 H       
  31 H31           -3.3693    -0.5475     0.2512 H       
  32 H32           -2.3707     0.1448     1.5535 H       
  33 H33           -1.3742     2.6417     0.9857 H       
  34 H34           -1.2157     2.9162    -0.7711 H       
  35 H35            3.9194     1.5051     0.4550 H       
  36 H36            3.9054    -0.2747     0.4703 H       
  37 H37            5.1926     0.5688    -3.7323 H       
  38 H38            7.6290     0.5466    -4.0824 H       
  39 H39            9.1520     0.5515    -2.1490 H       
  40 H40            8.2431     0.5771     0.1382 H       
  41 H41            5.8081     0.6060     0.4967 H       
  42 H42           -4.2051     2.2774    -3.5632 H       
  43 H43           -2.6393     6.1608    -0.9321 H       
  44 H44           -2.6171     3.9176     0.0670 H       
@<TRIPOS>BOND
   1    1    2 2
   2    1    9 1
   3    1    6 1
   4    2    3 1
   5    2   11 1
   6    3    4 1
   7    3   29 1
   8    3   30 1
   9    4    5 1
  10    4   31 1
  11    4   32 1
  12    5    6 1
  13    5    7 am
  14    6   33 1
  15    6   34 1
  16    7    8 2
  17    7   20 1
  18    9   10 1
  19   10   11 2
  20   10   12 1
  21   12   13 1
  22   12   35 1
  23   12   36 1
  24   13   14 1
  25   14   15 ar
  26   14   19 ar
  27   15   16 ar
  28   15   37 1
  29   16   17 ar
  30   16   38 1
  31   17   18 ar
  32   17   39 1
  33   18   19 ar
  34   18   40 1
  35   19   41 1
  36   20   21 ar
  37   20   25 ar
  38   21   22 ar
  39   21   42 1
  40   22   23 ar
  41   22   26 1
  42   23   27 1
  43   23   24 ar
  44   24   25 ar
  45   24   43 1
  46   25   44 1
  47   27   28 3

#	End of record

