#	Name: ASD02398060
#	Creating user name:	WinNT
#	Creation time:	15. 06. 2019 20:20

#	Modifying user name:	WinNT
#	Modification time:	15. 06. 2019 20:20

#	Program:	/corina/corina34_cracker 3.40 0067  02.08.2006

@<TRIPOS>MOLECULE
ASD02398060
  54   57    0    0    0
SMALL
NO_CHARGES


@<TRIPOS>ATOM
   1 C1             0.1563     1.3303    -0.2008 C.ar    
   2 C2             0.2570    -0.0583    -0.0697 C.ar    
   3 C3            -0.8993    -0.8266     0.0406 C.ar    
   4 C4            -2.1370    -0.2154     0.0201 C.ar    
   5 C5            -2.2334     1.1585    -0.1098 C.ar    
   6 C6            -1.0920     1.9310    -0.2148 C.ar    
   7 C7            -3.3875    -1.0480     0.1390 C.3     
   8 C8            -3.6962    -1.2855     1.5948 C.2     
   9 O9            -2.9267    -0.9057     2.4454 O.2     
  10 O10           -4.8262    -1.9189     1.9466 O.3     
  11 C11            1.5893    -0.7100    -0.0486 C.ar    
  12 C12            2.4559    -0.4958     1.0219 C.ar    
  13 C13            1.9768    -1.5432    -1.0961 C.ar    
  14 C14            3.2177    -2.1474    -1.0710 C.ar    
  15 C15            4.0756    -1.9271    -0.0089 C.ar    
  16 C16            3.6940    -1.1050     1.0364 C.ar    
  17 C17            2.0418     0.3998     2.1609 C.3     
  18 N18            3.0550     0.3459     3.2177 N.am    
  19 C19            3.1363    -0.6051     4.2345 C.ar    
  20 O20            1.2787     2.0879    -0.3086 O.3     
  21 O21            4.7992     0.8408     4.4570 O.3     
  22 C22            4.2488    -0.2699     5.0058 C.ar    
  23 C23            4.5815    -1.0450     6.1057 C.ar    
  24 C24            3.8144    -2.1471     6.4292 C.ar    
  25 C25            2.7137    -2.4823     5.6599 C.ar    
  26 C26            2.3706    -1.7121     4.5658 C.ar    
  27 C27            1.0984     3.4994    -0.4396 C.3     
  28 C28           -5.1152    -2.0117     3.3665 C.3     
  29 C29            4.0822     1.2029     3.3815 C.2     
  30 O30            4.3208     2.1578     2.6675 O.2     
  31 C31            5.4288    -2.5900     0.0130 C.3     
  32 F32            5.5843    -3.3707    -1.1374 F       
  33 F33            6.4272    -1.6108     0.0505 F       
  34 F34            5.5311    -3.4039     1.1463 F       
  35 H35           -0.8278    -1.8995     0.1418 H       
  36 H36           -3.2049     1.6301    -0.1252 H       
  37 H37           -1.1736     3.0032    -0.3159 H       
  38 H38           -4.2201    -0.5217    -0.3278 H       
  39 H39           -3.2360    -2.0046    -0.3610 H       
  40 H40            1.3075    -1.7162    -1.9259 H       
  41 H41            3.5190    -2.7937    -1.8822 H       
  42 H42            4.3679    -0.9365     1.8633 H       
  43 H43            1.9461     1.4243     1.8013 H       
  44 H44            1.0842     0.0632     2.5581 H       
  45 H45            5.4397    -0.7877     6.7088 H       
  46 H46            4.0749    -2.7504     7.2863 H       
  47 H47            2.1187    -3.3456     5.9186 H       
  48 H48            1.5112    -1.9748     3.9668 H       
  49 H49            0.5703     3.8809     0.4343 H       
  50 H50            2.0716     3.9844    -0.5164 H       
  51 H51            0.5159     3.7097    -1.3365 H       
  52 H52           -6.0078    -2.6190     3.5166 H       
  53 H53           -4.2714    -2.4728     3.8797 H       
  54 H54           -5.2835    -1.0128     3.7690 H       
@<TRIPOS>BOND
   1    1    2 ar
   2    1   20 1
   3    1    6 ar
   4    2    3 ar
   5    2   11 1
   6    3    4 ar
   7    3   35 1
   8    4    5 ar
   9    4    7 1
  10    5    6 ar
  11    5   36 1
  12    6   37 1
  13    7    8 1
  14    7   38 1
  15    7   39 1
  16    8    9 2
  17    8   10 1
  18   10   28 1
  19   11   12 ar
  20   11   13 ar
  21   12   17 1
  22   12   16 ar
  23   13   14 ar
  24   13   40 1
  25   14   15 ar
  26   14   41 1
  27   15   16 ar
  28   15   31 1
  29   16   42 1
  30   17   18 1
  31   17   43 1
  32   17   44 1
  33   18   29 am
  34   18   19 1
  35   19   22 ar
  36   19   26 ar
  37   20   27 1
  38   21   22 1
  39   21   29 1
  40   22   23 ar
  41   23   24 ar
  42   23   45 1
  43   24   25 ar
  44   24   46 1
  45   25   26 ar
  46   25   47 1
  47   26   48 1
  48   27   49 1
  49   27   50 1
  50   27   51 1
  51   28   52 1
  52   28   53 1
  53   28   54 1
  54   29   30 2
  55   31   32 1
  56   31   33 1
  57   31   34 1

#	End of record

