#	Name: ASD03430269
#	Creating user name:	WinNT
#	Creation time:	15. 06. 2019 20:40

#	Modifying user name:	WinNT
#	Modification time:	15. 06. 2019 20:40

#	Program:	/corina/corina34_cracker 3.40 0067  02.08.2006

@<TRIPOS>MOLECULE
ASD03430269
  49   54    0    0    0
SMALL
NO_CHARGES


@<TRIPOS>ATOM
   1 C1            -0.0167     1.3821     0.0096 C.ar    
   2 C2             0.0021    -0.0041     0.0020 C.ar    
   3 C3             1.2028    -0.6820    -0.0146 C.ar    
   4 C4             2.4085     0.0129    -0.0136 C.ar    
   5 C5             2.3859     1.4039    -0.0113 C.ar    
   6 C6             1.1814     2.0869     0.0020 C.ar    
   7 O7             3.4713    -0.8417    -0.0012 O.3     
   8 C8             1.5511    -2.1458    -0.0496 C.3     
   9 C9             3.0376    -2.1455    -0.4331 C.3     
  10 C10            0.0920    -3.9138    -0.3084 C.ar    
  11 C11            0.7198    -2.9076    -1.0389 C.ar    
  12 C12            1.3162    -2.8207     1.2710 C.2     
  13 N13            0.4611    -3.8361     1.0366 N.am    
  14 O14            1.8009    -2.5126     2.3392 O.2     
  15 C15            0.5031    -2.7852    -2.3928 C.ar    
  16 C16           -0.3433    -3.6672    -3.0418 C.ar    
  17 C17           -0.9703    -4.6709    -2.3270 C.ar    
  18 C18           -0.7568    -4.7974    -0.9698 C.ar    
  19 O19           -1.2113     2.0357     0.0189 O.3     
  20 C20           -1.1862     3.4148     0.4030 C.3     
  21 C21           -0.0356     4.1005    -0.3463 C.3     
  22 O22            1.1866     3.4485     0.0125 O.3     
  23 C23           -0.0242    -4.7519     2.0719 C.3     
  24 C24            0.9216    -5.9500     2.1772 C.3     
  25 O25            2.1974    -5.5203     2.6665 O.3     
  26 C26            2.4802    -6.1556     3.9234 C.3     
  27 C27            1.6388    -7.4567     3.9174 C.3     
  28 C28            0.3574    -6.9758     3.1836 C.3     
  29 H29           -0.9269    -0.5549     0.0095 H       
  30 H30            3.3146     1.9552    -0.0195 H       
  31 H31            3.1593    -2.2566    -1.5106 H       
  32 H32            3.5752    -2.9289     0.1010 H       
  33 H33            0.9937    -2.0001    -2.9490 H       
  34 H34           -0.5138    -3.5714    -4.1039 H       
  35 H35           -1.6302    -5.3596    -2.8336 H       
  36 H36           -1.2502    -5.5841    -0.4184 H       
  37 H37           -2.1316     3.8878     0.1372 H       
  38 H38           -1.0240     3.4943     1.4779 H       
  39 H39           -0.1943     4.0146    -1.4213 H       
  40 H40            0.0116     5.1523    -0.0641 H       
  41 H41           -0.0599    -4.2320     3.0293 H       
  42 H42           -1.0235    -5.0998     1.8099 H       
  43 H43            1.0385    -6.4157     1.1987 H       
  44 H44            3.5417    -6.3918     3.9975 H       
  45 H45            2.1764    -5.5124     4.7492 H       
  46 H46            2.1398    -8.2459     3.3567 H       
  47 H47            1.4115    -7.7822     4.9325 H       
  48 H48           -0.3319    -6.4977     3.8796 H       
  49 H49           -0.1260    -7.8033     2.6642 H       
@<TRIPOS>BOND
   1    1    2 ar
   2    1    6 ar
   3    1   19 1
   4    2    3 ar
   5    2   29 1
   6    3    4 ar
   7    3    8 1
   8    4    5 ar
   9    4    7 1
  10    5    6 ar
  11    5   30 1
  12    6   22 1
  13    7    9 1
  14    8    9 1
  15    8   11 1
  16    8   12 1
  17    9   31 1
  18    9   32 1
  19   10   11 ar
  20   10   13 1
  21   10   18 ar
  22   11   15 ar
  23   12   13 am
  24   12   14 2
  25   13   23 1
  26   15   16 ar
  27   15   33 1
  28   16   17 ar
  29   16   34 1
  30   17   18 ar
  31   17   35 1
  32   18   36 1
  33   19   20 1
  34   20   21 1
  35   20   37 1
  36   20   38 1
  37   21   22 1
  38   21   39 1
  39   21   40 1
  40   23   24 1
  41   23   41 1
  42   23   42 1
  43   24   25 1
  44   24   28 1
  45   24   43 1
  46   25   26 1
  47   26   27 1
  48   26   44 1
  49   26   45 1
  50   27   28 1
  51   27   46 1
  52   27   47 1
  53   28   48 1
  54   28   49 1

#	End of record

