#	Name: ASD02038904
#	Creating user name:	WinNT
#	Creation time:	15. 06. 2019 20:17

#	Modifying user name:	WinNT
#	Modification time:	15. 06. 2019 20:17

#	Program:	/corina/corina34_cracker 3.40 0067  02.08.2006

@<TRIPOS>MOLECULE
ASD02038904
  82   85    0    0    0
SMALL
NO_CHARGES


@<TRIPOS>ATOM
   1 N1            -0.5420     1.1581    -0.3244 N.am    
   2 C2            -0.4304    -0.3047    -0.2267 C.3     
   3 C3             1.0648    -0.6604    -0.3653 C.3     
   4 C4             1.6495     0.5753    -1.0992 C.3     
   5 C5             0.8087     1.7251    -0.4904 C.3     
   6 C6            -1.6895     1.8633    -0.2761 C.2     
   7 O7            -2.7575     1.2845    -0.2449 O.2     
   8 O8            -1.6525     3.2091    -0.2624 O.3     
   9 C9            -0.9461    -0.7698     1.1108 C.2     
  10 O10           -0.9536    -0.0094     2.0556 O.2     
  11 N11           -1.3989    -2.0308     1.2570 N.am    
  12 C12           -2.0227    -2.5821     2.4688 C.3     
  13 C13           -2.4033    -4.0460     2.1627 C.3     
  14 C14           -2.4865    -4.0668     0.6135 C.3     
  15 C15           -1.3566    -3.0838     0.2261 C.3     
  16 C16           -1.0304    -2.5349     3.6323 C.3     
  17 C17           -1.6788    -3.1018     4.8689 C.ar    
  18 C18           -1.5808    -4.4532     5.1431 C.ar    
  19 C19           -2.1756    -4.9732     6.2774 C.ar    
  20 C20           -2.8682    -4.1419     7.1377 C.ar    
  21 C21           -2.9655    -2.7904     6.8640 C.ar    
  22 C22           -2.3669    -2.2696     5.7320 C.ar    
  23 C23           -3.2591    -1.7924     2.8135 C.2     
  24 N24           -4.4247    -2.0601     2.1920 N.am    
  25 O25           -3.2052    -0.9160     3.6501 O.2     
  26 C26           -6.2878    -1.6899     3.7023 C.2     
  27 C27           -5.5994    -1.2224     2.4459 C.3     
  28 C28           -6.5664    -1.3286     1.2649 C.3     
  29 C29           -5.8580    -0.8828    -0.0159 C.3     
  30 O30           -5.8427    -2.6267     4.3222 O.2     
  31 O31           -7.3952    -1.0655     4.1329 O.3     
  32 C32           -8.0052    -1.5698     5.3503 C.3     
  33 O33           -7.0055    -2.7051     1.1212 O.3     
  34 C34           -8.1918    -2.9074     0.5266 C.2     
  35 O35           -8.8849    -1.9648     0.2251 O.2     
  36 C36           -8.6591    -4.3101     0.2351 C.3     
  37 C37           -2.9255     3.9042    -0.3286 C.3     
  38 C38           -2.6830     5.3885    -0.4238 C.ar    
  39 C39           -2.6550     6.0064    -1.6601 C.ar    
  40 C40           -2.4325     7.3679    -1.7475 C.ar    
  41 C41           -2.2385     8.1117    -0.5985 C.ar    
  42 C42           -2.2674     7.4940     0.6378 C.ar    
  43 C43           -2.4942     6.1332     0.7254 C.ar    
  44 H44           -0.9992    -0.7742    -1.0293 H       
  45 H45            1.5253    -0.7801     0.6154 H       
  46 H46            1.1928    -1.5615    -0.9651 H       
  47 H47            2.7076     0.7013    -0.8700 H       
  48 H48            1.4903     0.5022    -2.1750 H       
  49 H49            0.7817     2.5765    -1.1704 H       
  50 H50            1.2164     2.0229     0.4756 H       
  51 H51           -1.6298    -4.7277     2.5165 H       
  52 H52           -3.3686    -4.2939     2.6041 H       
  53 H53           -2.2880    -5.0657     0.2249 H       
  54 H54           -3.4536    -3.7005     0.2692 H       
  55 H55           -1.5452    -2.6578    -0.7594 H       
  56 H56           -0.3926    -3.5921     0.2424 H       
  57 H57           -0.1484    -3.1243     3.3818 H       
  58 H58           -0.7364    -1.5017     3.8174 H       
  59 H59           -1.0397    -5.1027     4.4709 H       
  60 H60           -2.0996    -6.0291     6.4912 H       
  61 H61           -3.3335    -4.5483     8.0235 H       
  62 H62           -3.5068    -2.1409     7.5359 H       
  63 H63           -2.4398    -1.2131     5.5200 H       
  64 H64           -4.4858    -2.8075     1.5767 H       
  65 H65           -5.2867    -0.1853     2.5673 H       
  66 H66           -7.4302    -0.6884     1.4440 H       
  67 H67           -6.5469    -0.9585    -0.8572 H       
  68 H68           -5.5284     0.1505     0.0921 H       
  69 H69           -4.9941    -1.5229    -0.1949 H       
  70 H70           -7.2912    -1.4987     6.1708 H       
  71 H71           -8.8895    -0.9776     5.5858 H       
  72 H72           -8.2928    -2.6115     5.2080 H       
  73 H73           -8.6481    -4.8952     1.1547 H       
  74 H74           -9.6729    -4.2798    -0.1641 H       
  75 H75           -7.9942    -4.7700    -0.4961 H       
  76 H76           -3.4773     3.5691    -1.2068 H       
  77 H77           -3.5049     3.6876     0.5690 H       
  78 H78           -2.8067     5.4253    -2.5577 H       
  79 H79           -2.4100     7.8505    -2.7134 H       
  80 H80           -2.0639     9.1753    -0.6668 H       
  81 H81           -2.1154     8.0750     1.5354 H       
  82 H82           -2.5204     5.6512     1.6916 H       
@<TRIPOS>BOND
   1    1    2 1
   2    1    5 1
   3    1    6 am
   4    2    3 1
   5    2    9 1
   6    2   44 1
   7    3    4 1
   8    3   45 1
   9    3   46 1
  10    4    5 1
  11    4   47 1
  12    4   48 1
  13    5   49 1
  14    5   50 1
  15    6    7 2
  16    6    8 1
  17    8   37 1
  18    9   10 2
  19    9   11 am
  20   11   12 1
  21   11   15 1
  22   12   13 1
  23   12   16 1
  24   12   23 1
  25   13   14 1
  26   13   51 1
  27   13   52 1
  28   14   15 1
  29   14   53 1
  30   14   54 1
  31   15   55 1
  32   15   56 1
  33   16   17 1
  34   16   57 1
  35   16   58 1
  36   17   18 ar
  37   17   22 ar
  38   18   19 ar
  39   18   59 1
  40   19   20 ar
  41   19   60 1
  42   20   21 ar
  43   20   61 1
  44   21   22 ar
  45   21   62 1
  46   22   63 1
  47   23   24 am
  48   23   25 2
  49   24   27 1
  50   24   64 1
  51   26   30 2
  52   26   31 1
  53   26   27 1
  54   27   28 1
  55   27   65 1
  56   28   29 1
  57   28   33 1
  58   28   66 1
  59   29   67 1
  60   29   68 1
  61   29   69 1
  62   31   32 1
  63   32   70 1
  64   32   71 1
  65   32   72 1
  66   33   34 1
  67   34   35 2
  68   34   36 1
  69   36   73 1
  70   36   74 1
  71   36   75 1
  72   37   38 1
  73   37   76 1
  74   37   77 1
  75   38   39 ar
  76   38   43 ar
  77   39   40 ar
  78   39   78 1
  79   40   41 ar
  80   40   79 1
  81   41   42 ar
  82   41   80 1
  83   42   43 ar
  84   42   81 1
  85   43   82 1

#	End of record

