#	Name: ASD01915953
#	Creating user name:	WinNT
#	Creation time:	15. 06. 2019 20:06

#	Modifying user name:	WinNT
#	Modification time:	15. 06. 2019 20:06

#	Program:	/corina/corina34_cracker 3.40 0067  02.08.2006

@<TRIPOS>MOLECULE
ASD01915953
  39   42    0    0    0
SMALL
NO_CHARGES


@<TRIPOS>ATOM
   1 C1            -0.0020     1.4616     0.2212 C.2     
   2 C2             0.0655     0.1135    -0.0244 C.2     
   3 C3            -1.2090    -0.6736    -0.2832 C.3     
   4 C4            -2.3596    -0.0118     0.4725 C.3     
   5 N5            -2.4034     1.4321     0.2717 N.am    
   6 C6            -1.2783     2.1842     0.2657 C.2     
   7 O7            -1.3229     3.3999     0.2956 O.2     
   8 S8             1.6229     2.0669     0.4611 S.3     
   9 C9             2.2501     0.4925     0.2251 C.2     
  10 N10            1.2912    -0.3461    -0.0067 N.2     
  11 O11            4.2833     0.2607    -1.0243 O.3     
  12 C12            5.6055    -0.0292    -1.1503 C.ar    
  13 C13            6.2239     0.0740    -2.3876 C.ar    
  14 C14            6.3387    -0.4229    -0.0407 C.ar    
  15 C15            7.6823    -0.7173    -0.1702 C.ar    
  16 C16            8.2971    -0.6189    -1.4068 C.ar    
  17 C17            7.5676    -0.2210    -2.5143 C.ar    
  18 C18            3.7125     0.1327     0.2795 C.3     
  19 C19           -3.6364     2.0538     0.0805 C.ar    
  20 N20           -3.6795     3.3104    -0.3320 N.ar    
  21 C21           -4.8246     3.9368    -0.5257 C.ar    
  22 C22           -6.0293     3.2961    -0.3017 C.ar    
  23 C23           -6.0262     1.9753     0.1323 C.ar    
  24 C24           -4.8088     1.3455     0.3198 C.ar    
  25 F25            9.6112    -0.9062    -1.5319 F       
  26 F26           -7.1964     3.9464    -0.5021 F       
  27 H27           -1.4267    -0.6753    -1.3513 H       
  28 H28           -1.0831    -1.6980     0.0674 H       
  29 H29           -3.3002    -0.4438     0.1310 H       
  30 H30           -2.2459    -0.2163     1.5370 H       
  31 H31            5.6552     0.3844    -3.2517 H       
  32 H32            5.8595    -0.4991     0.9242 H       
  33 H33            8.2534    -1.0239     0.6937 H       
  34 H34            8.0484    -0.1447    -3.4784 H       
  35 H35            4.2263     0.8031     0.9685 H       
  36 H36            3.8211    -0.8957     0.6243 H       
  37 H37           -4.8209     4.9628    -0.8629 H       
  38 H38           -6.9530     1.4518     0.3150 H       
  39 H39           -4.7694     0.3200     0.6562 H       
@<TRIPOS>BOND
   1    1    2 2
   2    1    8 1
   3    1    6 1
   4    2    3 1
   5    2   10 1
   6    3    4 1
   7    3   27 1
   8    3   28 1
   9    4    5 1
  10    4   29 1
  11    4   30 1
  12    5    6 am
  13    5   19 1
  14    6    7 2
  15    8    9 1
  16    9   10 2
  17    9   18 1
  18   11   12 1
  19   11   18 1
  20   12   13 ar
  21   12   14 ar
  22   13   17 ar
  23   13   31 1
  24   14   15 ar
  25   14   32 1
  26   15   16 ar
  27   15   33 1
  28   16   17 ar
  29   16   25 1
  30   17   34 1
  31   18   35 1
  32   18   36 1
  33   19   20 ar
  34   19   24 ar
  35   20   21 ar
  36   21   22 ar
  37   21   37 1
  38   22   23 ar
  39   22   26 1
  40   23   24 ar
  41   23   38 1
  42   24   39 1

#	End of record

