#	Name: ASD01916079
#	Creating user name:	WinNT
#	Creation time:	15. 06. 2019 20:06

#	Modifying user name:	WinNT
#	Modification time:	15. 06. 2019 20:06

#	Program:	/corina/corina34_cracker 3.40 0067  02.08.2006

@<TRIPOS>MOLECULE
ASD01916079
  44   47    0    0    0
SMALL
NO_CHARGES


@<TRIPOS>ATOM
   1 C1            -0.0169     1.3974     0.0097 C.ar    
   2 C2             0.0021    -0.0041     0.0020 C.ar    
   3 C3            -1.2070    -0.6758     0.0095 C.ar    
   4 C4            -2.3852     0.0496     0.0241 C.ar    
   5 C5            -3.7040    -0.6796     0.0328 C.3     
   6 C6             1.2059     2.1425     0.0021 C.1     
   7 C7             2.2084     2.7534    -0.0042 C.1     
   8 C8             3.4313     3.4985    -0.0119 C.ar    
   9 C9             3.4019     4.8954    -0.0041 C.ar    
  10 C10            5.8345     3.5576    -0.0283 C.ar    
  11 C11            4.5832     5.6078    -0.0111 C.ar    
  12 N12           -2.3736     1.3688     0.0311 N.ar    
  13 C13           -1.2496     2.0547     0.0192 C.ar    
  14 C14            4.6592     2.8319    -0.0214 C.ar    
  15 C15            5.7962     4.9432    -0.0262 C.ar    
  16 C16           -3.6014    -1.9640    -0.7576 C.2     
  17 N17           -3.5078    -3.0135     0.0736 N.am    
  18 C18           -3.5534    -2.5994     1.4808 C.3     
  19 C19           -4.0595    -1.1310     1.4639 C.3     
  20 H20           -4.4911    -0.0448    -0.3740 H       
  21 C21           -4.6361    -3.4172     2.2083 C.3     
  22 C22           -5.7582    -2.4310     2.5906 C.3     
  23 C23           -5.5949    -1.2617     1.5880 C.3     
  24 H24           -3.6078    -0.5078     2.2356 H       
  25 H25           -2.5773    -2.6854     1.9583 H       
  26 C26           -3.3761    -4.4035    -0.3699 C.3     
  27 O27           -3.6039    -2.0358    -1.9682 O.2     
  28 F28            7.0232     2.9158    -0.0426 F       
  29 H29            0.9365    -0.5454    -0.0098 H       
  30 H30           -1.2312    -1.7555     0.0035 H       
  31 H31            2.4560     5.4165     0.0070 H       
  32 H32            4.5608     6.6876    -0.0051 H       
  33 H33           -1.2809     3.1342     0.0258 H       
  34 H34            4.6893     1.7523    -0.0229 H       
  35 H35            6.7177     5.5065    -0.0312 H       
  36 H36           -5.0280    -4.1892     1.5461 H       
  37 H37           -4.2185    -3.8728     3.1062 H       
  38 H38           -6.7349    -2.9005     2.4732 H       
  39 H39           -5.6239    -2.0783     3.6131 H       
  40 H40           -6.0295    -0.3459     1.9886 H       
  41 H41           -6.0403    -1.5131     0.6254 H       
  42 H42           -3.3670    -4.4380    -1.4593 H       
  43 H43           -2.4455    -4.8210     0.0146 H       
  44 H44           -4.2178    -4.9858     0.0051 H       
@<TRIPOS>BOND
   1    1    2 ar
   2    1    6 1
   3    1   13 ar
   4    2    3 ar
   5    2   29 1
   6    3    4 ar
   7    3   30 1
   8    4   12 ar
   9    4    5 1
  10    5   16 1
  11    5   19 1
  12    5   20 1
  13    6    7 3
  14    7    8 1
  15    8    9 ar
  16    8   14 ar
  17    9   11 ar
  18    9   31 1
  19   10   15 ar
  20   10   28 1
  21   10   14 ar
  22   11   15 ar
  23   11   32 1
  24   12   13 ar
  25   13   33 1
  26   14   34 1
  27   15   35 1
  28   16   17 am
  29   16   27 2
  30   17   18 1
  31   17   26 1
  32   18   19 1
  33   18   21 1
  34   18   25 1
  35   19   24 1
  36   19   23 1
  37   21   22 1
  38   21   36 1
  39   21   37 1
  40   22   23 1
  41   22   38 1
  42   22   39 1
  43   23   40 1
  44   23   41 1
  45   26   42 1
  46   26   43 1
  47   26   44 1

#	End of record

