#	Name: ASD01890032
#	Creating user name:	WinNT
#	Creation time:	15. 06. 2019 19:50

#	Modifying user name:	WinNT
#	Modification time:	15. 06. 2019 19:50

#	Program:	/corina/corina34_cracker 3.40 0067  02.08.2006

@<TRIPOS>MOLECULE
ASD01890032
  42   44    0    0    0
SMALL
NO_CHARGES


@<TRIPOS>ATOM
   1 C1            -0.0184     1.5028     0.0103 C.2     
   2 N2             1.3897    -0.4735    -0.0138 N.pl3   
   3 C3             0.0021    -0.0041     0.0020 C.3     
   4 O4             1.0197     2.1211     0.0037 O.2     
   5 O5            -1.1898     2.1580     0.0194 O.3     
   6 C6             2.0631    -0.7040     1.1889 C.ar    
   7 C7             1.4180    -0.4883     2.3999 C.ar    
   8 C8             2.0859    -0.7168     3.5869 C.ar    
   9 C9             3.3967    -1.1602     3.5705 C.ar    
  10 C10            4.0420    -1.3755     2.3655 C.ar    
  11 C11            3.3769    -1.1545     1.1754 C.ar    
  12 Cl12           4.2332    -1.4464     5.0645 Cl      
  13 C13            2.0714    -0.7015    -1.2903 C.3     
  14 C14            2.7606     0.5662    -1.7251 C.2     
  15 N15            2.1938     1.5340    -2.3846 N.2     
  16 C16            3.0974     2.5217    -2.6126 C.ar    
  17 C17            4.3110     2.1070    -2.0384 C.ar    
  18 N18            4.0641     0.8678    -1.4802 N.pl3   
  19 C19            3.0292     3.7588    -3.2584 C.ar    
  20 C20            4.1493     4.5574    -3.3258 C.ar    
  21 C21            5.3459     4.1425    -2.7566 C.ar    
  22 C22            5.4294     2.9249    -2.1155 C.ar    
  23 Cl23           4.0645     6.0942    -4.1288 Cl      
  24 C24           -1.1335     3.6089     0.0270 C.3     
  25 C25           -2.5551     4.1744     0.0369 C.3     
  26 H26           -0.4983    -0.3791     0.8948 H       
  27 H27           -0.5153    -0.3696    -0.8850 H       
  28 H28            0.3951    -0.1419     2.4132 H       
  29 H29            1.5849    -0.5489     4.5288 H       
  30 H30            5.0652    -1.7208     2.3556 H       
  31 H31            3.8793    -1.3277     0.2352 H       
  32 H32            2.8101    -1.4941    -1.1713 H       
  33 H33            1.3415    -0.9953    -2.0446 H       
  34 H34            4.7025     0.3145    -1.0034 H       
  35 H35            2.1017     4.0874    -3.7035 H       
  36 H36            6.2172     4.7779    -2.8166 H       
  37 H37            6.3630     2.6082    -1.6747 H       
  38 H38           -0.6017     3.9472     0.9164 H       
  39 H39           -0.6102     3.9569    -0.8636 H       
  40 H40           -3.0869     3.8361    -0.8525 H       
  41 H41           -3.0784     3.8265     0.9275 H       
  42 H42           -2.5128     5.2636     0.0426 H       
@<TRIPOS>BOND
   1    1    3 1
   2    1    4 2
   3    1    5 1
   4    2    3 1
   5    2    6 1
   6    2   13 1
   7    3   26 1
   8    3   27 1
   9    5   24 1
  10    6    7 ar
  11    6   11 ar
  12    7    8 ar
  13    7   28 1
  14    8    9 ar
  15    8   29 1
  16    9   10 ar
  17    9   12 1
  18   10   11 ar
  19   10   30 1
  20   11   31 1
  21   13   14 1
  22   13   32 1
  23   13   33 1
  24   14   15 2
  25   14   18 1
  26   15   16 1
  27   16   17 ar
  28   16   19 ar
  29   17   18 1
  30   17   22 ar
  31   18   34 1
  32   19   20 ar
  33   19   35 1
  34   20   21 ar
  35   20   23 1
  36   21   22 ar
  37   21   36 1
  38   22   37 1
  39   24   25 1
  40   24   38 1
  41   24   39 1
  42   25   40 1
  43   25   41 1
  44   25   42 1

#	End of record

