#	Name: ASD01900545
#	Creating user name:	WinNT
#	Creation time:	15. 06. 2019 19:52

#	Modifying user name:	WinNT
#	Modification time:	15. 06. 2019 19:52

#	Program:	/corina/corina34_cracker 3.40 0067  02.08.2006

@<TRIPOS>MOLECULE
ASD01900545
  41   44    0    0    0
SMALL
NO_CHARGES


@<TRIPOS>ATOM
   1 S1            -0.7360    -1.4829     1.1707 S.3     
   2 C2            -0.0734    -0.3396     0.0890 C.2     
   3 N3             1.1985    -0.5014    -0.0163 N.2     
   4 C4             1.7202    -1.4912     0.7130 C.2     
   5 C5             0.8069    -2.1643     1.4487 C.2     
   6 C6             3.1557    -1.8190     0.7156 C.2     
   7 O7             3.5694    -2.7340     1.4021 O.2     
   8 N8             4.0113    -1.1052    -0.0427 N.am    
   9 C9             5.3870    -1.3520     0.0332 C.ar    
  10 C10            5.8508    -2.6473     0.2244 C.ar    
  11 C11            7.2083    -2.8904     0.2988 C.ar    
  12 C12            8.1096    -1.8391     0.1823 C.ar    
  13 C13            7.6456    -0.5453    -0.0087 C.ar    
  14 C14            6.2885    -0.3027    -0.0883 C.ar    
  15 C15           11.6740    -2.4936    -0.2621 C.3     
  16 C16           12.2534    -3.8801    -0.5586 C.3     
  17 C17           13.4915    -4.0927     0.3181 C.3     
  18 C18           13.1074    -4.0880     1.7979 C.3     
  19 C19           12.5202    -2.7195     2.1763 C.3     
  20 N20           11.4725    -2.4083     1.2006 N.am    
  21 C21           10.1965    -2.0682     1.3983 C.2     
  22 N22            9.4894    -2.0858     0.2583 N.am    
  23 C23           10.2687    -2.3710    -0.8066 C.2     
  24 O24            9.7308    -1.7775     2.4826 O.2     
  25 O25            9.9155    -2.5011    -1.9591 O.2     
  26 Cl26           7.7887    -4.5090     0.5383 Cl      
  27 H27           -0.6430     0.4143    -0.4342 H       
  28 H28            1.0177    -2.9959     2.1048 H       
  29 H29            3.6737    -0.4204    -0.6410 H       
  30 H30            5.1500    -3.4640     0.3152 H       
  31 H31            8.3462     0.2716    -0.0992 H       
  32 H32            5.9280     0.7038    -0.2411 H       
  33 H33           12.3293    -1.7016    -0.6245 H       
  34 H34           11.5092    -4.6435    -0.3317 H       
  35 H35           12.5348    -3.9416    -1.6098 H       
  36 H36           13.9490    -5.0500     0.0683 H       
  37 H37           14.2073    -3.2926     0.1297 H       
  38 H38           12.3652    -4.8647     1.9824 H       
  39 H39           13.9929    -4.2826     2.4030 H       
  40 H40           12.0925    -2.7638     3.1779 H       
  41 H41           13.2996    -1.9585     2.1386 H       
@<TRIPOS>BOND
   1    1    2 1
   2    1    5 1
   3    2    3 2
   4    2   27 1
   5    3    4 1
   6    4    5 2
   7    4    6 1
   8    5   28 1
   9    6    7 2
  10    6    8 am
  11    8    9 1
  12    8   29 1
  13    9   10 ar
  14    9   14 ar
  15   10   11 ar
  16   10   30 1
  17   11   12 ar
  18   11   26 1
  19   12   13 ar
  20   12   22 1
  21   13   14 ar
  22   13   31 1
  23   14   32 1
  24   15   16 1
  25   15   20 1
  26   15   23 1
  27   15   33 1
  28   16   17 1
  29   16   34 1
  30   16   35 1
  31   17   18 1
  32   17   36 1
  33   17   37 1
  34   18   19 1
  35   18   38 1
  36   18   39 1
  37   19   20 1
  38   19   40 1
  39   19   41 1
  40   20   21 am
  41   21   22 am
  42   21   24 2
  43   22   23 am
  44   23   25 2

#	End of record

