#	Name: ASD03731732
#	Creating user name:	WinNT
#	Creation time:	15. 06. 2019 20:46

#	Modifying user name:	WinNT
#	Modification time:	15. 06. 2019 20:46

#	Program:	/corina/corina34_cracker 3.40 0067  02.08.2006

@<TRIPOS>MOLECULE
ASD03731732
  33   34    0    0    0
SMALL
NO_CHARGES


@<TRIPOS>ATOM
   1 C1             0.7581     1.4154    -0.4020 C.2     
   2 C2             0.5737    -0.0456    -0.3015 C.ar    
   3 C3             1.5327    -0.9110    -0.8346 C.ar    
   4 C4             1.3573    -2.2733    -0.7385 C.ar    
   5 C5             0.2278    -2.7882    -0.1126 C.ar    
   6 C6            -0.7285    -1.9305     0.4190 C.ar    
   7 C7            -0.5575    -0.5670     0.3319 C.ar    
   8 O8             1.7454     1.8673    -0.9490 O.2     
   9 N9            -0.1706     2.2485     0.1078 N.am    
  10 S10            0.0363     3.8876    -0.0048 S.o2    
  11 O11           -1.1025     4.4303     0.6494 O.2     
  12 O12            1.3462     4.1109     0.4987 O.2     
  13 C13           -0.0285     4.2307    -1.7849 C.3     
  14 O14            0.0581    -4.1313    -0.0206 O.3     
  15 C15            0.5843    -4.7685     1.0581 C.ar    
  16 C16            1.1756    -4.0358     2.0770 C.ar    
  17 C17            1.7111    -4.6860     3.1748 C.ar    
  18 C18            1.6570    -6.0671     3.2567 C.ar    
  19 C19            1.0675    -6.7997     2.2403 C.ar    
  20 C20            0.5257    -6.1519     1.1442 C.ar    
  21 F21            1.0160    -8.1473     2.3216 F       
  22 F22            2.2874    -3.9729     4.1670 F       
  23 H23            2.4101    -0.5118    -1.3216 H       
  24 H24            2.0981    -2.9428    -1.1502 H       
  25 H25           -1.6047    -2.3342     0.9045 H       
  26 H26           -1.2987     0.0987     0.7491 H       
  27 H27           -0.9602     1.8879     0.5407 H       
  28 H28           -0.9934     3.9142    -2.1811 H       
  29 H29            0.1005     5.2998    -1.9538 H       
  30 H30            0.7683     3.6844    -2.2895 H       
  31 H31            1.2183    -2.9585     2.0132 H       
  32 H32            2.0752    -6.5735     4.1140 H       
  33 H33            0.0617    -6.7232     0.3538 H       
@<TRIPOS>BOND
   1    1    2 1
   2    1    8 2
   3    1    9 am
   4    2    3 ar
   5    2    7 ar
   6    3    4 ar
   7    3   23 1
   8    4    5 ar
   9    4   24 1
  10    5    6 ar
  11    5   14 1
  12    6    7 ar
  13    6   25 1
  14    7   26 1
  15    9   10 am
  16    9   27 1
  17   10   11 2
  18   10   12 2
  19   10   13 1
  20   13   28 1
  21   13   29 1
  22   13   30 1
  23   14   15 1
  24   15   16 ar
  25   15   20 ar
  26   16   17 ar
  27   16   31 1
  28   17   18 ar
  29   17   22 1
  30   18   19 ar
  31   18   32 1
  32   19   20 ar
  33   19   21 1
  34   20   33 1

#	End of record

