#	Name: ASD01880312
#	Creating user name:	WinNT
#	Creation time:	15. 06. 2019 19:40

#	Modifying user name:	WinNT
#	Modification time:	15. 06. 2019 19:40

#	Program:	/corina/corina34_cracker 3.40 0067  02.08.2006

@<TRIPOS>MOLECULE
ASD01880312
  36   38    0    0    0
SMALL
NO_CHARGES


@<TRIPOS>ATOM
   1 C1            -0.0214     1.3619     0.0132 C.2     
   2 C2            -0.0130     0.0057     0.0735 C.2     
   3 N3            -1.1789    -0.6941     0.0857 N.am    
   4 C4            -2.3646    -0.0579     0.0383 C.2     
   5 C5            -2.4101     1.3448    -0.0251 C.2     
   6 C6            -1.2443     2.0526    -0.0318 C.2     
   7 O7            -3.4022    -0.7013     0.0501 O.2     
   8 C8            -1.1445    -2.1572     0.1507 C.3     
   9 C9            -1.1553    -2.5965     1.5922 C.ar    
  10 C10           -2.3571    -2.8268     2.2353 C.ar    
  11 C11           -2.3677    -3.2297     3.5574 C.ar    
  12 C12           -1.1752    -3.4024     4.2372 C.ar    
  13 C13            0.0273    -3.1717     3.5930 C.ar    
  14 C14            0.0368    -2.7743     2.2693 C.ar    
  15 Cl15          -1.1877    -3.9078     5.8979 Cl      
  16 O16            1.1518     2.0511     0.0021 O.3     
  17 C17            1.4783     2.7368    -1.1252 C.ar    
  18 C18            2.6056     3.5454    -1.1440 C.ar    
  19 C19            2.9364     4.2413    -2.2906 C.ar    
  20 C20            2.1435     4.1325    -3.4204 C.ar    
  21 C21            1.0182     3.3259    -3.4031 C.ar    
  22 C22            0.6879     2.6243    -2.2598 C.ar    
  23 F23            2.4678     4.8143    -4.5407 F       
  24 H24            0.9283    -0.5223     0.1118 H       
  25 H25           -3.3595     1.8581    -0.0639 H       
  26 H26           -1.2607     3.1314    -0.0802 H       
  27 H27           -2.0173    -2.5643    -0.3597 H       
  28 H28           -0.2381    -2.5212    -0.3333 H       
  29 H29           -3.2880    -2.6916     1.7046 H       
  30 H30           -3.3067    -3.4093     4.0598 H       
  31 H31            0.9586    -3.3064     4.1232 H       
  32 H32            0.9754    -2.5942     1.7663 H       
  33 H33            3.2239     3.6310    -0.2627 H       
  34 H34            3.8139     4.8708    -2.3056 H       
  35 H35            0.4004     3.2423    -4.2850 H       
  36 H36           -0.1897     1.9950    -2.2467 H       
@<TRIPOS>BOND
   1    1    2 2
   2    1   16 1
   3    1    6 1
   4    2    3 1
   5    2   24 1
   6    3    4 am
   7    3    8 1
   8    4    5 1
   9    4    7 2
  10    5    6 2
  11    5   25 1
  12    6   26 1
  13    8    9 1
  14    8   27 1
  15    8   28 1
  16    9   10 ar
  17    9   14 ar
  18   10   11 ar
  19   10   29 1
  20   11   12 ar
  21   11   30 1
  22   12   13 ar
  23   12   15 1
  24   13   14 ar
  25   13   31 1
  26   14   32 1
  27   16   17 1
  28   17   18 ar
  29   17   22 ar
  30   18   19 ar
  31   18   33 1
  32   19   20 ar
  33   19   34 1
  34   20   21 ar
  35   20   23 1
  36   21   22 ar
  37   21   35 1
  38   22   36 1

#	End of record

