#	Name: ASD01148086
#	Creating user name:	WinNT
#	Creation time:	15. 06. 2019 19:02

#	Modifying user name:	WinNT
#	Modification time:	15. 06. 2019 19:02

#	Program:	/corina/corina34_cracker 3.40 0067  02.08.2006

@<TRIPOS>MOLECULE
ASD01148086
  43   46    0    0    0
SMALL
NO_CHARGES


@<TRIPOS>ATOM
   1 C1            -0.0187     1.5258     0.0104 C.3     
   2 C2             0.0021    -0.0041     0.0020 C.3     
   3 C3             0.7421    -0.5109     1.2415 C.3     
   4 O4            -1.3386    -0.4987     0.0122 O.3     
   5 C5             1.7385    -3.2124    -4.6953 C.2     
   6 N6             0.8841    -3.2608    -3.7156 N.2     
   7 C7             1.0040    -2.1469    -2.9476 C.ar    
   8 C8             2.0205    -1.3620    -3.5182 C.ar    
   9 N9             2.4672    -2.0624    -4.6241 N.pl3   
  10 C10            0.3503    -1.6954    -1.7984 C.ar    
  11 C11            0.7074    -0.4901    -1.2379 C.ar    
  12 C12            1.7113     0.2812    -1.8055 C.ar    
  13 C13            2.3667    -0.1497    -2.9397 C.ar    
  14 C14            5.4997    -2.0983    -6.7184 C.ar    
  15 C15            4.5135    -2.5329    -5.8387 C.ar    
  16 C16            3.4783    -1.6654    -5.5044 C.ar    
  17 C17            3.4737    -0.3904    -6.0692 C.ar    
  18 C18            4.4875    -0.0317    -6.9349 C.ar    
  19 N19            5.4556    -0.8754    -7.2325 N.ar    
  20 C20            8.6398    -3.4785    -8.2728 C.ar    
  21 C21            7.6195    -2.5975    -7.9631 C.ar    
  22 C22            6.6140    -3.0081    -7.0809 C.ar    
  23 C23            6.6887    -4.2988    -6.5502 C.ar    
  24 C24            7.7423    -5.1126    -6.9133 C.ar    
  25 N25            8.6708    -4.6880    -7.7485 N.ar    
  26 F26            7.5943    -1.3596    -8.5037 F       
  27 H27            1.0039     1.9031     0.0027 H       
  28 H28           -0.5459     1.8868    -0.8726 H       
  29 H29           -0.5289     1.8773     0.9072 H       
  30 H30            0.2319    -0.1594     2.1383 H       
  31 H31            0.7568    -1.6008     1.2356 H       
  32 H32            1.7647    -0.1336     1.2338 H       
  33 H33           -1.8677    -0.2163    -0.7464 H       
  34 H34            1.8564    -3.9740    -5.4518 H       
  35 H35           -0.4326    -2.2901    -1.3515 H       
  36 H36            1.9816     1.2252    -1.3558 H       
  37 H37            3.1478     0.4551    -3.3763 H       
  38 H38            4.5509    -3.5284    -5.4216 H       
  39 H39            2.6854     0.3088    -5.8323 H       
  40 H40            4.4876     0.9548    -7.3745 H       
  41 H41            9.4185    -3.1735    -8.9561 H       
  42 H42            5.9329    -4.6542    -5.8655 H       
  43 H43            7.8078    -6.1113    -6.5075 H       
@<TRIPOS>BOND
   1    1    2 1
   2    1   27 1
   3    1   28 1
   4    1   29 1
   5    2    3 1
   6    2    4 1
   7    2   11 1
   8    3   30 1
   9    3   31 1
  10    3   32 1
  11    4   33 1
  12    5    6 2
  13    5    9 1
  14    5   34 1
  15    6    7 1
  16    7    8 ar
  17    7   10 ar
  18    8    9 1
  19    8   13 ar
  20    9   16 1
  21   10   11 ar
  22   10   35 1
  23   11   12 ar
  24   12   13 ar
  25   12   36 1
  26   13   37 1
  27   14   15 ar
  28   14   19 ar
  29   14   22 1
  30   15   16 ar
  31   15   38 1
  32   16   17 ar
  33   17   18 ar
  34   17   39 1
  35   18   19 ar
  36   18   40 1
  37   20   21 ar
  38   20   25 ar
  39   20   41 1
  40   21   22 ar
  41   21   26 1
  42   22   23 ar
  43   23   24 ar
  44   23   42 1
  45   24   25 ar
  46   24   43 1

#	End of record

