#	Name: ASD02032011
#	Creating user name:	WinNT
#	Creation time:	15. 06. 2019 20:16

#	Modifying user name:	WinNT
#	Modification time:	15. 06. 2019 20:16

#	Program:	/corina/corina34_cracker 3.40 0067  02.08.2006

@<TRIPOS>MOLECULE
ASD02032011
  32   34    0    0    0
SMALL
NO_CHARGES


@<TRIPOS>ATOM
   1 C1            -0.0171     1.4070     0.0098 C.ar    
   2 C2             0.0021    -0.0041     0.0020 C.ar    
   3 C3            -1.1837    -0.7216     0.0095 C.ar    
   4 C4            -2.4074    -0.0356     0.0248 C.ar    
   5 C5            -2.4162     1.3841     0.0325 C.ar    
   6 C6            -1.1996     2.0876     0.0304 C.ar    
   7 C7            -3.6262    -0.7342     0.0321 C.ar    
   8 C8            -4.8146    -0.0289     0.0468 C.ar    
   9 C9            -4.8112     1.3753     0.0545 C.ar    
  10 C10           -3.6439     2.0700     0.0475 C.ar    
  11 C11           -6.1046    -0.7614     0.0541 C.ar    
  12 O12            1.1534     2.0945     0.0023 O.3     
  13 Br13          -1.2015     3.9786     0.0406 Br      
  14 C14           -7.3079    -0.0585     0.0690 C.ar    
  15 C15           -8.5051    -0.7451     0.0757 C.ar    
  16 C16           -8.5121    -2.1284     0.0679 C.ar    
  17 C17           -7.3207    -2.8312     0.0531 C.ar    
  18 C18           -6.1177    -2.1549     0.0404 C.ar    
  19 C19            1.2914    -0.7194    -0.0146 C.2     
  20 O20            2.3331    -0.0940    -0.0215 O.2     
  21 O21            1.3144    -2.0666    -0.0220 O.3     
  22 H22           -1.1658    -1.8014     0.0031 H       
  23 H23           -3.6344    -1.8141     0.0260 H       
  24 H24           -5.7493     1.9102     0.0660 H       
  25 H25           -3.6587     3.1499     0.0535 H       
  26 H26            1.4841     2.2985    -0.8832 H       
  27 H27           -7.3036     1.0215     0.0755 H       
  28 H28           -9.4382    -0.2015     0.0876 H       
  29 H29           -9.4512    -2.6616     0.0736 H       
  30 H30           -7.3321    -3.9111     0.0470 H       
  31 H31           -5.1882    -2.7046     0.0289 H       
  32 H32            2.1833    -2.4908    -0.0329 H       
@<TRIPOS>BOND
   1    1    2 ar
   2    1   12 1
   3    1    6 ar
   4    2    3 ar
   5    2   19 1
   6    3    4 ar
   7    3   22 1
   8    4    5 ar
   9    4    7 ar
  10    5    6 ar
  11    5   10 ar
  12    6   13 1
  13    7    8 ar
  14    7   23 1
  15    8    9 ar
  16    8   11 1
  17    9   10 ar
  18    9   24 1
  19   10   25 1
  20   11   14 ar
  21   11   18 ar
  22   12   26 1
  23   14   15 ar
  24   14   27 1
  25   15   16 ar
  26   15   28 1
  27   16   17 ar
  28   16   29 1
  29   17   18 ar
  30   17   30 1
  31   18   31 1
  32   19   20 2
  33   19   21 1
  34   21   32 1

#	End of record

