#	Name: ASD01418004
#	Creating user name:	WinNT
#	Creation time:	15. 06. 2019 19:20

#	Modifying user name:	WinNT
#	Modification time:	15. 06. 2019 19:20

#	Program:	/corina/corina34_cracker 3.40 0067  02.08.2006

@<TRIPOS>MOLECULE
ASD01418004
  29   30    0    0    0
SMALL
NO_CHARGES


@<TRIPOS>ATOM
   1 N1             1.0022    -0.2340     0.3587 N.4     
   2 C2             1.5102    -1.5137     0.8710 C.3     
   3 C3             2.0555     0.6798     0.2605 C.ar    
   4 C4             2.7875     0.7662    -0.9093 C.ar    
   5 C5             3.8288     1.6684    -1.0090 C.ar    
   6 C6             4.1398     2.4886     0.0661 C.ar    
   7 C7             3.4033     2.4002     1.2388 C.ar    
   8 C8             2.3599     1.4997     1.3315 C.ar    
   9 O9             5.1639     3.3766    -0.0291 O.3     
  10 C10            5.7875     3.5049    -1.2296 C.ar    
  11 C11            5.3151     4.4150    -2.1644 C.ar    
  12 C12            5.9511     4.5438    -3.3839 C.ar    
  13 C13            7.0573     3.7664    -3.6735 C.ar    
  14 C14            7.5300     2.8587    -2.7438 C.ar    
  15 C15            6.9012     2.7300    -1.5206 C.ar    
  16 H16            0.5933    -0.3752    -0.5529 H       
  17 H17            0.3018     0.1264     0.9893 H       
  18 H18            2.2668    -1.9031     0.1897 H       
  19 H19            1.9519    -1.3612     1.8557 H       
  20 H20            0.6889    -2.2262     0.9475 H       
  21 H21            2.5451     0.1275    -1.7458 H       
  22 H22            4.4007     1.7349    -1.9227 H       
  23 H23            3.6433     3.0375     2.0771 H       
  24 H24            1.7838     1.4334     2.2426 H       
  25 H25            4.4507     5.0219    -1.9389 H       
  26 H26            5.5838     5.2520    -4.1118 H       
  27 H27            7.5526     3.8681    -4.6278 H       
  28 H28            8.3940     2.2524    -2.9727 H       
  29 H29            7.2733     2.0238    -0.7932 H       
@<TRIPOS>BOND
   1    1    2 1
   2    1    3 1
   3    1   16 1
   4    1   17 1
   5    2   18 1
   6    2   19 1
   7    2   20 1
   8    3    4 ar
   9    3    8 ar
  10    4    5 ar
  11    4   21 1
  12    5    6 ar
  13    5   22 1
  14    6    7 ar
  15    6    9 1
  16    7    8 ar
  17    7   23 1
  18    8   24 1
  19    9   10 1
  20   10   11 ar
  21   10   15 ar
  22   11   12 ar
  23   11   25 1
  24   12   13 ar
  25   12   26 1
  26   13   14 ar
  27   13   27 1
  28   14   15 ar
  29   14   28 1
  30   15   29 1

#	End of record

