#	Name: ASD01882855
#	Creating user name:	WinNT
#	Creation time:	15. 06. 2019 19:45

#	Modifying user name:	WinNT
#	Modification time:	15. 06. 2019 19:45

#	Program:	/corina/corina34_cracker 3.40 0067  02.08.2006

@<TRIPOS>MOLECULE
ASD01882855
  55   58    0    0    0
SMALL
NO_CHARGES


@<TRIPOS>ATOM
   1 C1            -0.0159     1.3236     0.0093 C.2     
   2 N2             0.0021    -0.0041     0.0020 N.2     
   3 C3             1.1467    -0.6919    -0.0126 C.2     
   4 C4             2.4186     0.0416    -0.0208 C.2     
   5 C5             2.3638     1.3995    -0.0130 C.2     
   6 N6             1.1378     2.0267     0.0021 N.pl3   
   7 O7            -1.1094     2.1190     0.0184 O.3     
   8 C8             0.8276     3.4676     0.0128 C.3     
   9 C9            -0.7098     3.5155     0.0243 C.3     
  10 C10            3.6116     2.1977    -0.0206 C.2     
  11 O11            3.5564     3.4106    -0.0136 O.2     
  12 O12            4.8074     1.5781    -0.0354 O.3     
  13 O13            1.1357    -1.9126    -0.0187 O.2     
  14 C14           -1.2292     4.2264    -1.2270 C.3     
  15 O15           -2.6564     4.2836    -1.1846 O.3     
  16 C16           -3.2810     4.8879    -2.2294 C.ar    
  17 C17           -4.6651     4.9787    -2.2532 C.ar    
  18 C18           -5.2976     5.5934    -3.3164 C.ar    
  19 C19           -4.5524     6.1180    -4.3563 C.ar    
  20 C20           -3.1728     6.0284    -4.3351 C.ar    
  21 C21           -2.5352     5.4201    -3.2712 C.ar    
  22 C22           -5.2450     6.7881    -5.5149 C.3     
  23 C23           -4.7782     8.2415    -5.6166 C.3     
  24 C24           -5.4814     8.9218    -6.7929 C.3     
  25 C25           -5.1378     8.1839    -8.0884 C.3     
  26 C26           -5.6046     6.7305    -7.9867 C.3     
  27 C27           -4.9014     6.0501    -6.8104 C.3     
  28 C28            5.9878     2.4235    -0.0421 C.3     
  29 C29            7.2423     1.5477    -0.0588 C.3     
  30 H30            3.3644    -0.4797    -0.0324 H       
  31 H31            1.2335     3.9395     0.9076 H       
  32 H32            1.2164     3.9492    -0.8844 H       
  33 H33           -1.0720     4.0122     0.9245 H       
  34 H34           -0.8260     5.2385    -1.2636 H       
  35 H35           -0.9137     3.6773    -2.1141 H       
  36 H36           -5.2477     4.5688    -1.4414 H       
  37 H37           -6.3752     5.6641    -3.3356 H       
  38 H38           -2.5930     6.4382    -5.1488 H       
  39 H39           -1.4574     5.3546    -3.2528 H       
  40 H40           -6.3233     6.7629    -5.3574 H       
  41 H41           -5.0230     8.7672    -4.6937 H       
  42 H42           -3.6999     8.2667    -5.7741 H       
  43 H43           -6.5597     8.8967    -6.6355 H       
  44 H44           -5.1488     9.9573    -6.8654 H       
  45 H45           -5.6387     8.6686    -8.9264 H       
  46 H46           -4.0595     8.2091    -8.2459 H       
  47 H47           -6.6829     6.7053    -7.8292 H       
  48 H48           -5.3598     6.2048    -8.9096 H       
  49 H49           -3.8231     6.0753    -6.9678 H       
  50 H50           -5.2340     5.0147    -6.7379 H       
  51 H51            5.9756     3.0576    -0.9286 H       
  52 H52            5.9926     3.0480     0.8512 H       
  53 H53            7.2375     0.9232    -0.9522 H       
  54 H54            8.1284     2.1824    -0.0639 H       
  55 H55            7.2545     0.9136     0.8277 H       
@<TRIPOS>BOND
   1    1    2 2
   2    1    6 1
   3    1    7 1
   4    2    3 1
   5    3    4 1
   6    3   13 2
   7    4    5 2
   8    4   30 1
   9    5    6 1
  10    5   10 1
  11    6    8 1
  12    7    9 1
  13    8    9 1
  14    8   31 1
  15    8   32 1
  16    9   14 1
  17    9   33 1
  18   10   11 2
  19   10   12 1
  20   12   28 1
  21   14   15 1
  22   14   34 1
  23   14   35 1
  24   15   16 1
  25   16   17 ar
  26   16   21 ar
  27   17   18 ar
  28   17   36 1
  29   18   19 ar
  30   18   37 1
  31   19   20 ar
  32   19   22 1
  33   20   21 ar
  34   20   38 1
  35   21   39 1
  36   22   23 1
  37   22   27 1
  38   22   40 1
  39   23   24 1
  40   23   41 1
  41   23   42 1
  42   24   25 1
  43   24   43 1
  44   24   44 1
  45   25   26 1
  46   25   45 1
  47   25   46 1
  48   26   27 1
  49   26   47 1
  50   26   48 1
  51   27   49 1
  52   27   50 1
  53   28   29 1
  54   28   51 1
  55   28   52 1
  56   29   53 1
  57   29   54 1
  58   29   55 1

#	End of record

