#	Name: ASD01150843
#	Creating user name:	WinNT
#	Creation time:	15. 06. 2019 19:05

#	Modifying user name:	WinNT
#	Modification time:	15. 06. 2019 19:05

#	Program:	/corina/corina34_cracker 3.40 0067  02.08.2006

@<TRIPOS>MOLECULE
ASD01150843
  52   54    0    0    0
SMALL
NO_CHARGES


@<TRIPOS>ATOM
   1 C1            -0.0157     1.3101     0.0092 C.2     
   2 N2             0.0021    -0.0041     0.0020 N.2     
   3 C3             1.2638    -0.4447    -0.0124 C.2     
   4 C4             2.0989     0.6652    -0.0144 C.2     
   5 N5             1.2581     1.7786    -0.0004 N.pl3   
   6 C6             3.5095     0.6665    -0.0272 C.2     
   7 O7             4.1192    -0.3874    -0.0384 O.2     
   8 O8             4.1836     1.8365    -0.0269 O.3     
   9 O9            -1.1295     2.0760     0.0189 O.3     
  10 C10           -2.3855     1.3945     0.0220 C.3     
  11 C11            1.6533     3.1236     0.0030 C.ar    
  12 C12            1.3728     3.9276     1.0996 C.ar    
  13 C13            1.7630     5.2525     1.1011 C.ar    
  14 C14            2.4331     5.7791     0.0096 C.ar    
  15 C15            2.7134     4.9788    -1.0852 C.ar    
  16 C16            2.3307     3.6518    -1.0877 C.ar    
  17 F17            2.8135     7.0754     0.0128 F       
  18 N18            1.6677    -1.7744    -0.0230 N.am    
  19 C19            0.7467    -2.7585    -0.0195 C.2     
  20 C20            1.1758    -4.1713    -0.0308 C.ar    
  21 C21            0.2232    -5.1944    -0.0272 C.ar    
  22 C22            0.6316    -6.5129    -0.0378 C.ar    
  23 C23            1.9812    -6.8222    -0.0518 C.ar    
  24 C24            2.9296    -5.8123    -0.0554 C.ar    
  25 C25            2.5350    -4.4913    -0.0508 C.ar    
  26 O26           -0.4372    -2.4829    -0.0071 O.2     
  27 Cl27           2.4872    -8.4828    -0.0644 Cl      
  28 Cl28          -1.4691    -4.8076    -0.0091 Cl      
  29 C29            5.6106     1.7631    -0.0402 C.3     
  30 C30            6.0715     1.0234    -1.2977 C.3     
  31 C31            6.1941     3.1774    -0.0379 C.3     
  32 C32            6.0941     1.0098     1.2006 C.3     
  33 H33           -3.1950     2.1245     0.0299 H       
  34 H34           -2.4645     0.7742    -0.8708 H       
  35 H35           -2.4552     0.7651     0.9091 H       
  36 H36            0.8496     3.5175     1.9507 H       
  37 H37            1.5450     5.8783     1.9539 H       
  38 H38            3.2355     5.3915    -1.9358 H       
  39 H39            2.5537     3.0267    -1.9397 H       
  40 H40            2.6124    -1.9943    -0.0329 H       
  41 H41           -0.1028    -7.3048    -0.0347 H       
  42 H42            3.9806    -6.0605    -0.0663 H       
  43 H43            3.2758    -3.7054    -0.0585 H       
  44 H44            5.7270     1.5600    -2.1817 H       
  45 H45            7.1600     0.9673    -1.3079 H       
  46 H46            5.6558     0.0157    -1.2995 H       
  47 H47            5.8658     3.7044     0.8580 H       
  48 H48            7.2826     3.1214    -0.0480 H       
  49 H49            5.8497     3.7141    -0.9219 H       
  50 H50            5.6784     0.0022     1.1989 H       
  51 H51            7.1826     0.9538     1.1904 H       
  52 H52            5.7658     1.5368     2.0965 H       
@<TRIPOS>BOND
   1    1    2 2
   2    1    5 1
   3    1    9 1
   4    2    3 1
   5    3    4 2
   6    3   18 1
   7    4    5 1
   8    4    6 1
   9    5   11 1
  10    6    7 2
  11    6    8 1
  12    8   29 1
  13    9   10 1
  14   10   33 1
  15   10   34 1
  16   10   35 1
  17   11   12 ar
  18   11   16 ar
  19   12   13 ar
  20   12   36 1
  21   13   14 ar
  22   13   37 1
  23   14   15 ar
  24   14   17 1
  25   15   16 ar
  26   15   38 1
  27   16   39 1
  28   18   19 am
  29   18   40 1
  30   19   20 1
  31   19   26 2
  32   20   21 ar
  33   20   25 ar
  34   21   22 ar
  35   21   28 1
  36   22   23 ar
  37   22   41 1
  38   23   24 ar
  39   23   27 1
  40   24   25 ar
  41   24   42 1
  42   25   43 1
  43   29   30 1
  44   29   32 1
  45   29   31 1
  46   30   44 1
  47   30   45 1
  48   30   46 1
  49   31   47 1
  50   31   48 1
  51   31   49 1
  52   32   50 1
  53   32   51 1
  54   32   52 1

#	End of record

