#	Name: ASD01810460
#	Creating user name:	WinNT
#	Creation time:	15. 06. 2019 19:24

#	Modifying user name:	WinNT
#	Modification time:	15. 06. 2019 19:24

#	Program:	/corina/corina34_cracker 3.40 0067  02.08.2006

@<TRIPOS>MOLECULE
ASD01810460
  43   46    0    0    0
SMALL
NO_CHARGES


@<TRIPOS>ATOM
   1 C1            -0.0573     1.4630    -0.1865 C.ar    
   2 C2            -0.1311     0.0827    -0.2435 C.ar    
   3 N3             1.1092     2.1908     0.0032 N.3     
   4 C4             2.1958     1.5135     0.6966 C.3     
   5 C5             2.6426     0.3001    -0.1354 C.3     
   6 C6             3.9134    -0.2756     0.4342 C.2     
   7 C7             0.8228     3.4934     0.6191 C.3     
   8 C8             2.1182     4.1976     0.9303 C.ar    
   9 O9             4.0984    -0.2673     1.6282 O.2     
  10 O10            4.8400    -0.7976    -0.3848 O.3     
  11 C11            2.6951     5.0293    -0.0119 C.ar    
  12 C12            3.8826     5.6758     0.2703 C.ar    
  13 C13            4.4968     5.4903     1.5015 C.ar    
  14 C14            3.9150     4.6550     2.4456 C.ar    
  15 C15            2.7247     4.0153     2.1595 C.ar    
  16 N16            5.7024     6.1447     1.7906 N.pl3   
  17 C17           -1.3459    -0.5443    -0.4642 C.ar    
  18 C18           -2.5013     0.1960    -0.6187 C.ar    
  19 C19           -2.4418     1.5758    -0.5513 C.ar    
  20 C20           -1.2362     2.2044    -0.3376 C.ar    
  21 C21            6.4014     6.0520     2.9445 C.2     
  22 C22            7.5003     6.8324     2.8239 C.2     
  23 C23            7.4730     7.4219     1.5552 C.2     
  24 N24            6.3993     7.0057     0.9332 N.2     
  25 S25            1.3032    -0.9269    -0.0332 S.o     
  26 O26            1.1795    -1.3826     1.3071 O.2     
  27 H27            3.0336     2.1997     0.8195 H       
  28 H28            1.8510     1.1779     1.6747 H       
  29 H29            2.7984     0.5963    -1.1727 H       
  30 H30            0.2359     4.1001    -0.0706 H       
  31 H31            0.2601     3.3437     1.5405 H       
  32 H32            5.6386    -1.1549     0.0269 H       
  33 H33            2.2168     5.1732    -0.9694 H       
  34 H34            4.3330     6.3247    -0.4662 H       
  35 H35            4.3907     4.5084     3.4040 H       
  36 H36            2.2716     3.3654     2.8935 H       
  37 H37           -1.3900    -1.6221    -0.5164 H       
  38 H38           -3.4452    -0.2996    -0.7915 H       
  39 H39           -3.3423     2.1608    -0.6664 H       
  40 H40           -1.1985     3.2826    -0.2864 H       
  41 H41            6.1309     5.4616     3.8074 H       
  42 H42            8.2636     6.9751     3.5745 H       
  43 H43            8.2129     8.0999     1.1563 H       
@<TRIPOS>BOND
   1    1    2 ar
   2    1    3 1
   3    1   20 ar
   4    2   25 1
   5    2   17 ar
   6    3    4 1
   7    3    7 1
   8    4    5 1
   9    4   27 1
  10    4   28 1
  11    5   25 1
  12    5    6 1
  13    5   29 1
  14    6    9 2
  15    6   10 1
  16    7    8 1
  17    7   30 1
  18    7   31 1
  19    8   11 ar
  20    8   15 ar
  21   10   32 1
  22   11   12 ar
  23   11   33 1
  24   12   13 ar
  25   12   34 1
  26   13   14 ar
  27   13   16 1
  28   14   15 ar
  29   14   35 1
  30   15   36 1
  31   16   21 1
  32   16   24 1
  33   17   18 ar
  34   17   37 1
  35   18   19 ar
  36   18   38 1
  37   19   20 ar
  38   19   39 1
  39   20   40 1
  40   21   22 2
  41   21   41 1
  42   22   23 1
  43   22   42 1
  44   23   24 2
  45   23   43 1
  46   25   26 2

#	End of record

