#	Name: ASD01883511
#	Creating user name:	WinNT
#	Creation time:	15. 06. 2019 19:46

#	Modifying user name:	WinNT
#	Modification time:	15. 06. 2019 19:46

#	Program:	/corina/corina34_cracker 3.40 0067  02.08.2006

@<TRIPOS>MOLECULE
ASD01883511
  41   43    0    0    0
SMALL
NO_CHARGES


@<TRIPOS>ATOM
   1 N1            -0.0162     1.3417     0.0094 N.am    
   2 C2             0.0021    -0.0041     0.0020 C.2     
   3 C3            -1.2162    -0.7274     0.0102 C.2     
   4 C4            -2.4259    -0.0114     0.0261 C.2     
   5 C5            -2.3786     1.3964     0.0332 C.2     
   6 C6            -1.1850     2.0323     0.0299 C.2     
   7 O7             1.0656    -0.6000    -0.0121 O.2     
   8 C8            -1.2153    -2.1594     0.0021 C.1     
   9 N9            -1.2146    -3.2954    -0.0044 N.1     
  10 C10            1.2512     2.0765     0.0013 C.3     
  11 C11            1.6786     2.3400    -1.4440 C.3     
  12 C12            3.0023     3.1074    -1.4525 C.3     
  13 C13            4.1049     2.2289    -0.8581 C.3     
  14 C14            3.3667     3.4796    -2.8911 C.3     
  15 C15           -3.7222    -0.7219     0.0347 C.ar    
  16 C16           -4.0772    -1.5138     1.1342 C.ar    
  17 C17           -5.2712    -2.1748     1.1541 C.ar    
  18 C18           -6.1471    -2.0665     0.0801 C.ar    
  19 C19           -5.8068    -1.2750    -1.0323 C.ar    
  20 C20           -4.5885    -0.5975    -1.0469 C.ar    
  21 N21           -7.3911    -2.5936    -0.1956 N.pl3   
  22 C22           -7.7663    -2.1311    -1.4191 C.2     
  23 N23           -6.8407    -1.3599    -1.9095 N.2     
  24 H24           -3.2950     1.9676     0.0450 H       
  25 H25           -1.1611     3.1120     0.0354 H       
  26 H26            1.1241     3.0259     0.5214 H       
  27 H27            2.0168     1.4860     0.5046 H       
  28 H28            1.8057     1.3906    -1.9642 H       
  29 H29            0.9131     2.9305    -1.9474 H       
  30 H30            2.9001     4.0147    -0.8572 H       
  31 H31            4.2071     1.3216    -1.4534 H       
  32 H32            5.0479     2.7756    -0.8642 H       
  33 H33            3.8453     1.9637     0.1668 H       
  34 H34            2.5812     4.1055    -3.3146 H       
  35 H35            4.3097     4.0263    -2.8971 H       
  36 H36            3.4689     2.5723    -3.4864 H       
  37 H37           -3.4013    -1.6022     1.9719 H       
  38 H38           -5.5359    -2.7836     2.0060 H       
  39 H39           -4.3159     0.0135    -1.8947 H       
  40 H40           -7.9040    -3.1853     0.3769 H       
  41 H41           -8.6973    -2.3700    -1.9117 H       
@<TRIPOS>BOND
   1    1    2 am
   2    1   10 1
   3    1    6 1
   4    2    3 1
   5    2    7 2
   6    3    4 2
   7    3    8 1
   8    4    5 1
   9    4   15 1
  10    5    6 2
  11    5   24 1
  12    6   25 1
  13    8    9 3
  14   10   11 1
  15   10   26 1
  16   10   27 1
  17   11   12 1
  18   11   28 1
  19   11   29 1
  20   12   13 1
  21   12   14 1
  22   12   30 1
  23   13   31 1
  24   13   32 1
  25   13   33 1
  26   14   34 1
  27   14   35 1
  28   14   36 1
  29   15   16 ar
  30   15   20 ar
  31   16   17 ar
  32   16   37 1
  33   17   18 ar
  34   17   38 1
  35   18   19 ar
  36   18   21 1
  37   19   20 ar
  38   19   23 1
  39   20   39 1
  40   21   22 1
  41   21   40 1
  42   22   23 2
  43   22   41 1

#	End of record

