#	Name: ASD04882467
#	Creating user name:	WinNT
#	Creation time:	15. 06. 2019 20:54

#	Modifying user name:	WinNT
#	Modification time:	15. 06. 2019 20:54

#	Program:	/corina/corina34_cracker 3.40 0067  02.08.2006

@<TRIPOS>MOLECULE
ASD04882467
  74   79    0    0    0
SMALL
NO_CHARGES


@<TRIPOS>ATOM
   1 C1            -0.0152     1.3732    -0.0198 C.ar    
   2 C2            -0.0033    -0.0243    -0.0108 C.ar    
   3 C3            -1.2001    -0.7317    -0.0216 C.ar    
   4 C4            -2.4013    -0.0584    -0.0412 C.ar    
   5 C5            -2.4204     1.3392    -0.0499 C.ar    
   6 C6            -1.2186     2.0527    -0.0338 C.ar    
   7 N7             1.2090    -0.7092     0.0086 N.3     
   8 C8             1.3153    -1.5579     1.2036 C.3     
   9 C9             1.3848    -1.5034    -1.2152 C.3     
  10 C10            2.7596    -2.1756    -1.1909 C.3     
  11 N11            2.8659    -3.0243     0.0041 N.3     
  12 C12            2.6901    -2.2301     1.2280 C.3     
  13 C13           -3.7073     2.0602    -0.0710 C.2     
  14 O14           -3.7230     3.2760    -0.0785 O.2     
  15 N15           -4.8656     1.3713    -0.0819 N.am    
  16 N16            1.1918     2.0848    -0.0089 N.am    
  17 C17            4.0720    -3.7057     0.0234 C.ar    
  18 C18            4.0989    -5.0971     0.1363 C.ar    
  19 C19            5.3264    -5.7300     0.1505 C.ar    
  20 N20            6.4303    -5.0022     0.0573 N.ar    
  21 C21            6.3715    -3.6899    -0.0481 C.ar    
  22 N22            5.2226    -3.0454    -0.0708 N.ar    
  23 C23            1.2321     3.3356     0.4914 C.2     
  24 C24            2.5174     4.0511     0.5843 C.2     
  25 O25            0.2079     3.8739     0.8663 O.2     
  26 C26            2.7093     5.3098     1.0652 C.2     
  27 O27            4.0230     5.5696     0.9689 O.3     
  28 C28            4.6253     4.4947     0.4407 C.2     
  29 N29            3.7363     3.5754     0.2109 N.2     
  30 C30            6.1012     4.3701     0.1629 C.3     
  31 C31            6.7251     5.3764    -0.8063 C.3     
  32 C32            7.0157     5.4766     0.6925 C.3     
  33 C33            2.8206    -5.8885     0.2404 C.3     
  34 C34           -6.1436     2.0873    -0.1028 C.3     
  35 C35           -7.2935     1.0781    -0.1117 C.3     
  36 C36           -8.6081     1.8146    -0.1332 C.2     
  37 C37           -9.5923     1.6507    -1.0377 C.2     
  38 N38           -9.0053     2.7441     0.7484 N.2     
  39 C39          -10.1960     3.1664     0.4214 C.2     
  40 N40          -10.5989     2.5098    -0.6877 N.pl3   
  41 C41          -11.8747     2.6846    -1.3862 C.3     
  42 H42           -1.1878    -1.8116    -0.0149 H       
  43 H43           -3.3293    -0.6107    -0.0503 H       
  44 H44           -1.2303     3.1326    -0.0401 H       
  45 H45            1.1943    -0.9451     2.0969 H       
  46 H46            0.5377    -2.3213     1.1779 H       
  47 H47            0.6080    -2.2662    -1.2685 H       
  48 H48            1.3144    -0.8509    -2.0855 H       
  49 H49            2.8806    -2.7885    -2.0841 H       
  50 H50            3.5372    -1.4122    -1.1651 H       
  51 H51            3.4669    -1.4673     1.2812 H       
  52 H52            2.7605    -2.8826     2.0982 H       
  53 H53           -4.8532     0.4014    -0.0759 H       
  54 H54            1.9983     1.6772    -0.3614 H       
  55 H55            5.3862    -6.8049     0.2368 H       
  56 H56            7.2905    -3.1275    -0.1221 H       
  57 H57            1.9494     5.9734     1.4508 H       
  58 H58            6.4938     3.3533     0.1544 H       
  59 H59            7.5283     5.0217    -1.4520 H       
  60 H60            6.0680     6.1285    -1.2429 H       
  61 H61            6.5497     6.2946     1.2420 H       
  62 H62            8.0101     5.1877     1.0328 H       
  63 H63            2.5281    -6.2382    -0.7496 H       
  64 H64            2.9758    -6.7446     0.8970 H       
  65 H65            2.0335    -5.2550     0.6493 H       
  66 H66           -6.2210     2.7185     0.7824 H       
  67 H67           -6.1978     2.7077    -0.9973 H       
  68 H68           -7.2161     0.4469    -0.9969 H       
  69 H69           -7.2393     0.4576     0.7828 H       
  70 H70           -9.5881     0.9722    -1.8779 H       
  71 H71          -10.7660     3.9149     0.9518 H       
  72 H72          -11.7702     3.4598    -2.1452 H       
  73 H73          -12.1599     1.7463    -1.8620 H       
  74 H74          -12.6433     2.9776    -0.6710 H       
@<TRIPOS>BOND
   1    1    2 ar
   2    1   16 1
   3    1    6 ar
   4    2    3 ar
   5    2    7 1
   6    3    4 ar
   7    3   42 1
   8    4    5 ar
   9    4   43 1
  10    5    6 ar
  11    5   13 1
  12    6   44 1
  13    7    8 1
  14    7    9 1
  15    8   12 1
  16    8   45 1
  17    8   46 1
  18    9   10 1
  19    9   47 1
  20    9   48 1
  21   10   11 1
  22   10   49 1
  23   10   50 1
  24   11   12 1
  25   11   17 1
  26   12   51 1
  27   12   52 1
  28   13   14 2
  29   13   15 am
  30   15   34 1
  31   15   53 1
  32   16   23 am
  33   16   54 1
  34   17   18 ar
  35   17   22 ar
  36   18   19 ar
  37   18   33 1
  38   19   20 ar
  39   19   55 1
  40   20   21 ar
  41   21   22 ar
  42   21   56 1
  43   23   24 1
  44   23   25 2
  45   24   26 2
  46   24   29 1
  47   26   27 1
  48   26   57 1
  49   27   28 1
  50   28   29 2
  51   28   30 1
  52   30   31 1
  53   30   32 1
  54   30   58 1
  55   31   32 1
  56   31   59 1
  57   31   60 1
  58   32   61 1
  59   32   62 1
  60   33   63 1
  61   33   64 1
  62   33   65 1
  63   34   35 1
  64   34   66 1
  65   34   67 1
  66   35   36 1
  67   35   68 1
  68   35   69 1
  69   36   37 2
  70   36   38 1
  71   37   40 1
  72   37   70 1
  73   38   39 2
  74   39   40 1
  75   39   71 1
  76   40   41 1
  77   41   72 1
  78   41   73 1
  79   41   74 1

#	End of record

