#	Name: ASD01911170
#	Creating user name:	WinNT
#	Creation time:	15. 06. 2019 19:57

#	Modifying user name:	WinNT
#	Modification time:	15. 06. 2019 19:57

#	Program:	/corina/corina34_cracker 3.40 0067  02.08.2006

@<TRIPOS>MOLECULE
ASD01911170
  44   46    0    0    0
SMALL
NO_CHARGES


@<TRIPOS>ATOM
   1 N1            -0.0068     1.4098    -0.0031 N.2     
   2 N2            -0.0073     0.0099    -0.0453 N.pl3   
   3 C3             1.2423     1.8243     0.0385 C.2     
   4 C4             2.0818     0.6978     0.0241 C.2     
   5 C5             1.2896    -0.4115    -0.0278 C.2     
   6 C6             1.7531    -1.8166    -0.0589 C.ar    
   7 C7             1.6872     3.2394     0.0916 C.ar    
   8 C8             0.7476     4.2677     0.1012 C.ar    
   9 C9             1.1669     5.5820     0.1506 C.ar    
  10 C10            2.5171     5.8786     0.1900 C.ar    
  11 C11            3.4545     4.8613     0.1807 C.ar    
  12 C12            3.0462     3.5438     0.1377 C.ar    
  13 C13           -1.1921    -0.8502    -0.0985 C.3     
  14 C14           -1.6295    -1.0147    -1.5312 C.2     
  15 O15           -2.7021    -1.7670    -1.8232 O.3     
  16 O16           -1.0146    -0.4696    -2.4170 O.2     
  17 C17           -3.0656    -1.8809    -3.2244 C.3     
  18 C18            0.9277    -2.8151    -0.5761 C.ar    
  19 C19            0.1515     6.6955     0.1611 C.3     
  20 C20            1.3658    -4.1232    -0.6028 C.ar    
  21 C21            2.6206    -4.4455    -0.1177 C.ar    
  22 C22            3.4438    -3.4598     0.3969 C.ar    
  23 C23            3.0196    -2.1471     0.4235 C.ar    
  24 C24            2.9689     7.3154     0.2428 C.3     
  25 H25            3.1615     0.7082     0.0496 H       
  26 H26           -0.3070     4.0371     0.0698 H       
  27 H27            4.5077     5.0985     0.2116 H       
  28 H28            3.7788     2.7503     0.1305 H       
  29 H29           -0.9515    -1.8264     0.3224 H       
  30 H30           -1.9977    -0.3947     0.4774 H       
  31 H31           -3.9472    -2.5147    -3.3207 H       
  32 H32           -3.2844    -0.8910    -3.6247 H       
  33 H33           -2.2382    -2.3227    -3.7796 H       
  34 H34           -0.0524    -2.5648    -0.9545 H       
  35 H35           -0.1168     6.9329     1.1905 H       
  36 H36            0.5758     7.5786    -0.3167 H       
  37 H37           -0.7389     6.3805    -0.3830 H       
  38 H38            0.7276    -4.8972    -1.0030 H       
  39 H39            2.9589    -5.4709    -0.1404 H       
  40 H40            4.4221    -3.7178     0.7749 H       
  41 H41            3.6631    -1.3785     0.8254 H       
  42 H42            3.0545     7.6313     1.2825 H       
  43 H43            3.9382     7.4096    -0.2466 H       
  44 H44            2.2406     7.9443    -0.2692 H       
@<TRIPOS>BOND
   1    1    2 1
   2    1    3 2
   3    2   13 1
   4    2    5 1
   5    3    4 1
   6    3    7 1
   7    4    5 2
   8    4   25 1
   9    5    6 1
  10    6   18 ar
  11    6   23 ar
  12    7    8 ar
  13    7   12 ar
  14    8    9 ar
  15    8   26 1
  16    9   10 ar
  17    9   19 1
  18   10   11 ar
  19   10   24 1
  20   11   12 ar
  21   11   27 1
  22   12   28 1
  23   13   14 1
  24   13   29 1
  25   13   30 1
  26   14   15 1
  27   14   16 2
  28   15   17 1
  29   17   31 1
  30   17   32 1
  31   17   33 1
  32   18   20 ar
  33   18   34 1
  34   19   35 1
  35   19   36 1
  36   19   37 1
  37   20   21 ar
  38   20   38 1
  39   21   22 ar
  40   21   39 1
  41   22   23 ar
  42   22   40 1
  43   23   41 1
  44   24   42 1
  45   24   43 1
  46   24   44 1

#	End of record

