#	Name: ASD02500032
#	Creating user name:	WinNT
#	Creation time:	15. 06. 2019 20:22

#	Modifying user name:	WinNT
#	Modification time:	15. 06. 2019 20:22

#	Program:	/corina/corina34_cracker 3.40 0067  02.08.2006

@<TRIPOS>MOLECULE
ASD02500032
  62   66    0    0    0
SMALL
NO_CHARGES


@<TRIPOS>ATOM
   1 C1             0.9069     0.5900     4.8647 C.ar    
   2 C2             0.0847     1.5008     5.5024 C.ar    
   3 C3             0.2397     2.8556     5.2745 C.ar    
   4 C4             1.2175     3.3066     4.4079 C.ar    
   5 C5             2.0463     2.3988     3.7649 C.ar    
   6 C6             1.8895     1.0338     3.9952 C.ar    
   7 O7             2.6995     0.1391     3.3680 O.3     
   8 C8             2.4809    -1.2442     3.6522 C.3     
   9 N9             3.0369     2.8529     2.8866 N.3     
  10 C10            4.3784     2.5779     3.4184 C.3     
  11 C11            5.4264     2.9224     2.3547 C.3     
  12 N12            5.2048     4.3073     1.9118 N.am    
  13 C13            3.8494     4.6956     1.4931 C.3     
  14 C14            2.8635     4.2813     2.5907 C.3     
  15 C15            6.2171     5.1968     1.8897 C.2     
  16 O16            7.3050     4.8911     2.3388 O.2     
  17 C17            6.0053     6.5413     1.3208 C.ar    
  18 C18            6.6101     7.6549     1.9110 C.ar    
  19 C19            6.4106     8.9078     1.3780 C.ar    
  20 C20            5.6073     9.0670     0.2521 C.ar    
  21 C21            5.0036     7.9599    -0.3380 C.ar    
  22 C22            5.2039     6.7038     0.1869 C.ar    
  23 N23            5.4073    10.3343    -0.2838 N.am    
  24 S24            5.5240    10.5697    -1.9188 S.o2    
  25 O25            5.3847    11.9674    -2.1340 O.2     
  26 C26            7.1708    10.1556    -2.3892 C.ar    
  27 C27            8.2525    10.9189    -1.9169 C.ar    
  28 C28            9.5678    10.5663    -2.3091 C.ar    
  29 C29            9.7672     9.4660    -3.1579 C.ar    
  30 C30            8.6944     8.7500    -3.5948 C.ar    
  31 C31            7.4008     9.0920    -3.2067 C.ar    
  32 O32            4.6782     9.6019    -2.5250 O.2     
  33 N33            8.0574    11.9659    -1.1087 N.ar    
  34 C34            9.0625    12.6813    -0.6658 C.ar    
  35 C35           10.3799    12.3888    -1.0128 C.ar    
  36 C36           10.6497    11.3321    -1.8349 C.ar    
  37 H37            0.7858    -0.4674     5.0482 H       
  38 H38           -0.6809     1.1528     6.1801 H       
  39 H39           -0.4050     3.5632     5.7745 H       
  40 H40            1.3360     4.3654     4.2311 H       
  41 H41            1.4654    -1.5179     3.3661 H       
  42 H42            3.1923    -1.8477     3.0884 H       
  43 H43            2.6184    -1.4222     4.7187 H       
  44 H44            4.5489     3.1855     4.3071 H       
  45 H45            4.4572     1.5223     3.6783 H       
  46 H46            6.4251     2.8297     2.7813 H       
  47 H47            5.3232     2.2457     1.5065 H       
  48 H48            3.8056     5.7752     1.3500 H       
  49 H49            3.5947     4.1893     0.5620 H       
  50 H50            1.8437     4.4611     2.2503 H       
  51 H51            3.0551     4.8652     3.4910 H       
  52 H52            7.2331     7.5321     2.7847 H       
  53 H53            6.8773     9.7685     1.8338 H       
  54 H54            4.3807     8.0867    -1.2111 H       
  55 H55            4.7356     5.8453    -0.2715 H       
  56 H56            5.1994    11.0805     0.3000 H       
  57 H57           10.7655     9.1892    -3.4629 H       
  58 H58            8.8487     7.9037    -4.2477 H       
  59 H59            6.5664     8.5082    -3.5664 H       
  60 H60            8.8642    13.5199    -0.0148 H       
  61 H61           11.1869    12.9971    -0.6320 H       
  62 H62           11.6648    11.0909    -2.1138 H       
@<TRIPOS>BOND
   1    1    2 ar
   2    1    6 ar
   3    1   37 1
   4    2    3 ar
   5    2   38 1
   6    3    4 ar
   7    3   39 1
   8    4    5 ar
   9    4   40 1
  10    5    6 ar
  11    5    9 1
  12    6    7 1
  13    7    8 1
  14    8   41 1
  15    8   42 1
  16    8   43 1
  17    9   10 1
  18    9   14 1
  19   10   11 1
  20   10   44 1
  21   10   45 1
  22   11   12 1
  23   11   46 1
  24   11   47 1
  25   12   13 1
  26   12   15 am
  27   13   14 1
  28   13   48 1
  29   13   49 1
  30   14   50 1
  31   14   51 1
  32   15   16 2
  33   15   17 1
  34   17   18 ar
  35   17   22 ar
  36   18   19 ar
  37   18   52 1
  38   19   20 ar
  39   19   53 1
  40   20   21 ar
  41   20   23 1
  42   21   22 ar
  43   21   54 1
  44   22   55 1
  45   23   24 am
  46   23   56 1
  47   24   25 2
  48   24   26 1
  49   24   32 2
  50   26   27 ar
  51   26   31 ar
  52   27   28 ar
  53   27   33 ar
  54   28   29 ar
  55   28   36 ar
  56   29   30 ar
  57   29   57 1
  58   30   31 ar
  59   30   58 1
  60   31   59 1
  61   33   34 ar
  62   34   35 ar
  63   34   60 1
  64   35   36 ar
  65   35   61 1
  66   36   62 1

#	End of record

