#	Name: ASD02448135
#	Creating user name:	WinNT
#	Creation time:	15. 06. 2019 20:21

#	Modifying user name:	WinNT
#	Modification time:	15. 06. 2019 20:21

#	Program:	/corina/corina34_cracker 3.40 0067  02.08.2006

@<TRIPOS>MOLECULE
ASD02448135
  64   69    0    0    0
SMALL
NO_CHARGES


@<TRIPOS>ATOM
   1 C1            -0.0234     1.3535    -0.0539 C.ar    
   2 C2            -0.0044    -0.0279    -0.0458 C.ar    
   3 C3             1.2069    -0.7075    -0.0373 C.ar    
   4 C4             2.3985     0.0017    -0.0370 C.ar    
   5 C5             2.3767     1.3897    -0.0452 C.ar    
   6 C6             1.1618     2.0636    -0.0536 C.ar    
   7 N7             3.5747     2.1079    -0.0445 N.am    
   8 C8             3.8109     3.4697    -0.5411 C.3     
   9 C9             5.2375     3.8758    -0.3565 C.2     
  10 N10            6.0168     2.9459     0.2134 N.am    
  11 S11            5.0634     1.6179     0.5274 S.o2    
  12 O12            5.6572     4.9618    -0.6962 O.2     
  13 O13            4.9602     1.5004     1.9397 O.2     
  14 O14            5.5082     0.5716    -0.3251 O.2     
  15 N15            1.2248    -2.1094    -0.0286 N.pl3   
  16 C16            1.8565    -2.9190    -0.9345 C.2     
  17 C17            0.6234    -2.9174     0.8838 C.2     
  18 N18            0.8589    -4.1598     0.5668 N.2     
  19 C19            1.6158    -4.1991    -0.5487 C.2     
  20 C20            2.0997    -5.4232    -1.2331 C.ar    
  21 C21            1.7773    -6.6818    -0.7265 C.ar    
  22 C22            2.8731    -5.3194    -2.3877 C.ar    
  23 C23            3.3205    -6.4609    -3.0209 C.ar    
  24 C24            3.0024    -7.7085    -2.5115 C.ar    
  25 C25            2.2302    -7.8182    -1.3682 C.ar    
  26 C26           -0.1834    -2.4529     2.0689 C.3     
  27 C27            0.6977    -2.4100     3.2908 C.ar    
  28 C28            1.4609    -1.2860     3.5508 C.ar    
  29 C29            0.7359    -3.4925     4.1511 C.ar    
  30 C30            1.5403    -3.4584     5.2720 C.ar    
  31 C31            2.3153    -2.3307     5.5361 C.ar    
  32 C32            2.2693    -1.2411     4.6685 C.ar    
  33 C33            3.1820    -2.2881     6.7394 C.ar    
  34 C34            3.9566    -1.1593     7.0020 C.ar    
  35 C35            3.2185    -3.3746     7.6120 C.ar    
  36 C36            4.0246    -3.3331     8.7296 C.ar    
  37 C37            4.8007    -2.2087     8.9866 C.ar    
  38 C38            4.7613    -1.1218     8.1207 C.ar    
  39 Cl39           3.5682    -9.1402    -3.3137 Cl      
  40 Cl40           0.8093    -6.8203     0.7079 Cl      
  41 N41            5.6160    -2.1686    10.1186 N.pl3   
  42 H42           -0.9667     1.8793    -0.0650 H       
  43 H43           -0.9326    -0.5800    -0.0456 H       
  44 H44            3.3416    -0.5246    -0.0301 H       
  45 H45            1.1438     3.1434    -0.0603 H       
  46 H46            3.5624     3.5111    -1.6016 H       
  47 H47            3.1690     4.1639     0.0013 H       
  48 H48            6.9628     3.0322     0.4099 H       
  49 H49            2.4340    -2.6014    -1.7902 H       
  50 H50            3.1217    -4.3470    -2.7865 H       
  51 H51            3.9196    -6.3810    -3.9159 H       
  52 H52            1.9852    -8.7936    -0.9745 H       
  53 H53           -0.5790    -1.4567     1.8711 H       
  54 H54           -1.0085    -3.1442     2.2401 H       
  55 H55            1.4244    -0.4422     2.8777 H       
  56 H56            0.1348    -4.3659     3.9454 H       
  57 H57            1.5688    -4.3038     5.9434 H       
  58 H58            2.8681    -0.3647     4.8682 H       
  59 H59            3.9266    -0.3148     6.3294 H       
  60 H60            2.6155    -4.2482     7.4129 H       
  61 H61            4.0529    -4.1745     9.4061 H       
  62 H62            5.3650    -0.2492     8.3222 H       
  63 H63            5.6409    -2.9250    10.7253 H       
  64 H64            6.1578    -1.3844    10.2986 H       
@<TRIPOS>BOND
   1    1    2 ar
   2    1    6 ar
   3    1   42 1
   4    2    3 ar
   5    2   43 1
   6    3    4 ar
   7    3   15 1
   8    4    5 ar
   9    4   44 1
  10    5    6 ar
  11    5    7 1
  12    6   45 1
  13    7    8 1
  14    7   11 am
  15    8    9 1
  16    8   46 1
  17    8   47 1
  18    9   10 am
  19    9   12 2
  20   10   11 am
  21   10   48 1
  22   11   13 2
  23   11   14 2
  24   15   16 1
  25   15   17 1
  26   16   19 2
  27   16   49 1
  28   17   18 2
  29   17   26 1
  30   18   19 1
  31   19   20 1
  32   20   21 ar
  33   20   22 ar
  34   21   40 1
  35   21   25 ar
  36   22   23 ar
  37   22   50 1
  38   23   24 ar
  39   23   51 1
  40   24   25 ar
  41   24   39 1
  42   25   52 1
  43   26   27 1
  44   26   53 1
  45   26   54 1
  46   27   28 ar
  47   27   29 ar
  48   28   32 ar
  49   28   55 1
  50   29   30 ar
  51   29   56 1
  52   30   31 ar
  53   30   57 1
  54   31   32 ar
  55   31   33 1
  56   32   58 1
  57   33   34 ar
  58   33   35 ar
  59   34   38 ar
  60   34   59 1
  61   35   36 ar
  62   35   60 1
  63   36   37 ar
  64   36   61 1
  65   37   38 ar
  66   37   41 1
  67   38   62 1
  68   41   63 1
  69   41   64 1

#	End of record

