#	Name: ASD01900350
#	Creating user name:	WinNT
#	Creation time:	15. 06. 2019 19:51

#	Modifying user name:	WinNT
#	Modification time:	15. 06. 2019 19:51

#	Program:	/corina/corina34_cracker 3.40 0067  02.08.2006

@<TRIPOS>MOLECULE
ASD01900350
  44   47    0    0    0
SMALL
NO_CHARGES


@<TRIPOS>ATOM
   1 C1            -0.0168     1.3891     0.0097 C.ar    
   2 C2             0.0021    -0.0041     0.0020 C.ar    
   3 C3             1.2224    -0.6606    -0.0132 C.ar    
   4 C4             2.3820     0.0992    -0.0202 C.ar    
   5 C5             2.2884     1.4815    -0.0119 C.ar    
   6 N6             1.1169     2.0792     0.0026 N.ar    
   7 C7            -1.3131     2.1060     0.0197 C.2     
   8 O8            -2.3544     1.4790     0.0212 O.2     
   9 N9            -1.3378     3.4535     0.0271 N.am    
  10 N10           -4.0866     5.7298     0.0525 N.am    
  11 C11           -2.7427     5.4762     0.0448 C.2     
  12 C12           -2.5683     4.1341     0.0367 C.2     
  13 C13           -3.8517     3.5436     0.0395 C.2     
  14 C14           -4.7569     4.5428     0.0492 C.2     
  15 S15           -4.7846     7.2314     0.0702 S.o2    
  16 O16           -6.0849     7.0631     0.6180 O.2     
  17 O17           -3.8183     8.1166     0.6197 O.2     
  18 N18           -3.1896     9.5079    -4.2543 N.am    
  19 C19           -3.4717    10.1996    -5.3735 C.2     
  20 C20           -4.8743    10.2458    -5.9170 C.3     
  21 C21           -5.5703     8.9057    -5.6766 C.3     
  22 C22           -5.3758     8.4874    -4.2423 C.ar    
  23 C23           -6.3684     7.7909    -3.5816 C.ar    
  24 C24           -6.1863     7.4080    -2.2654 C.ar    
  25 C25           -5.0109     7.7211    -1.6072 C.ar    
  26 C26           -4.0146     8.4176    -2.2627 C.ar    
  27 C27           -4.1945     8.8032    -3.5845 C.ar    
  28 O28           -2.5853    10.7930    -5.9508 O.2     
  29 H29           -0.9212    -0.5644     0.0082 H       
  30 H30            1.2690    -1.7395    -0.0191 H       
  31 H31            3.3489    -0.3818    -0.0317 H       
  32 H32            3.1898     2.0763    -0.0170 H       
  33 H33           -0.5068     3.9539     0.0259 H       
  34 H34           -1.9574     6.2177     0.0448 H       
  35 H35           -4.0681     2.4856     0.0351 H       
  36 H36           -5.8302     4.4231     0.0537 H       
  37 H37           -2.2821     9.4948    -3.9120 H       
  38 H38           -5.4308    11.0378    -5.4159 H       
  39 H39           -4.8413    10.4496    -6.9873 H       
  40 H40           -6.6355     9.0074    -5.8839 H       
  41 H41           -5.1425     8.1508    -6.3363 H       
  42 H42           -7.2874     7.5454    -4.0930 H       
  43 H43           -6.9636     6.8633    -1.7502 H       
  44 H44           -3.0972     8.6621    -1.7480 H       
@<TRIPOS>BOND
   1    1    2 ar
   2    1    6 ar
   3    1    7 1
   4    2    3 ar
   5    2   29 1
   6    3    4 ar
   7    3   30 1
   8    4    5 ar
   9    4   31 1
  10    5    6 ar
  11    5   32 1
  12    7    8 2
  13    7    9 am
  14    9   12 1
  15    9   33 1
  16   10   11 1
  17   10   14 1
  18   10   15 am
  19   11   12 2
  20   11   34 1
  21   12   13 1
  22   13   14 2
  23   13   35 1
  24   14   36 1
  25   15   16 2
  26   15   17 2
  27   15   25 1
  28   18   19 am
  29   18   27 1
  30   18   37 1
  31   19   20 1
  32   19   28 2
  33   20   21 1
  34   20   38 1
  35   20   39 1
  36   21   22 1
  37   21   40 1
  38   21   41 1
  39   22   23 ar
  40   22   27 ar
  41   23   24 ar
  42   23   42 1
  43   24   25 ar
  44   24   43 1
  45   25   26 ar
  46   26   27 ar
  47   26   44 1

#	End of record

