#	Name: ASD02038102
#	Creating user name:	WinNT
#	Creation time:	15. 06. 2019 20:16

#	Modifying user name:	WinNT
#	Modification time:	15. 06. 2019 20:16

#	Program:	/corina/corina34_cracker 3.40 0067  02.08.2006

@<TRIPOS>MOLECULE
ASD02038102
  50   53    0    0    0
SMALL
NO_CHARGES


@<TRIPOS>ATOM
   1 C1            -0.0167     1.3800     0.0096 C.ar    
   2 C2             0.0021    -0.0041     0.0020 C.ar    
   3 C3             1.1736     2.0912     0.0021 C.ar    
   4 C4             2.3818     1.4177    -0.0135 C.ar    
   5 C5             2.4008     0.0294    -0.0211 C.ar    
   6 C6             1.2067    -0.6799    -0.0131 C.ar    
   7 N7             3.6206    -0.6537    -0.0373 N.3     
   8 N8             5.6069    -2.4142     0.9926 N.3     
   9 C9             5.8178    -0.9598     0.9982 C.3     
  10 C10            4.4647    -0.2512     1.0963 C.3     
  11 C11            6.8885    -3.1319     0.9756 C.3     
  12 C12            6.6367    -4.6192     0.7197 C.3     
  13 C13            7.9715    -5.3667     0.7020 C.3     
  14 O14            5.8086    -5.1476     1.7576 O.3     
  15 O15            7.7476    -6.7331     0.3483 O.3     
  16 C16            8.8391    -7.5416     0.2866 C.ar    
  17 C17            8.6911    -8.8772    -0.0507 C.ar    
  18 C18            9.8040    -9.7009    -0.1134 C.ar    
  19 C19           11.0676    -9.1800     0.1636 C.ar    
  20 C20           11.2106    -7.8430     0.4998 C.ar    
  21 C21           10.0994    -7.0249     0.5562 C.ar    
  22 F22           -1.1962     2.0387     0.0188 F       
  23 F23            1.1534     3.4420     0.0095 F       
  24 C24            4.7627    -2.8166    -0.1410 C.3     
  25 C25            3.4097    -2.1080    -0.0429 C.3     
  26 O26            9.9654   -11.0142    -0.4080 O.3     
  27 C27           11.2677   -11.3286    -0.3261 C.2     
  28 N28           11.9730   -10.2338     0.0208 N.am    
  29 O29           11.7383   -12.4306    -0.5332 O.2     
  30 H30           -0.9261    -0.5561     0.0083 H       
  31 H31            3.3092     1.9711    -0.0201 H       
  32 H32            1.2200    -1.7598    -0.0186 H       
  33 H33            6.4350    -0.6852     1.8536 H       
  34 H34            6.3187    -0.6615     0.0773 H       
  35 H35            4.6167     0.8279     1.0714 H       
  36 H36            3.9758    -0.5285     2.0302 H       
  37 H37            7.5201    -2.7289     0.1839 H       
  38 H38            7.3871    -3.0079     1.9369 H       
  39 H39            6.1380    -4.7432    -0.2415 H       
  40 H40            8.6361    -4.9064    -0.0291 H       
  41 H41            8.4287    -5.3175     1.6902 H       
  42 H42            6.1904    -5.0709     2.6427 H       
  43 H43            7.7103    -9.2759    -0.2639 H       
  44 H44           12.1897    -7.4410     0.7145 H       
  45 H45           10.2100    -5.9829     0.8178 H       
  46 H46            5.2516    -2.5394    -1.0749 H       
  47 H47            4.6107    -3.8957    -0.1161 H       
  48 H48            2.9088    -2.4064     0.8780 H       
  49 H49            2.7925    -2.3827    -0.8984 H       
  50 H50           12.9334   -10.1864     0.1480 H       
@<TRIPOS>BOND
   1    1    2 ar
   2    1    3 ar
   3    1   22 1
   4    2    6 ar
   5    2   30 1
   6    3    4 ar
   7    3   23 1
   8    4    5 ar
   9    4   31 1
  10    5    6 ar
  11    5    7 1
  12    6   32 1
  13    7   25 1
  14    7   10 1
  15    8    9 1
  16    8   11 1
  17    8   24 1
  18    9   10 1
  19    9   33 1
  20    9   34 1
  21   10   35 1
  22   10   36 1
  23   11   12 1
  24   11   37 1
  25   11   38 1
  26   12   14 1
  27   12   13 1
  28   12   39 1
  29   13   15 1
  30   13   40 1
  31   13   41 1
  32   14   42 1
  33   15   16 1
  34   16   17 ar
  35   16   21 ar
  36   17   18 ar
  37   17   43 1
  38   18   19 ar
  39   18   26 1
  40   19   20 ar
  41   19   28 1
  42   20   21 ar
  43   20   44 1
  44   21   45 1
  45   24   25 1
  46   24   46 1
  47   24   47 1
  48   25   48 1
  49   25   49 1
  50   26   27 1
  51   27   28 am
  52   27   29 2
  53   28   50 1

#	End of record

