#	Name: ASD01913535
#	Creating user name:	WinNT
#	Creation time:	15. 06. 2019 20:01

#	Modifying user name:	WinNT
#	Modification time:	15. 06. 2019 20:01

#	Program:	/corina/corina34_cracker 3.40 0067  02.08.2006

@<TRIPOS>MOLECULE
ASD01913535
  35   37    0    0    0
SMALL
NO_CHARGES


@<TRIPOS>ATOM
   1 C1             0.6225     0.4646     1.3085 C.ar    
   2 C2             0.1938    -0.0491     0.0888 C.ar    
   3 C3             0.9972     0.1142    -1.0309 C.ar    
   4 N4             2.1509     0.7458    -0.9445 N.ar    
   5 C5             2.5861     1.2443     0.1962 C.ar    
   6 C6             1.8416     1.1219     1.3543 C.ar    
   7 C7            -0.9718    -2.0548    -0.1104 C.ar    
   8 C8             0.2351    -2.7480    -0.1348 C.ar    
   9 C9             0.2212    -4.1276    -0.2376 C.ar    
  10 N10           -0.9135    -4.7897    -0.3127 N.ar    
  11 C11           -2.0881    -4.1696    -0.2930 C.ar    
  12 C12           -2.1557    -2.7842    -0.1911 C.ar    
  13 C13           -3.3373    -4.9609    -0.3809 C.2     
  14 N14           -3.2789    -6.3037    -0.4802 N.am    
  15 O15           -0.9945    -0.7018    -0.0048 O.3     
  16 C16           -4.4563    -7.0592    -0.4525 C.ar    
  17 C17           -5.6164    -6.5597    -1.0293 C.ar    
  18 C18           -6.7784    -7.3067    -1.0018 C.ar    
  19 C19           -6.7878    -8.5527    -0.3998 C.ar    
  20 C20           -5.6305    -9.0546     0.1773 C.ar    
  21 C21           -4.4645    -8.3120     0.1469 C.ar    
  22 O22           -4.4149    -4.3992    -0.3633 O.2     
  23 F23           -5.6413   -10.2713     0.7645 F       
  24 F24           -7.9254    -9.2810    -0.3739 F       
  25 H25            0.0180     0.3577     2.1970 H       
  26 H26            0.6740    -0.2806    -1.9827 H       
  27 H27            3.5373     1.7549     0.2259 H       
  28 H28            2.2058     1.5336     2.2839 H       
  29 H29            1.1722    -2.2146    -0.0745 H       
  30 H30            1.1555    -4.6691    -0.2569 H       
  31 H31           -3.1115    -2.2816    -0.1749 H       
  32 H32           -2.4206    -6.7464    -0.5710 H       
  33 H33           -5.6105    -5.5873    -1.4990 H       
  34 H34           -7.6806    -6.9175    -1.4503 H       
  35 H35           -3.5631    -8.7024     0.5958 H       
@<TRIPOS>BOND
   1    1    2 ar
   2    1    6 ar
   3    1   25 1
   4    2    3 ar
   5    2   15 1
   6    3    4 ar
   7    3   26 1
   8    4    5 ar
   9    5    6 ar
  10    5   27 1
  11    6   28 1
  12    7    8 ar
  13    7   12 ar
  14    7   15 1
  15    8    9 ar
  16    8   29 1
  17    9   10 ar
  18    9   30 1
  19   10   11 ar
  20   11   12 ar
  21   11   13 1
  22   12   31 1
  23   13   14 am
  24   13   22 2
  25   14   16 1
  26   14   32 1
  27   16   17 ar
  28   16   21 ar
  29   17   18 ar
  30   17   33 1
  31   18   19 ar
  32   18   34 1
  33   19   20 ar
  34   19   24 1
  35   20   21 ar
  36   20   23 1
  37   21   35 1

#	End of record

