#	Name: ASD01882825
#	Creating user name:	WinNT
#	Creation time:	15. 06. 2019 19:45

#	Modifying user name:	WinNT
#	Modification time:	15. 06. 2019 19:45

#	Program:	/corina/corina34_cracker 3.40 0067  02.08.2006

@<TRIPOS>MOLECULE
ASD01882825
  27   28    0    0    0
SMALL
NO_CHARGES


@<TRIPOS>ATOM
   1 C1             0.0021    -0.0041     0.0020 C.1     
   2 C2            -0.0173     1.4278     0.0099 C.ar    
   3 C3             1.1834     2.1459     0.0023 C.ar    
   4 C4             1.1590     3.5244     0.0094 C.ar    
   5 C5            -0.0552     4.1994     0.0246 C.ar    
   6 C6            -1.2499     3.4894     0.0327 C.ar    
   7 C7            -1.2358     2.1122     0.0194 C.ar    
   8 N8             0.0175    -1.1399    -0.0042 N.1     
   9 Cl9            2.7008     1.3030    -0.0156 Cl      
  10 O10           -0.0747     5.5568     0.0321 O.3     
  11 C11           -1.3570     6.1871     0.0477 C.3     
  12 O12           -0.5956     8.1649    -1.1831 O.3     
  13 C13           -1.1690     9.3442    -1.4946 C.2     
  14 N14           -2.2775     9.5722    -0.8601 N.2     
  15 C15           -2.5483     8.4275     0.0315 C.3     
  16 C16           -1.1784     7.7066     0.0541 C.3     
  17 N17           -0.6290    10.2242    -2.4003 N.pl3   
  18 H18            2.0850     4.0802     0.0036 H       
  19 H19           -2.1912     4.0186     0.0452 H       
  20 H20           -2.1650     1.5620     0.0208 H       
  21 H21           -1.9182     5.8910    -0.8386 H       
  22 H22           -1.9013     5.8814     0.9413 H       
  23 H23           -2.8255     8.7682     1.0291 H       
  24 H24           -3.3209     7.7824    -0.3868 H       
  25 H25           -0.5820     8.0248     0.9092 H       
  26 H26            0.2033    10.0084    -2.8493 H       
  27 H27           -1.0800    11.0616    -2.5909 H       
@<TRIPOS>BOND
   1    1    2 1
   2    1    8 3
   3    2    3 ar
   4    2    7 ar
   5    3    4 ar
   6    3    9 1
   7    4    5 ar
   8    4   18 1
   9    5    6 ar
  10    5   10 1
  11    6    7 ar
  12    6   19 1
  13    7   20 1
  14   10   11 1
  15   11   16 1
  16   11   21 1
  17   11   22 1
  18   12   13 1
  19   12   16 1
  20   13   14 2
  21   13   17 1
  22   14   15 1
  23   15   16 1
  24   15   23 1
  25   15   24 1
  26   16   25 1
  27   17   26 1
  28   17   27 1

#	End of record

