#	Name: ASD01913399
#	Creating user name:	WinNT
#	Creation time:	15. 06. 2019 20:01

#	Modifying user name:	WinNT
#	Modification time:	15. 06. 2019 20:01

#	Program:	/corina/corina34_cracker 3.40 0067  02.08.2006

@<TRIPOS>MOLECULE
ASD01913399
  33   35    0    0    0
SMALL
NO_CHARGES


@<TRIPOS>ATOM
   1 C1            -0.3597    -0.7339    -2.2463 C.ar    
   2 C2            -0.6984    -0.0501    -1.0830 C.ar    
   3 C3            -0.5581     1.3339    -1.0673 C.ar    
   4 N4            -0.1108     1.9461    -2.1512 N.ar    
   5 C5             0.1997     1.2628    -3.2345 C.ar    
   6 N6             0.0805    -0.0486    -3.2886 N.ar    
   7 C7            -1.1682    -2.0752    -0.0312 C.ar    
   8 C8            -0.0508    -2.7923     0.3739 C.ar    
   9 C9            -0.0605    -4.1757     0.3393 C.ar    
  10 C10           -1.1823    -4.8514    -0.0986 C.ar    
  11 C11           -2.3106    -4.1379    -0.5074 C.ar    
  12 C12           -2.2988    -2.7434    -0.4718 C.ar    
  13 C13           -3.5131    -4.8577    -0.9772 C.2     
  14 N14           -3.5217    -6.2050    -1.0115 N.am    
  15 C15           -4.6530    -6.8820    -1.4536 C.ar    
  16 O16           -4.4943    -4.2344    -1.3327 O.2     
  17 O17           -1.1550    -0.7170     0.0097 O.3     
  18 C18           -5.8240    -8.9044    -1.9421 C.ar    
  19 N19           -6.8582    -8.1647    -2.3153 N.ar    
  20 C20           -6.8034    -6.8489    -2.2698 C.ar    
  21 N21           -5.7295    -6.2113    -1.8498 N.ar    
  22 Cl22           1.3418    -5.0641     0.8474 Cl      
  23 C23           -4.6741    -8.2784    -1.4937 C.ar    
  24 F24           -3.5994    -8.9991    -1.1052 F       
  25 H25           -0.4507    -1.8089    -2.2961 H       
  26 H26           -0.8109     1.9002    -0.1831 H       
  27 H27            0.5622     1.7927    -4.1029 H       
  28 H28            0.8294    -2.2687     0.7169 H       
  29 H29           -1.1868    -5.9311    -0.1252 H       
  30 H30           -3.1688    -2.1863    -0.7868 H       
  31 H31           -2.7387    -6.7023    -0.7279 H       
  32 H32           -5.8794    -9.9822    -1.9829 H       
  33 H33           -7.6648    -6.2769    -2.5815 H       
@<TRIPOS>BOND
   1    1    2 ar
   2    1    6 ar
   3    1   25 1
   4    2    3 ar
   5    2   17 1
   6    3    4 ar
   7    3   26 1
   8    4    5 ar
   9    5    6 ar
  10    5   27 1
  11    7    8 ar
  12    7   12 ar
  13    7   17 1
  14    8    9 ar
  15    8   28 1
  16    9   10 ar
  17    9   22 1
  18   10   11 ar
  19   10   29 1
  20   11   12 ar
  21   11   13 1
  22   12   30 1
  23   13   14 am
  24   13   16 2
  25   14   15 1
  26   14   31 1
  27   15   23 ar
  28   15   21 ar
  29   18   19 ar
  30   18   23 ar
  31   18   32 1
  32   19   20 ar
  33   20   21 ar
  34   20   33 1
  35   23   24 1

#	End of record

