#	Name: ASD01815566
#	Creating user name:	WinNT
#	Creation time:	15. 06. 2019 19:33

#	Modifying user name:	WinNT
#	Modification time:	15. 06. 2019 19:33

#	Program:	/corina/corina34_cracker 3.40 0067  02.08.2006

@<TRIPOS>MOLECULE
ASD01815566
  67   72    0    0    0
SMALL
NO_CHARGES


@<TRIPOS>ATOM
   1 C1            -0.0346     1.2906     0.2318 C.ar    
   2 N2            -0.0063    -0.0330     0.2241 N.ar    
   3 C3             1.1099    -0.7198     0.1402 C.ar    
   4 C4             2.3402    -0.0506     0.0536 C.ar    
   5 C5             2.3367     1.3671     0.0598 C.ar    
   6 C6             1.1091     2.0328     0.1518 C.ar    
   7 C7             3.5604    -0.7484    -0.0384 C.ar    
   8 C8             4.7395    -0.0851    -0.1218 C.ar    
   9 C9             4.7905     1.3173    -0.1192 C.ar    
  10 C10            3.6081     2.0750    -0.0301 C.ar    
  11 C11            6.0642     2.0443    -0.2092 C.2     
  12 N12            6.0129     3.3965    -0.1998 N.am    
  13 C13            4.8218     4.0393    -0.1096 C.2     
  14 N14            3.6823     3.4163    -0.0304 N.2     
  15 O15            7.1256     1.4526    -0.2888 O.2     
  16 C16            7.2528     4.1719    -0.2871 C.3     
  17 C17            7.3949     5.0486     0.9587 C.3     
  18 C18            8.6898     5.8584     0.8675 C.3     
  19 C19            8.6499     6.7455    -0.3784 C.3     
  20 C20            8.5078     5.8688    -1.6243 C.3     
  21 C21            7.2129     5.0590    -1.5331 C.3     
  22 O22            7.4322     4.2201     2.1224 O.3     
  23 C23            3.5548    -2.2554    -0.0438 C.3     
  24 N24            3.3219    -2.7491     1.3200 N.3     
  25 C25            2.9464    -4.1687     1.3088 C.3     
  26 C26            2.5713    -4.6096     2.7255 C.3     
  27 C27            3.7653    -4.3856     3.6575 C.3     
  28 C28            4.1668    -2.9086     3.6137 C.3     
  29 C29            4.4957    -2.5170     2.1713 C.3     
  30 C30            3.3826    -4.7619     5.0657 C.ar    
  31 N31            2.1104    -4.9165     5.3760 N.ar    
  32 C32            1.7289    -5.2453     6.5949 C.ar    
  33 C33            2.6588    -5.4403     7.5981 C.ar    
  34 C34            4.0065    -5.2866     7.3096 C.ar    
  35 C35            4.3696    -4.9465     6.0157 C.ar    
  36 C36            4.8972    -5.2164     3.2153 C.1     
  37 N37            5.7706    -5.8575     2.8741 N.1     
  38 H38           -0.9866     1.7963     0.2985 H       
  39 H39            1.0810    -1.7994     0.1381 H       
  40 H40            1.0669     3.1120     0.1590 H       
  41 H41            5.6589    -0.6475    -0.1913 H       
  42 H42            4.8191     5.1193    -0.1046 H       
  43 H43            8.1025     3.4923    -0.3520 H       
  44 H44            6.5452     5.7282     1.0237 H       
  45 H45            8.7911     6.4829     1.7551 H       
  46 H46            9.5395     5.1788     0.8026 H       
  47 H47            7.8002     7.4251    -0.3135 H       
  48 H48            9.5724     7.3224    -0.4434 H       
  49 H49            8.4793     6.5008    -2.5119 H       
  50 H50            9.3575     5.1892    -1.6892 H       
  51 H51            7.1116     4.4345    -2.4207 H       
  52 H52            6.3631     5.7386    -1.4682 H       
  53 H53            7.5213     4.7100     2.9514 H       
  54 H54            2.7617    -2.6134    -0.7002 H       
  55 H55            4.5167    -2.6210    -0.4033 H       
  56 H56            2.0936    -4.3136     0.6456 H       
  57 H57            3.7876    -4.7641     0.9539 H       
  58 H58            1.7213    -4.0241     3.0758 H       
  59 H59            2.3077    -5.6673     2.7196 H       
  60 H60            3.3420    -2.2963     3.9780 H       
  61 H61            5.0432    -2.7510     4.2424 H       
  62 H62            5.3296    -3.1201     1.8123 H       
  63 H63            4.7682    -1.4622     2.1345 H       
  64 H64            0.6774    -5.3631     6.8115 H       
  65 H65            2.3401    -5.7088     8.5945 H       
  66 H66            4.7556    -5.4324     8.0738 H       
  67 H67            5.4099    -4.8190     5.7553 H       
@<TRIPOS>BOND
   1    1    2 ar
   2    1    6 ar
   3    1   38 1
   4    2    3 ar
   5    3    4 ar
   6    3   39 1
   7    4    5 ar
   8    4    7 ar
   9    5    6 ar
  10    5   10 ar
  11    6   40 1
  12    7    8 ar
  13    7   23 1
  14    8    9 ar
  15    8   41 1
  16    9   10 ar
  17    9   11 1
  18   10   14 1
  19   11   12 am
  20   11   15 2
  21   12   13 1
  22   12   16 1
  23   13   14 2
  24   13   42 1
  25   16   17 1
  26   16   21 1
  27   16   43 1
  28   17   18 1
  29   17   22 1
  30   17   44 1
  31   18   19 1
  32   18   45 1
  33   18   46 1
  34   19   20 1
  35   19   47 1
  36   19   48 1
  37   20   21 1
  38   20   49 1
  39   20   50 1
  40   21   51 1
  41   21   52 1
  42   22   53 1
  43   23   24 1
  44   23   54 1
  45   23   55 1
  46   24   25 1
  47   24   29 1
  48   25   26 1
  49   25   56 1
  50   25   57 1
  51   26   27 1
  52   26   58 1
  53   26   59 1
  54   27   28 1
  55   27   30 1
  56   27   36 1
  57   28   29 1
  58   28   60 1
  59   28   61 1
  60   29   62 1
  61   29   63 1
  62   30   31 ar
  63   30   35 ar
  64   31   32 ar
  65   32   33 ar
  66   32   64 1
  67   33   34 ar
  68   33   65 1
  69   34   35 ar
  70   34   66 1
  71   35   67 1
  72   36   37 3

#	End of record

