#	Name: ASD02560125
#	Creating user name:	WinNT
#	Creation time:	15. 06. 2019 20:24

#	Modifying user name:	WinNT
#	Modification time:	15. 06. 2019 20:24

#	Program:	/corina/corina34_cracker 3.40 0067  02.08.2006

@<TRIPOS>MOLECULE
ASD02560125
  51   54    0    0    0
SMALL
NO_CHARGES


@<TRIPOS>ATOM
   1 N1             0.0567     1.3556     0.0833 N.2     
   2 N2            -0.0200     0.1260    -0.0016 N.2     
   3 C3             1.4557     1.8024     0.0768 C.3     
   4 N4             2.2450     0.5793     0.3693 N.3     
   5 C5             1.3130    -0.4853    -0.0812 C.3     
   6 S6             1.4157    -1.9225     1.0207 S.3     
   7 C7             0.9455    -1.2355     2.6324 C.3     
   8 C8             0.9828    -2.3249     3.6731 C.2     
   9 O9             1.2959    -3.4535     3.3585 O.2     
  10 N10            0.6683    -2.0448     4.9534 N.am    
  11 Br11           1.9365     2.5216    -1.6886 Br      
  12 C12            3.4273     0.5569    -0.3740 C.ar    
  13 C13            0.6273    -3.0672     5.9010 C.ar    
  14 C14           -0.1925    -2.9447     7.0201 C.ar    
  15 C15           -0.2351    -3.9528     7.9576 C.ar    
  16 C16            0.5461    -5.0995     7.7843 C.ar    
  17 C17            1.3675    -5.2184     6.6596 C.ar    
  18 C18            1.4010    -4.2093     5.7234 C.ar    
  19 Cl19          -1.1612    -1.5201     7.2338 Cl      
  20 C20            0.5037    -6.1809     8.7860 C.2     
  21 O21           -0.2106    -6.0760     9.7634 O.2     
  22 O22            1.2571    -7.2853     8.6175 O.3     
  23 C23            3.3803     0.3870    -1.7517 C.ar    
  24 C24            4.6528     0.7101     0.2624 C.ar    
  25 C25            5.8197     0.6874    -0.4754 C.ar    
  26 C26            5.7696     0.5128    -1.8465 C.ar    
  27 C27            4.5514     0.3653    -2.4836 C.ar    
  28 C28            7.0452     0.4896    -2.6485 C.3     
  29 C29            7.3546    -0.7782    -3.4471 C.3     
  30 C30            6.9212     0.4967    -4.1734 C.3     
  31 C31            4.7083     0.9014     1.7562 C.3     
  32 F32            6.0413     1.0318     2.1604 F       
  33 F33            4.0000     2.0563     2.1051 F       
  34 F34            4.1351    -0.2065     2.3898 F       
  35 H35            1.6181     2.5529     0.8504 H       
  36 H36            1.5366    -0.7761    -1.1076 H       
  37 H37            1.6438    -0.4454     2.9083 H       
  38 H38           -0.0625    -0.8249     2.5722 H       
  39 H39            0.4705    -1.1322     5.2157 H       
  40 H40           -0.8707    -3.8575     8.8256 H       
  41 H41            1.9723    -6.1027     6.5231 H       
  42 H42            2.0356    -4.3009     4.8543 H       
  43 H43            1.1958    -7.9669     9.3006 H       
  44 H44            2.4291     0.2717    -2.2500 H       
  45 H45            6.7727     0.8065     0.0187 H       
  46 H46            4.5158     0.2291    -3.5544 H       
  47 H47            7.8866     1.0255    -2.2092 H       
  48 H48            8.3995    -1.0762    -3.5335 H       
  49 H49            6.6355    -1.5955    -3.3924 H       
  50 H50            5.9169     0.5182    -4.5966 H       
  51 H51            7.6809     1.0375    -4.7377 H       
@<TRIPOS>BOND
   1    1    2 2
   2    1    3 1
   3    2    5 1
   4    3    4 1
   5    3   11 1
   6    3   35 1
   7    4    5 1
   8    4   12 1
   9    5    6 1
  10    5   36 1
  11    6    7 1
  12    7    8 1
  13    7   37 1
  14    7   38 1
  15    8    9 2
  16    8   10 am
  17   10   13 1
  18   10   39 1
  19   12   23 ar
  20   12   24 ar
  21   13   14 ar
  22   13   18 ar
  23   14   15 ar
  24   14   19 1
  25   15   16 ar
  26   15   40 1
  27   16   17 ar
  28   16   20 1
  29   17   18 ar
  30   17   41 1
  31   18   42 1
  32   20   21 2
  33   20   22 1
  34   22   43 1
  35   23   27 ar
  36   23   44 1
  37   24   25 ar
  38   24   31 1
  39   25   26 ar
  40   25   45 1
  41   26   27 ar
  42   26   28 1
  43   27   46 1
  44   28   29 1
  45   28   30 1
  46   28   47 1
  47   29   30 1
  48   29   48 1
  49   29   49 1
  50   30   50 1
  51   30   51 1
  52   31   32 1
  53   31   33 1
  54   31   34 1

#	End of record

