#	Name: ASD05380092
#	Creating user name:	WinNT
#	Creation time:	15. 06. 2019 20:59

#	Modifying user name:	WinNT
#	Modification time:	15. 06. 2019 20:59

#	Program:	/corina/corina34_cracker 3.40 0067  02.08.2006

@<TRIPOS>MOLECULE
ASD05380092
  46   50    0    0    0
SMALL
NO_CHARGES


@<TRIPOS>ATOM
   1 C1            -0.2259     1.5759    -0.3887 C.ar    
   2 C2            -0.0888     0.1880    -0.6182 C.ar    
   3 C3             0.7594     2.4584    -0.8286 C.ar    
   4 C4             1.8663     1.9674    -1.4880 C.ar    
   5 C5             2.0045     0.6000    -1.7159 C.ar    
   6 C6             1.0392    -0.2874    -1.2875 C.ar    
   7 N7            -1.0613    -0.6509    -0.1799 N.2     
   8 C8            -2.1110    -0.2094     0.4432 C.2     
   9 N9            -2.3248     1.1087     0.7064 N.am    
  10 C10           -1.4229     2.0425     0.3242 C.2     
  11 C11           -3.4859     1.5016     1.3840 C.ar    
  12 C12           -4.6404     1.7983     0.6717 C.ar    
  13 C13           -3.4866     1.5899     2.7698 C.ar    
  14 C14           -4.6331     1.9777     3.4351 C.ar    
  15 C15           -5.7797     2.2775     2.7226 C.ar    
  16 C16           -3.1453    -1.2066     0.8978 C.3     
  17 N17           -3.2477    -2.2869    -0.0864 N.pl3   
  18 C18           -4.4184    -3.0174    -0.1928 C.ar    
  19 N19           -5.4591    -2.7519     0.5901 N.ar    
  20 O20           -1.6015     3.2248     0.5531 O.2     
  21 C21           -4.5363    -4.0531    -1.1349 C.ar    
  22 C22           -5.7497    -4.7594    -1.1960 C.ar    
  23 N23           -6.7337    -4.4254    -0.3677 N.ar    
  24 C24           -6.5799    -3.4435     0.4956 C.ar    
  25 N25           -3.7165    -4.5862    -2.0724 N.2     
  26 C26           -4.3341    -5.5510    -2.6898 C.2     
  27 N27           -5.5920    -5.6969    -2.1852 N.pl3   
  28 C28           -2.7331    -1.7876     2.2518 C.3     
  29 C29           -5.7838     2.1855     1.3428 C.ar    
  30 F30            2.8237     2.8188    -1.9167 F       
  31 F31            3.0962     0.1379    -2.3639 F       
  32 H32            0.6563     3.5193    -0.6545 H       
  33 H33            1.1562    -1.3455    -1.4693 H       
  34 H34           -4.6442     1.7266    -0.4059 H       
  35 H35           -2.5916     1.3552     3.3269 H       
  36 H36           -4.6343     2.0465     4.5129 H       
  37 H37           -6.6753     2.5799     3.2451 H       
  38 H38           -4.1109    -0.7102     0.9942 H       
  39 H39           -2.4950    -2.4903    -0.6634 H       
  40 H40           -7.4011    -3.1948     1.1515 H       
  41 H41           -3.9123    -6.1481    -3.4848 H       
  42 H42           -6.2540    -6.3452    -2.4723 H       
  43 H43           -1.8150    -2.3635     2.1358 H       
  44 H44           -2.5658    -0.9759     2.9598 H       
  45 H45           -3.5249    -2.4374     2.6246 H       
  46 H46           -6.6808     2.4203     0.7892 H       
@<TRIPOS>BOND
   1    1    2 ar
   2    1    3 ar
   3    1   10 1
   4    2    7 1
   5    2    6 ar
   6    3    4 ar
   7    3   32 1
   8    4    5 ar
   9    4   30 1
  10    5    6 ar
  11    5   31 1
  12    6   33 1
  13    7    8 2
  14    8    9 1
  15    8   16 1
  16    9   10 am
  17    9   11 1
  18   10   20 2
  19   11   12 ar
  20   11   13 ar
  21   12   29 ar
  22   12   34 1
  23   13   14 ar
  24   13   35 1
  25   14   15 ar
  26   14   36 1
  27   15   29 ar
  28   15   37 1
  29   16   17 1
  30   16   28 1
  31   16   38 1
  32   17   18 1
  33   17   39 1
  34   18   19 ar
  35   18   21 ar
  36   19   24 ar
  37   21   22 ar
  38   21   25 1
  39   22   23 ar
  40   22   27 1
  41   23   24 ar
  42   24   40 1
  43   25   26 2
  44   26   27 1
  45   26   41 1
  46   27   42 1
  47   28   43 1
  48   28   44 1
  49   28   45 1
  50   29   46 1

#	End of record

