#	Name: ASD03180103
#	Creating user name:	WinNT
#	Creation time:	15. 06. 2019 20:33

#	Modifying user name:	WinNT
#	Modification time:	15. 06. 2019 20:33

#	Program:	/corina/corina34_cracker 3.40 0067  02.08.2006

@<TRIPOS>MOLECULE
ASD03180103
  32   34    0    0    0
SMALL
NO_CHARGES


@<TRIPOS>ATOM
   1 N1            -0.0169     1.3934     0.0097 N.pl3   
   2 C2             0.0052    -0.0034    -0.0315 C.ar    
   3 C3             1.2293    -2.0567    -0.2234 C.ar    
   4 C4             0.0487    -2.7689    -0.1139 C.ar    
   5 C5            -1.1538    -2.1020     0.0313 C.ar    
   6 C6            -1.1791    -0.7217     0.0729 C.ar    
   7 C7             1.2112    -0.6766    -0.1826 C.ar    
   8 C8            -2.4901     0.0043     0.2317 C.3     
   9 N9             1.1690     3.3741     0.5979 N.2     
  10 C10            2.2378     3.8654     1.2260 C.2     
  11 C11            1.0255     2.0857     0.6058 C.2     
  12 S12            2.3585     1.3508     1.4908 S.3     
  13 C13            3.0412     2.9462     1.7954 C.2     
  14 C14            2.5208     5.3137     1.2923 C.2     
  15 S15            1.5289     6.5831     0.5792 S.3     
  16 C16            2.6533     7.7968     1.1866 C.2     
  17 C17            3.6324     7.1689     1.8431 C.2     
  18 N18            3.5413     5.8583     1.8924 N.2     
  19 C19           -3.0240     0.4003    -1.1463 C.3     
  20 H20           -0.7597     1.8785    -0.3824 H       
  21 H21            2.1669    -2.5806    -0.3364 H       
  22 H22            0.0658    -3.8483    -0.1461 H       
  23 H23           -2.0738    -2.6612     0.1165 H       
  24 H24            2.1333    -0.1210    -0.2685 H       
  25 H25           -3.2094    -0.6486     0.7262 H       
  26 H26           -2.3388     0.9002     0.8339 H       
  27 H27            3.9484     3.1519     2.3441 H       
  28 H28            2.5657     8.8646     1.0512 H       
  29 H29            4.4461     7.7050     2.3087 H       
  30 H30           -2.3048     1.0532    -1.6408 H       
  31 H31           -3.1754    -0.4955    -1.7485 H       
  32 H32           -3.9723     0.9254    -1.0314 H       
@<TRIPOS>BOND
   1    1    2 1
   2    1   11 1
   3    1   20 1
   4    2    7 ar
   5    2    6 ar
   6    3    4 ar
   7    3    7 ar
   8    3   21 1
   9    4    5 ar
  10    4   22 1
  11    5    6 ar
  12    5   23 1
  13    6    8 1
  14    7   24 1
  15    8   19 1
  16    8   25 1
  17    8   26 1
  18    9   11 2
  19    9   10 1
  20   10   13 2
  21   10   14 1
  22   11   12 1
  23   12   13 1
  24   13   27 1
  25   14   15 1
  26   14   18 2
  27   15   16 1
  28   16   17 2
  29   16   28 1
  30   17   18 1
  31   17   29 1
  32   19   30 1
  33   19   31 1
  34   19   32 1

#	End of record

