#	Name: ASD01813461
#	Creating user name:	WinNT
#	Creation time:	15. 06. 2019 19:30

#	Modifying user name:	WinNT
#	Modification time:	15. 06. 2019 19:30

#	Program:	/corina/corina34_cracker 3.40 0067  02.08.2006

@<TRIPOS>MOLECULE
ASD01813461
  48   53    0    0    0
SMALL
NO_CHARGES


@<TRIPOS>ATOM
   1 C1            -0.0178     1.4608     0.0101 C.3     
   2 N2             0.0021    -0.0041     0.0020 N.pl3   
   3 C3             0.0073    -0.7668    -1.0996 C.2     
   4 C4             0.0272    -2.0911    -0.6990 C.ar    
   5 C5             0.0409    -3.3295    -1.3713 C.ar    
   6 C6             0.0601    -4.4956    -0.6383 C.ar    
   7 C7             0.0658    -4.4746     0.7688 C.ar    
   8 C8             0.0533    -3.3127     1.4628 C.ar    
   9 C9             0.0338    -2.0804     0.7725 C.ar    
  10 N10            0.0244    -0.8130     1.1436 N.2     
  11 C11            0.0745    -5.7991    -1.3460 C.ar    
  12 C12            0.0744    -5.8381    -2.7390 C.ar    
  13 C13            0.0878    -7.0553    -3.3943 C.ar    
  14 F14            0.0881    -7.0942    -4.7448 F       
  15 C15            0.1014    -8.2349    -2.6685 C.ar    
  16 C16            0.1165    -9.5592    -3.3876 C.3     
  17 N17            1.5025    -9.9725    -3.6207 N.am    
  18 C18            2.3134    -9.6440    -4.7993 C.3     
  19 C19            3.6575   -10.2918    -4.5718 C.2     
  20 C20            4.8273   -10.3300    -5.3353 C.2     
  21 C21            5.9174   -11.0064    -4.8748 C.2     
  22 C22            5.8491   -11.6607    -3.6294 C.2     
  23 N23            6.7161   -12.3785    -2.9332 N.2     
  24 N24            6.1646   -12.7634    -1.8358 N.2     
  25 C25            4.9333   -12.3207    -1.7691 C.2     
  26 N26            4.6919   -11.6127    -2.8929 N.pl3   
  27 C27            3.5913   -10.9269    -3.3631 C.2     
  28 C28            2.2556   -10.7140    -2.7899 C.2     
  29 O29            1.8832   -11.1486    -1.7164 O.2     
  30 C30            0.1016    -8.2010    -1.2838 C.ar    
  31 F31            0.1149    -9.3547    -0.5809 F       
  32 C32            0.0940    -6.9884    -0.6199 C.ar    
  33 H33            1.0048     1.8381     0.0023 H       
  34 H34           -0.5450     1.8219    -0.8730 H       
  35 H35           -0.5280     1.8123     0.9069 H       
  36 H36           -0.0027    -0.4111    -2.1193 H       
  37 H37            0.0360    -3.3640    -2.4507 H       
  38 H38            0.0803    -5.4098     1.3089 H       
  39 H39            0.0584    -3.3277     2.5427 H       
  40 H40            0.0635    -4.9188    -3.3057 H       
  41 H41           -0.3887   -10.3090    -2.7787 H       
  42 H42           -0.3986    -9.4598    -4.3430 H       
  43 H43            1.8492   -10.0479    -5.6990 H       
  44 H44            2.4273    -8.5635    -4.8874 H       
  45 H45            4.8675    -9.8247    -6.2890 H       
  46 H46            6.8248   -11.0405    -5.4595 H       
  47 H47            4.2372   -12.4916    -0.9612 H       
  48 H48            0.0987    -6.9628     0.4598 H       
@<TRIPOS>BOND
   1    1    2 1
   2    1   33 1
   3    1   34 1
   4    1   35 1
   5    2   10 1
   6    2    3 1
   7    3    4 2
   8    3   36 1
   9    4    9 ar
  10    4    5 ar
  11    5    6 ar
  12    5   37 1
  13    6    7 ar
  14    6   11 1
  15    7    8 ar
  16    7   38 1
  17    8    9 ar
  18    8   39 1
  19    9   10 2
  20   11   32 ar
  21   11   12 ar
  22   12   13 ar
  23   12   40 1
  24   13   14 1
  25   13   15 ar
  26   15   16 1
  27   15   30 ar
  28   16   17 1
  29   16   41 1
  30   16   42 1
  31   17   28 am
  32   17   18 1
  33   18   19 1
  34   18   43 1
  35   18   44 1
  36   19   27 2
  37   19   20 1
  38   20   21 2
  39   20   45 1
  40   21   22 1
  41   21   46 1
  42   22   26 1
  43   22   23 2
  44   23   24 1
  45   24   25 2
  46   25   26 1
  47   25   47 1
  48   26   27 1
  49   27   28 1
  50   28   29 2
  51   30   31 1
  52   30   32 ar
  53   32   48 1

#	End of record

