#	Name: ASD01811231
#	Creating user name:	WinNT
#	Creation time:	15. 06. 2019 19:26

#	Modifying user name:	WinNT
#	Modification time:	15. 06. 2019 19:26

#	Program:	/corina/corina34_cracker 3.40 0067  02.08.2006

@<TRIPOS>MOLECULE
ASD01811231
  59   62    0    0    0
SMALL
NO_CHARGES


@<TRIPOS>ATOM
   1 C1            -0.0996     1.2856    -0.1540 C.ar    
   2 C2            -0.0127    -0.1048    -0.0622 C.ar    
   3 C3             1.3095    -0.7616     0.0197 C.2     
   4 N4             1.6432    -1.7178    -0.8696 N.am    
   5 O5             2.0955    -0.4391     0.8890 O.2     
   6 C6             2.9857    -2.3146    -0.8586 C.3     
   7 C7            -1.1771    -0.8720    -0.0474 C.ar    
   8 C8            -2.4132    -0.2490    -0.1241 C.ar    
   9 C9            -2.4890     1.1353    -0.2157 C.ar    
  10 C10           -1.3348     1.8964    -0.2246 C.ar    
  11 N11           -3.5850    -1.0147    -0.1096 N.am    
  12 C12            3.5889    -2.1973    -2.2619 C.3     
  13 C13            2.6312    -2.8231    -3.2784 C.3     
  14 C14            1.3003    -2.0677    -3.2600 C.3     
  15 C15            0.6694    -2.1875    -1.8644 C.3     
  16 C16            3.2366    -2.7400    -4.6559 C.ar    
  17 C17            2.7145    -3.5037    -5.6848 C.ar    
  18 C18            3.2636    -3.4322    -6.9483 C.ar    
  19 C19            4.3487    -2.5867    -7.1876 C.ar    
  20 C20            4.8706    -1.8188    -6.1446 C.ar    
  21 C21            4.3084    -1.8962    -4.8873 C.ar    
  22 C22           -3.6450    -2.1410     0.6282 C.2     
  23 C23            4.9240    -2.5078    -8.4965 C.1     
  24 N24            5.3805    -2.4452    -9.5349 N.1     
  25 O25           -4.7306    -2.9344     0.5585 O.3     
  26 O26           -2.7193    -2.4404     1.3562 O.2     
  27 C27           -4.7264    -4.1311     1.3809 C.3     
  28 C28           -5.5551    -5.2505     0.7121 C.3     
  29 F29            2.4105    -4.1642    -2.9466 F       
  30 C30            1.1555     2.1197    -0.1699 C.3     
  31 C31           -5.4557    -3.8718     2.7177 C.3     
  32 O32           -6.8106    -4.3180     2.4915 O.3     
  33 C33           -6.6871    -5.5351     1.7239 C.3     
  34 H34            3.6157    -1.7840    -0.1446 H       
  35 H35            2.9162    -3.3654    -0.5774 H       
  36 H36           -1.1162    -1.9480     0.0231 H       
  37 H37           -3.4529     1.6187    -0.2757 H       
  38 H38           -1.4000     2.9721    -0.2957 H       
  39 H39           -4.3537    -0.7347    -0.6307 H       
  40 H40            3.7418    -1.1460    -2.5055 H       
  41 H41            4.5444    -2.7210    -2.2921 H       
  42 H42            1.4748    -1.0176    -3.4942 H       
  43 H43            0.6269    -2.4991    -4.0006 H       
  44 H44            0.4114    -3.2282    -1.6681 H       
  45 H45           -0.2281    -1.5708    -1.8150 H       
  46 H46            1.8754    -4.1576    -5.4982 H       
  47 H47            2.8553    -4.0291    -7.7504 H       
  48 H48            5.7100    -1.1631    -6.3228 H       
  49 H49            4.7111    -1.3028    -4.0797 H       
  50 H50           -3.7049    -4.4669     1.5596 H       
  51 H51           -5.9680    -4.9056    -0.2359 H       
  52 H52           -4.9440    -6.1406     0.5623 H       
  53 H53            1.5396     2.1788    -1.1882 H       
  54 H54            0.9297     3.1227     0.1921 H       
  55 H55            1.9049     1.6608     0.4750 H       
  56 H56           -4.9950    -4.4489     3.5195 H       
  57 H57           -5.4415    -2.8086     2.9578 H       
  58 H58           -7.6188    -5.7498     1.2005 H       
  59 H59           -6.4153    -6.3673     2.3733 H       
@<TRIPOS>BOND
   1    1    2 ar
   2    1   30 1
   3    1   10 ar
   4    2    3 1
   5    2    7 ar
   6    3    4 am
   7    3    5 2
   8    4    6 1
   9    4   15 1
  10    6   12 1
  11    6   34 1
  12    6   35 1
  13    7    8 ar
  14    7   36 1
  15    8    9 ar
  16    8   11 1
  17    9   10 ar
  18    9   37 1
  19   10   38 1
  20   11   22 am
  21   11   39 1
  22   12   13 1
  23   12   40 1
  24   12   41 1
  25   13   14 1
  26   13   16 1
  27   13   29 1
  28   14   15 1
  29   14   42 1
  30   14   43 1
  31   15   44 1
  32   15   45 1
  33   16   17 ar
  34   16   21 ar
  35   17   18 ar
  36   17   46 1
  37   18   19 ar
  38   18   47 1
  39   19   20 ar
  40   19   23 1
  41   20   21 ar
  42   20   48 1
  43   21   49 1
  44   22   25 1
  45   22   26 2
  46   23   24 3
  47   25   27 1
  48   27   28 1
  49   27   31 1
  50   27   50 1
  51   28   33 1
  52   28   51 1
  53   28   52 1
  54   30   53 1
  55   30   54 1
  56   30   55 1
  57   31   32 1
  58   31   56 1
  59   31   57 1
  60   32   33 1
  61   33   58 1
  62   33   59 1

#	End of record

