#	Name: ASD01910388
#	Creating user name:	WinNT
#	Creation time:	15. 06. 2019 19:55

#	Modifying user name:	WinNT
#	Modification time:	15. 06. 2019 19:55

#	Program:	/corina/corina34_cracker 3.40 0067  02.08.2006

@<TRIPOS>MOLECULE
ASD01910388
  50   53    0    0    0
SMALL
NO_CHARGES


@<TRIPOS>ATOM
   1 C1             1.5476     1.6522    -1.6286 C.ar    
   2 C2             1.3465     0.2576    -1.3733 C.1     
   3 C3             1.1817    -0.8858    -1.1640 C.1     
   4 C4             0.9807    -2.2804    -0.9087 C.ar    
   5 C5             1.4551    -3.2338    -1.8166 C.ar    
   6 C6             1.2634    -4.5637    -1.5722 C.ar    
   7 C7             0.5930    -4.9727    -0.4156 C.ar    
   8 C8             0.1183    -4.0208     0.4916 C.ar    
   9 C9             0.3147    -2.6908     0.2516 C.ar    
  10 C10            0.3857    -6.4105    -0.1524 C.2     
  11 O11           -0.7239    -6.8244     0.1226 O.2     
  12 N12            1.4266    -7.2643    -0.2169 N.am    
  13 C13            1.0750     2.6070    -0.7240 C.ar    
  14 C14            1.2723     3.9484    -0.9766 C.ar    
  15 C15            1.9360     4.3498    -2.1227 C.ar    
  16 C16            2.4067     3.4102    -3.0231 C.ar    
  17 C17            2.2224     2.0651    -2.7808 C.ar    
  18 C18            1.2532    -8.6831     0.1231 C.3     
  19 C19            2.2894    -9.0660     1.1843 C.3     
  20 C20            3.6885    -8.7074     0.6782 C.3     
  21 C21            3.7755    -7.1981     0.4405 C.3     
  22 C22            2.7548    -6.7952    -0.6345 C.3     
  23 N23            4.6877    -9.1036     1.6795 N.3     
  24 C24            4.7789   -10.5720     1.7828 C.3     
  25 C25            6.3033   -10.4153     1.8732 C.3     
  26 C26            6.0428    -9.1163     1.0977 C.3     
  27 H27            1.9724    -2.9179    -2.7104 H       
  28 H28            1.6296    -5.2996    -2.2728 H       
  29 H29           -0.4002    -4.3375     1.3845 H       
  30 H30           -0.0520    -1.9555     0.9525 H       
  31 H31            0.5563     2.2952     0.1705 H       
  32 H32            0.9077     4.6873    -0.2785 H       
  33 H33            2.0869     5.4016    -2.3156 H       
  34 H34            2.9235     3.7310    -3.9155 H       
  35 H35            2.5904     1.3329    -3.4844 H       
  36 H36            0.2498    -8.8444     0.5172 H       
  37 H37            1.4003    -9.2931    -0.7682 H       
  38 H38            2.0851    -8.5208     2.1058 H       
  39 H39            2.2354   -10.1378     1.3756 H       
  40 H40            3.8826    -9.2340    -0.2563 H       
  41 H41            3.5572    -6.6705     1.3690 H       
  42 H42            4.7792    -6.9403     0.1024 H       
  43 H43            3.0270    -7.2517    -1.5862 H       
  44 H44            2.7420    -5.7101    -0.7378 H       
  45 H45            4.3289   -10.9721     2.6914 H       
  46 H46            4.4484   -11.0919     0.8837 H       
  47 H47            6.6771   -10.2632     2.8858 H       
  48 H48            6.8630   -11.1647     1.3135 H       
  49 H49            6.0496    -9.2478     0.0157 H       
  50 H50            6.6639    -8.2828     1.4256 H       
@<TRIPOS>BOND
   1    1    2 1
   2    1   13 ar
   3    1   17 ar
   4    2    3 3
   5    3    4 1
   6    4    5 ar
   7    4    9 ar
   8    5    6 ar
   9    5   27 1
  10    6    7 ar
  11    6   28 1
  12    7    8 ar
  13    7   10 1
  14    8    9 ar
  15    8   29 1
  16    9   30 1
  17   10   11 2
  18   10   12 am
  19   12   18 1
  20   12   22 1
  21   13   14 ar
  22   13   31 1
  23   14   15 ar
  24   14   32 1
  25   15   16 ar
  26   15   33 1
  27   16   17 ar
  28   16   34 1
  29   17   35 1
  30   18   19 1
  31   18   36 1
  32   18   37 1
  33   19   20 1
  34   19   38 1
  35   19   39 1
  36   20   21 1
  37   20   23 1
  38   20   40 1
  39   21   22 1
  40   21   41 1
  41   21   42 1
  42   22   43 1
  43   22   44 1
  44   23   24 1
  45   23   26 1
  46   24   25 1
  47   24   45 1
  48   24   46 1
  49   25   26 1
  50   25   47 1
  51   25   48 1
  52   26   49 1
  53   26   50 1

#	End of record

