#	Name: ASD01940479
#	Creating user name:	WinNT
#	Creation time:	15. 06. 2019 20:12

#	Modifying user name:	WinNT
#	Modification time:	15. 06. 2019 20:12

#	Program:	/corina/corina34_cracker 3.40 0067  02.08.2006

@<TRIPOS>MOLECULE
ASD01940479
  29   31    0    0    0
SMALL
NO_CHARGES


@<TRIPOS>ATOM
   1 S1             1.8897     2.5091     2.7399 S.3     
   2 N2             2.3474     0.9992     3.3612 N.2     
   3 C3             2.9246     0.3312     2.4233 C.2     
   4 C4             3.0623     0.9216     1.1556 C.ar    
   5 C5             2.5169     2.2192     1.1136 C.ar    
   6 C6             2.5474     2.9835    -0.0494 C.ar    
   7 C7             3.1119     2.4866    -1.1844 C.ar    
   8 C8             3.6678     1.1964    -1.1869 C.ar    
   9 C9             3.6475     0.4126    -0.0312 C.ar    
  10 C10            4.2754     0.6670    -2.4159 C.2     
  11 O11            4.8446    -0.4071    -2.3987 O.2     
  12 O12            4.2014     1.3724    -3.5624 O.3     
  13 N13            4.1974    -0.8570    -0.0443 N.pl3   
  14 C14            3.3794    -1.9713    -0.2589 C.ar    
  15 C15            3.9432    -3.2379    -0.3758 C.ar    
  16 C16            3.1312    -4.3366    -0.5874 C.ar    
  17 C17            1.7600    -4.1766    -0.6827 C.ar    
  18 C18            1.1977    -2.9185    -0.5667 C.ar    
  19 C19            2.0030    -1.8167    -0.3500 C.ar    
  20 I20            0.5331    -5.8441    -1.0040 I       
  21 F21            5.2819    -3.3939    -0.2832 F       
  22 H22            3.2968    -0.6657     2.6083 H       
  23 H23            2.1208     3.9756    -0.0515 H       
  24 H24            3.1320     3.0846    -2.0835 H       
  25 H25            4.6159     0.9835    -4.3447 H       
  26 H26            5.1501    -0.9743     0.0953 H       
  27 H27            3.5674    -5.3204    -0.6787 H       
  28 H28            0.1272    -2.7974    -0.6416 H       
  29 H29            1.5620    -0.8353    -0.2552 H       
@<TRIPOS>BOND
   1    1    2 1
   2    1    5 1
   3    2    3 2
   4    3    4 1
   5    3   22 1
   6    4    5 ar
   7    4    9 ar
   8    5    6 ar
   9    6    7 ar
  10    6   23 1
  11    7    8 ar
  12    7   24 1
  13    8    9 ar
  14    8   10 1
  15    9   13 1
  16   10   11 2
  17   10   12 1
  18   12   25 1
  19   13   14 1
  20   13   26 1
  21   14   15 ar
  22   14   19 ar
  23   15   16 ar
  24   15   21 1
  25   16   17 ar
  26   16   27 1
  27   17   18 ar
  28   17   20 1
  29   18   19 ar
  30   18   28 1
  31   19   29 1

#	End of record

