#	Name: ASD00110044
#	Creating user name:	WinNT
#	Creation time:	15. 06. 2019 18:30

#	Modifying user name:	WinNT
#	Modification time:	15. 06. 2019 18:30

#	Program:	/corina/corina34_cracker 3.40 0067  02.08.2006

@<TRIPOS>MOLECULE
ASD00110044
  68   68    0    0    0
SMALL
NO_CHARGES


@<TRIPOS>ATOM
   1 C1            -0.0187     1.5270     0.0104 C.3     
   2 C2             0.0021    -0.0041     0.0020 C.3     
   3 C3             0.7943    -0.5026     1.2138 C.3     
   4 C4             2.2082     0.0811     1.1680 C.3     
   5 N5             2.1343     1.5477     1.1786 N.3     
   6 C6             1.4188     2.0518    -0.0005 C.3     
   7 C7             2.9856    -0.3912     2.3695 C.2     
   8 N8             3.5308    -1.6237     2.3775 N.am    
   9 O9             3.1205     0.3378     3.3294 O.2     
  10 C10            4.2865    -2.0829     3.5456 C.3     
  11 C11           -1.4309    -0.5353     0.0743 C.3     
  12 C12           -2.1880    -0.1344    -1.1935 C.3     
  13 C13           -3.6210    -0.6655    -1.1212 C.3     
  14 C14           -4.3780    -0.2647    -2.3889 C.3     
  15 C15           -5.8110    -0.7958    -2.3167 C.3     
  16 C16           -6.5680    -0.3950    -3.5844 C.3     
  17 C17           -8.0011    -0.9261    -3.5122 C.3     
  18 C18           -8.7581    -0.5252    -4.7799 C.3     
  19 C19          -10.1911    -1.0564    -4.7076 C.3     
  20 C20          -10.9481    -0.6555    -5.9753 C.3     
  21 C21          -12.3811    -1.1867    -5.9031 C.3     
  22 C22            4.7939    -3.5049     3.2980 C.3     
  23 C23            5.5831    -3.9844     4.5179 C.3     
  24 C24            5.9839    -5.4480     4.3229 C.3     
  25 O25            6.7578    -3.1850     4.6696 O.3     
  26 O26            6.6187    -5.9301     5.5089 O.3     
  27 H27           -0.5449     1.8886    -0.8730 H       
  28 H28           -0.5279     1.8791     0.9076 H       
  29 H29            0.4766    -0.3569    -0.9136 H       
  30 H30            0.2979    -0.1824     2.1299 H       
  31 H31            0.8490    -1.5910     1.1901 H       
  32 H32            2.7088    -0.2507     0.2584 H       
  33 H33            1.7087     1.8821     2.0302 H       
  34 H34            1.9231     1.7108    -0.9046 H       
  35 H35            1.4077     3.1416     0.0199 H       
  36 H36            3.4229    -2.2068     1.6098 H       
  37 H37            5.1343    -1.4188     3.7138 H       
  38 H38            3.6395    -2.0755     4.4227 H       
  39 H39           -1.4119    -1.6219     0.1577 H       
  40 H40           -1.9316    -0.1127     0.9454 H       
  41 H41           -2.2070     0.9523    -1.2769 H       
  42 H42           -1.6873    -0.5570    -2.0646 H       
  43 H43           -3.6019    -1.7522    -1.0377 H       
  44 H44           -4.1216    -0.2429    -0.2501 H       
  45 H45           -4.3971     0.8220    -2.4724 H       
  46 H46           -3.8773    -0.6873    -3.2600 H       
  47 H47           -5.7919    -1.8825    -2.2332 H       
  48 H48           -6.3117    -0.3732    -1.4456 H       
  49 H49           -6.5871     0.6917    -3.6679 H       
  50 H50           -6.0674    -0.8176    -4.4555 H       
  51 H51           -7.9820    -2.0128    -3.4287 H       
  52 H52           -8.5017    -0.5035    -2.6410 H       
  53 H53           -8.7772     0.5614    -4.8634 H       
  54 H54           -8.2574    -0.9478    -5.6510 H       
  55 H55          -10.1720    -2.1431    -4.6241 H       
  56 H56          -10.6918    -0.6338    -3.8365 H       
  57 H57          -10.9672     0.4311    -6.0588 H       
  58 H58          -10.4475    -1.0781    -6.8465 H       
  59 H59          -12.3621    -2.2734    -5.8196 H       
  60 H60          -12.8818    -0.7641    -5.0320 H       
  61 H61          -12.9205    -0.9011    -6.8062 H       
  62 H62            3.9461    -4.1690     3.1298 H       
  63 H63            5.4409    -3.5123     2.4208 H       
  64 H64            4.9637    -3.8931     5.4102 H       
  65 H65            5.0945    -6.0442     4.1188 H       
  66 H66            6.6746    -5.5268     3.4834 H       
  67 H67            7.3568    -3.2182     3.9111 H       
  68 H68            6.9002    -6.8538     5.4567 H       
@<TRIPOS>BOND
   1    1    2 1
   2    1    6 1
   3    1   27 1
   4    1   28 1
   5    2    3 1
   6    2   11 1
   7    2   29 1
   8    3    4 1
   9    3   30 1
  10    3   31 1
  11    4    5 1
  12    4    7 1
  13    4   32 1
  14    5    6 1
  15    5   33 1
  16    6   34 1
  17    6   35 1
  18    7    8 am
  19    7    9 2
  20    8   10 1
  21    8   36 1
  22   10   22 1
  23   10   37 1
  24   10   38 1
  25   11   12 1
  26   11   39 1
  27   11   40 1
  28   12   13 1
  29   12   41 1
  30   12   42 1
  31   13   14 1
  32   13   43 1
  33   13   44 1
  34   14   15 1
  35   14   45 1
  36   14   46 1
  37   15   16 1
  38   15   47 1
  39   15   48 1
  40   16   17 1
  41   16   49 1
  42   16   50 1
  43   17   18 1
  44   17   51 1
  45   17   52 1
  46   18   19 1
  47   18   53 1
  48   18   54 1
  49   19   20 1
  50   19   55 1
  51   19   56 1
  52   20   21 1
  53   20   57 1
  54   20   58 1
  55   21   59 1
  56   21   60 1
  57   21   61 1
  58   22   23 1
  59   22   62 1
  60   22   63 1
  61   23   24 1
  62   23   25 1
  63   23   64 1
  64   24   26 1
  65   24   65 1
  66   24   66 1
  67   25   67 1
  68   26   68 1

#	End of record

