#	Name: ASD03330381
#	Creating user name:	WinNT
#	Creation time:	15. 06. 2019 20:37

#	Modifying user name:	WinNT
#	Modification time:	15. 06. 2019 20:37

#	Program:	/corina/corina34_cracker 3.40 0067  02.08.2006

@<TRIPOS>MOLECULE
ASD03330381
  56   59    0    0    0
SMALL
NO_CHARGES


@<TRIPOS>ATOM
   1 C1             0.0188     1.4638     0.1763 C.3     
   2 N2            -0.0306     0.0167    -0.0752 N.3     
   3 C3             0.2226    -0.2856    -1.4956 C.3     
   4 C4             1.4708     0.4486    -1.9127 C.2     
   5 N5             2.0242     1.4622    -1.1966 N.pl3   
   6 C6             1.4654     1.9617     0.0630 C.3     
   7 C7             2.2448     0.2626    -3.0110 C.2     
   8 N8             3.2586     1.1563    -2.9547 N.2     
   9 C9             3.1313     1.8798    -1.8648 C.2     
  10 C10            4.0403     2.9661    -1.4375 C.ar    
  11 C11            4.9524     3.5123    -2.3408 C.ar    
  12 C12            2.0214    -0.7334    -4.0740 C.2     
  13 O13            1.0680    -1.4859    -4.0115 O.2     
  14 C14            2.6516    -1.8004    -6.1719 C.3     
  15 N15            2.8736    -0.8103    -5.1152 N.am    
  16 C16           -1.3129    -0.5504     0.3632 C.3     
  17 C17            5.7970     4.5255    -1.9363 C.ar    
  18 C18            5.7408     4.9999    -0.6379 C.ar    
  19 C19            4.8386     4.4624     0.2627 C.ar    
  20 C20            3.9849     3.4525    -0.1310 C.ar    
  21 C21           -1.3695    -2.0328    -0.0111 C.3     
  22 O22           -0.3490    -2.7416     0.6948 O.3     
  23 C23            3.7537    -1.6773    -7.2260 C.3     
  24 C24            3.5953    -2.7911    -8.2655 C.3     
  25 C25            3.6428    -0.3200    -7.9272 C.3     
  26 C26            4.6988    -0.2376    -9.0325 C.3     
  27 O27            4.5138    -1.3193    -9.9479 O.3     
  28 C28            4.6531    -2.6133    -9.3578 C.3     
  29 H29           -0.6007     1.9804    -0.5568 H       
  30 H30           -0.3582     1.6706     1.1779 H       
  31 H31            0.3659    -1.3584    -1.6241 H       
  32 H32           -0.6209     0.0491    -2.0995 H       
  33 H33            1.4805     3.0516     0.0654 H       
  34 H34            2.0512     1.5834     0.9008 H       
  35 H35            4.9974     3.1426    -3.3546 H       
  36 H36            2.6707    -2.8017    -5.7415 H       
  37 H37            1.6820    -1.6236    -6.6376 H       
  38 H38            3.6340    -0.2101    -5.1650 H       
  39 H39           -1.4063    -0.4447     1.4440 H       
  40 H40           -2.1305    -0.0207    -0.1257 H       
  41 H41            6.5038     4.9490    -2.6345 H       
  42 H42            6.4043     5.7929    -0.3259 H       
  43 H43            4.7995     4.8370     1.2749 H       
  44 H44            3.2810     3.0337     0.5729 H       
  45 H45           -2.3452    -2.4382     0.2569 H       
  46 H46           -1.2126    -2.1429    -1.0841 H       
  47 H47           -0.3258    -3.6897     0.5056 H       
  48 H48            4.7286    -1.7626    -6.7459 H       
  49 H49            3.7279    -3.7601    -7.7843 H       
  50 H50            2.6011    -2.7367    -8.7090 H       
  51 H51            2.6496    -0.2157    -8.3638 H       
  52 H52            3.8094     0.4783    -7.2040 H       
  53 H53            4.5966     0.7091    -9.5630 H       
  54 H54            5.6932    -0.3014    -8.5907 H       
  55 H55            5.6469    -2.7082    -8.9202 H       
  56 H56            4.5180    -3.3781   -10.1226 H       
@<TRIPOS>BOND
   1    1    2 1
   2    1    6 1
   3    1   29 1
   4    1   30 1
   5    2    3 1
   6    2   16 1
   7    3    4 1
   8    3   31 1
   9    3   32 1
  10    4    5 1
  11    4    7 2
  12    5    6 1
  13    5    9 1
  14    6   33 1
  15    6   34 1
  16    7    8 1
  17    7   12 1
  18    8    9 2
  19    9   10 1
  20   10   11 ar
  21   10   20 ar
  22   11   17 ar
  23   11   35 1
  24   12   13 2
  25   12   15 am
  26   14   23 1
  27   14   15 1
  28   14   36 1
  29   14   37 1
  30   15   38 1
  31   16   21 1
  32   16   39 1
  33   16   40 1
  34   17   18 ar
  35   17   41 1
  36   18   19 ar
  37   18   42 1
  38   19   20 ar
  39   19   43 1
  40   20   44 1
  41   21   22 1
  42   21   45 1
  43   21   46 1
  44   22   47 1
  45   23   24 1
  46   23   25 1
  47   23   48 1
  48   24   28 1
  49   24   49 1
  50   24   50 1
  51   25   26 1
  52   25   51 1
  53   25   52 1
  54   26   27 1
  55   26   53 1
  56   26   54 1
  57   27   28 1
  58   28   55 1
  59   28   56 1

#	End of record

