#	Name: ASD03082402
#	Creating user name:	WinNT
#	Creation time:	15. 06. 2019 20:27

#	Modifying user name:	WinNT
#	Modification time:	15. 06. 2019 20:27

#	Program:	/corina/corina34_cracker 3.40 0067  02.08.2006

@<TRIPOS>MOLECULE
ASD03082402
  47   49    0    0    0
SMALL
NO_CHARGES


@<TRIPOS>ATOM
   1 C1             2.3223     1.3925     0.4814 C.ar    
   2 C2             3.4753     1.9069    -0.0968 C.ar    
   3 C3             4.6665     1.2049    -0.0049 C.ar    
   4 C4             4.7054    -0.0104     0.6644 C.ar    
   5 C5             3.5566    -0.5220     1.2399 C.ar    
   6 Cl6            3.6095    -2.0421     2.0767 Cl      
   7 N7             1.1197     2.0974     0.3902 N.pl3   
   8 C8             1.1326     3.4928     0.2928 C.2     
   9 C9             0.0118     4.3147     0.0835 C.2     
  10 N10            2.1925     4.2611     0.3866 N.2     
  11 N11            1.7833     5.5922     0.2347 N.pl3   
  12 C12            0.4373     5.5974     0.0497 C.2     
  13 C13            2.6129     6.7170     0.2713 C.ar    
  14 C14            2.2292     7.8658     0.9601 C.ar    
  15 C15            3.8475     6.7160    -0.3755 C.ar    
  16 C16            4.6369     7.8459    -0.3151 C.ar    
  17 N17            4.2362     8.9166     0.3440 N.ar    
  18 C18            3.0768     8.9548     0.9726 C.ar    
  19 C19            5.9740     7.8572    -1.0103 C.3     
  20 H20            2.7859     9.8509     1.5007 H       
  21 C21           -0.4265     6.8149    -0.1568 C.3     
  22 C22           -1.0452     7.2204     1.1562 C.2     
  23 C23            2.3651     0.1731     1.1458 C.ar    
  24 N24           -1.8620     8.2908     1.2141 N.am    
  25 C25           -2.4635     8.6850     2.4905 C.3     
  26 O26           -0.8081     6.5834     2.1606 O.2     
  27 O27            5.7961     1.7060    -0.5703 O.3     
  28 C28            6.9881     0.9291    -0.4367 C.3     
  29 H29            3.4436     2.8525    -0.6176 H       
  30 H30            5.6339    -0.5574     0.7355 H       
  31 H31            0.2758     1.6192     0.3944 H       
  32 H32           -1.0089     3.9806    -0.0304 H       
  33 H33            1.2816     7.9036     1.4767 H       
  34 H34            4.1818     5.8428    -0.9160 H       
  35 H35            5.8495     8.2177    -2.0314 H       
  36 H36            6.6571     8.5154    -0.4733 H       
  37 H37            6.3824     6.8468    -1.0289 H       
  38 H38            0.1841     7.6330    -0.5388 H       
  39 H39           -1.2143     6.5841    -0.8738 H       
  40 H40            1.4691    -0.2280     1.5962 H       
  41 H41           -2.0517     8.8003     0.4107 H       
  42 H42           -3.0741     7.8669     2.8724 H       
  43 H43           -1.6756     8.9158     3.2075 H       
  44 H44           -3.0883     9.5656     2.3411 H       
  45 H45            7.2216     0.8009     0.6203 H       
  46 H46            6.8386    -0.0476    -0.8969 H       
  47 H47            7.8131     1.4415    -0.9315 H       
@<TRIPOS>BOND
   1    1    2 ar
   2    1    7 1
   3    1   23 ar
   4    2    3 ar
   5    2   29 1
   6    3    4 ar
   7    3   27 1
   8    4    5 ar
   9    4   30 1
  10    5   23 ar
  11    5    6 1
  12    7    8 1
  13    7   31 1
  14    8    9 1
  15    8   10 2
  16    9   12 2
  17    9   32 1
  18   10   11 1
  19   11   12 1
  20   11   13 1
  21   12   21 1
  22   13   14 ar
  23   13   15 ar
  24   14   18 ar
  25   14   33 1
  26   15   16 ar
  27   15   34 1
  28   16   17 ar
  29   16   19 1
  30   17   18 ar
  31   18   20 1
  32   19   35 1
  33   19   36 1
  34   19   37 1
  35   21   22 1
  36   21   38 1
  37   21   39 1
  38   22   24 am
  39   22   26 2
  40   23   40 1
  41   24   25 1
  42   24   41 1
  43   25   42 1
  44   25   43 1
  45   25   44 1
  46   27   28 1
  47   28   45 1
  48   28   46 1
  49   28   47 1

#	End of record

