#	Name: ASD08170816
#	Creating user name:	WinNT
#	Creation time:	15. 06. 2019 21:18

#	Modifying user name:	WinNT
#	Modification time:	15. 06. 2019 21:18

#	Program:	/corina/corina34_cracker 3.40 0067  02.08.2006

@<TRIPOS>MOLECULE
ASD08170816
  65   68    0    0    0
SMALL
NO_CHARGES


@<TRIPOS>ATOM
   1 C1            -0.0162     1.3436     0.0094 C.2     
   2 N2             0.0021    -0.0041     0.0020 N.am    
   3 C3             1.2158    -0.6830    -0.0132 C.2     
   4 S4             1.4076    -2.3853    -0.0242 S.3     
   5 C5             3.1580    -2.1679    -0.0404 C.2     
   6 C6             4.1900    -3.2660    -0.0570 C.3     
   7 C7             7.1356    -6.3838     3.2786 C.3     
   8 C8             7.3823    -6.6392     4.7431 C.2     
   9 S9             8.5907    -5.8400     5.7495 S.3     
  10 C10            8.0678    -6.7751     7.0862 C.2     
  11 N11            2.3916    -0.1314    -0.0272 N.2     
  12 N12            3.3971    -0.8949    -0.0360 N.2     
  13 N13            6.7415    -7.4810     5.4904 N.2     
  14 N14            7.1020    -7.5523     6.6983 N.2     
  15 O15            1.0258     1.9642     0.0028 O.2     
  16 C16           -1.3314     2.0792     0.0197 C.3     
  17 N17            8.5909    -6.7128     8.3733 N.am    
  18 C18            8.0910    -7.5042     9.3429 C.2     
  19 C19            8.6578    -7.4367    10.7376 C.3     
  20 O20            7.1849    -8.2707     9.0931 O.2     
  21 C21            4.5536    -3.6458     1.3798 C.3     
  22 C22            6.0928    -5.2751     3.1228 C.3     
  23 N23           -1.0833     3.5231     0.0263 N.pl3   
  24 N24           -0.9495     4.3415    -1.1026 N.2     
  25 N25            7.9499    -8.3870    11.5990 N.pl3   
  26 C26           -0.7365     5.5668    -0.6963 C.2     
  27 C27           -0.7277     5.5680     0.7023 C.2     
  28 C28           -0.9489     4.3005     1.1212 C.2     
  29 C29           -1.0218     3.8380     2.5536 C.3     
  30 C30           -0.5349     6.7691    -1.5823 C.3     
  31 S31            5.7958    -4.9677     1.3599 S.3     
  32 N32            8.3050    -9.7245    11.8168 N.2     
  33 C33            7.4367   -10.2486    12.6434 C.2     
  34 C34            6.5023    -9.2631    12.9782 C.2     
  35 C35            6.8441    -8.1270    12.3273 C.2     
  36 C36            6.1144    -6.8102    12.3954 C.3     
  37 C37            7.4422   -11.6687    13.1475 C.3     
  38 H38           -0.8313    -0.5005     0.0073 H       
  39 H39            3.7851    -4.1373    -0.5717 H       
  40 H40            5.0822    -2.9183    -0.5777 H       
  41 H41            8.0663    -6.0769     2.8014 H       
  42 H42            6.7692    -7.2959     2.8074 H       
  43 H43           -1.9035     1.8130    -0.8691 H       
  44 H44           -1.8951     1.8033     0.9108 H       
  45 H45            9.3156    -6.0998     8.5731 H       
  46 H46            9.7177    -7.6896    10.7117 H       
  47 H47            8.5346    -6.4278    11.1315 H       
  48 H48            4.9585    -2.7745     1.8946 H       
  49 H49            3.6614    -3.9935     1.9006 H       
  50 H50            5.1621    -5.5820     3.6000 H       
  51 H51            6.4592    -4.3630     3.5940 H       
  52 H52           -0.5758     6.4293     1.3361 H       
  53 H53           -2.0513     3.9056     2.9053 H       
  54 H54           -0.6825     2.8042     2.6194 H       
  55 H55           -0.3843     4.4697     3.1722 H       
  56 H56           -1.4990     7.2334    -1.7897 H       
  57 H57            0.1132     7.4866    -1.0791 H       
  58 H58           -0.0730     6.4568    -2.5189 H       
  59 H59            5.6596    -9.3859    13.6424 H       
  60 H60            6.5211    -6.2111    13.2102 H       
  61 H61            6.2401    -6.2760    11.4537 H       
  62 H62            5.0540    -6.9911    12.5717 H       
  63 H63            8.0286   -11.7266    14.0645 H       
  64 H64            6.4194   -11.9865    13.3497 H       
  65 H65            7.8827   -12.3204    12.3929 H       
@<TRIPOS>BOND
   1    1    2 am
   2    1   15 2
   3    1   16 1
   4    2    3 1
   5    2   38 1
   6    3    4 1
   7    3   11 2
   8    4    5 1
   9    5    6 1
  10    5   12 2
  11    6   21 1
  12    6   39 1
  13    6   40 1
  14    7    8 1
  15    7   22 1
  16    7   41 1
  17    7   42 1
  18    8    9 1
  19    8   13 2
  20    9   10 1
  21   10   17 1
  22   10   14 2
  23   11   12 1
  24   13   14 1
  25   16   23 1
  26   16   43 1
  27   16   44 1
  28   17   18 am
  29   17   45 1
  30   18   19 1
  31   18   20 2
  32   19   25 1
  33   19   46 1
  34   19   47 1
  35   21   31 1
  36   21   48 1
  37   21   49 1
  38   22   31 1
  39   22   50 1
  40   22   51 1
  41   23   24 1
  42   23   28 1
  43   24   26 2
  44   25   32 1
  45   25   35 1
  46   26   27 1
  47   26   30 1
  48   27   28 2
  49   27   52 1
  50   28   29 1
  51   29   53 1
  52   29   54 1
  53   29   55 1
  54   30   56 1
  55   30   57 1
  56   30   58 1
  57   32   33 2
  58   33   34 1
  59   33   37 1
  60   34   35 2
  61   34   59 1
  62   35   36 1
  63   36   60 1
  64   36   61 1
  65   36   62 1
  66   37   63 1
  67   37   64 1
  68   37   65 1

#	End of record

