#	Name: ASD01910225
#	Creating user name:	WinNT
#	Creation time:	15. 06. 2019 19:55

#	Modifying user name:	WinNT
#	Modification time:	15. 06. 2019 19:55

#	Program:	/corina/corina34_cracker 3.40 0067  02.08.2006

@<TRIPOS>MOLECULE
ASD01910225
  49   52    0    0    0
SMALL
NO_CHARGES


@<TRIPOS>ATOM
   1 C1            -0.0311     1.3115     0.0171 C.2     
   2 C2             1.1771     2.2122     0.0072 C.3     
   3 C3             1.1492     3.0905    -1.2458 C.3     
   4 C4             2.3925     3.9823    -1.2735 C.3     
   5 C5             2.3888     4.8951    -0.0432 C.3     
   6 N6             2.2694     4.0635     1.1622 N.am    
   7 C7             1.1596     3.1049     1.2520 C.3     
   8 C8             3.1611     4.1778     2.1663 C.2     
   9 C9             4.3251     5.0777     2.0224 C.ar    
  10 O10            3.0081     3.5410     3.1904 O.2     
  11 N11           -0.0249     0.0018     0.0227 N.2     
  12 C12           -1.3257    -0.3675     0.0316 C.2     
  13 N13           -2.0383     0.7291     0.0310 N.2     
  14 O14           -1.3103     1.6992     0.0278 O.3     
  15 C15           -1.8470    -1.7568     0.0398 C.ar    
  16 C16           -3.2213    -1.9874     0.0487 C.ar    
  17 C17           -3.7017    -3.2806     0.0558 C.ar    
  18 C18           -2.8198    -4.3494     0.0541 C.ar    
  19 C19           -1.4525    -4.1246     0.0453 C.ar    
  20 C20           -0.9637    -2.8346     0.0328 C.ar    
  21 F21           -3.2944    -5.6143     0.0615 F       
  22 C22            5.6220     4.5932     2.1953 C.ar    
  23 N23            6.6591     5.3947     2.0672 N.ar    
  24 C24            6.5194     6.6733     1.7738 C.ar    
  25 C25            5.2669     7.2305     1.5868 C.ar    
  26 C26            4.1450     6.4295     1.7046 C.ar    
  27 C27            5.8379     3.1402     2.5320 C.3     
  28 C28            7.7441     7.5413     1.6406 C.3     
  29 F29            8.8917     6.7496     1.7573 F       
  30 F30            7.7364     8.1700     0.3908 F       
  31 F31            7.7412     8.5100     2.6499 F       
  32 H32            2.0829     1.6059     0.0064 H       
  33 H33            1.1367     2.4572    -2.1329 H       
  34 H34            0.2552     3.7140    -1.2324 H       
  35 H35            3.2871     3.3598    -1.2620 H       
  36 H36            2.3837     4.5908    -2.1779 H       
  37 H37            3.3193     5.4615    -0.0057 H       
  38 H38            1.5432     5.5806    -0.0994 H       
  39 H39            0.2138     3.6444     1.3015 H       
  40 H40            1.2791     2.4901     2.1442 H       
  41 H41           -3.9093    -1.1549     0.0504 H       
  42 H42           -4.7666    -3.4602     0.0630 H       
  43 H43           -0.7686    -4.9604     0.0440 H       
  44 H44            0.1022    -2.6602     0.0259 H       
  45 H45            5.1662     8.2787     1.3470 H       
  46 H46            3.1553     6.8381     1.5635 H       
  47 H47            5.8485     2.5522     1.6143 H       
  48 H48            6.7908     3.0247     3.0485 H       
  49 H49            5.0307     2.7929     3.1769 H       
@<TRIPOS>BOND
   1    1   11 2
   2    1    2 1
   3    1   14 1
   4    2    3 1
   5    2    7 1
   6    2   32 1
   7    3    4 1
   8    3   33 1
   9    3   34 1
  10    4    5 1
  11    4   35 1
  12    4   36 1
  13    5    6 1
  14    5   37 1
  15    5   38 1
  16    6    7 1
  17    6    8 am
  18    7   39 1
  19    7   40 1
  20    8    9 1
  21    8   10 2
  22    9   22 ar
  23    9   26 ar
  24   11   12 1
  25   12   13 2
  26   12   15 1
  27   13   14 1
  28   15   16 ar
  29   15   20 ar
  30   16   17 ar
  31   16   41 1
  32   17   18 ar
  33   17   42 1
  34   18   19 ar
  35   18   21 1
  36   19   20 ar
  37   19   43 1
  38   20   44 1
  39   22   23 ar
  40   22   27 1
  41   23   24 ar
  42   24   25 ar
  43   24   28 1
  44   25   26 ar
  45   25   45 1
  46   26   46 1
  47   27   47 1
  48   27   48 1
  49   27   49 1
  50   28   29 1
  51   28   30 1
  52   28   31 1

#	End of record

