#	Name: ASD01913514
#	Creating user name:	WinNT
#	Creation time:	15. 06. 2019 20:01

#	Modifying user name:	WinNT
#	Modification time:	15. 06. 2019 20:01

#	Program:	/corina/corina34_cracker 3.40 0067  02.08.2006

@<TRIPOS>MOLECULE
ASD01913514
  38   40    0    0    0
SMALL
NO_CHARGES


@<TRIPOS>ATOM
   1 C1            -1.6095    -0.7830     2.4602 C.ar    
   2 C2            -1.4420    -0.0713     1.2748 C.ar    
   3 C3            -1.4907     1.3196     1.3285 C.ar    
   4 N4            -1.6927     1.9098     2.4947 N.ar    
   5 C5            -1.8467     1.2002     3.5947 C.ar    
   6 N6            -1.8073    -0.1171     3.5857 N.ar    
   7 C7            -1.0765    -2.1179     0.0450 C.ar    
   8 N8            -2.1479    -2.8964     0.0003 N.ar    
   9 C9            -2.0508    -4.2131    -0.0236 C.ar    
  10 C10           -0.8204    -4.8330    -0.0023 C.ar    
  11 C11            0.3361    -4.0520     0.0448 C.ar    
  12 C12            0.1983    -2.6683     0.0685 C.ar    
  13 N13            1.5985    -4.6450     0.0680 N.am    
  14 C14            2.6329    -4.0526    -0.5608 C.2     
  15 N15           -1.2301    -0.7355     0.0628 N.pl3   
  16 C16            3.9453    -4.7297    -0.6237 C.ar    
  17 O17            2.4867    -2.9615    -1.0761 O.2     
  18 C18            5.0186    -4.1189    -1.2742 C.ar    
  19 C19            6.2413    -4.7558    -1.3297 C.ar    
  20 C20            6.4053    -5.9976    -0.7430 C.ar    
  21 C21            5.3447    -6.6101    -0.0963 C.ar    
  22 C22            4.1181    -5.9803    -0.0279 C.ar    
  23 Cl23           5.5602    -8.1692     0.6360 Cl      
  24 C24           -1.1699     0.0244    -1.1882 C.3     
  25 H25           -1.5828    -1.8627     2.4596 H       
  26 H26           -1.3649     1.9074     0.4313 H       
  27 H27           -2.0100     1.7133     4.5308 H       
  28 H28           -2.9484    -4.8126    -0.0600 H       
  29 H29           -0.7514    -5.9106    -0.0214 H       
  30 H30            1.0697    -2.0313     0.1050 H       
  31 H31            1.7318    -5.4837     0.5367 H       
  32 H32            4.8922    -3.1496    -1.7334 H       
  33 H33            7.0723    -4.2838    -1.8328 H       
  34 H34            7.3644    -6.4919    -0.7897 H       
  35 H35            3.2916    -6.4582     0.4769 H       
  36 H36           -0.1400     0.3241    -1.3820 H       
  37 H37           -1.5279    -0.5975    -2.0087 H       
  38 H38           -1.7971     0.9120    -1.1047 H       
@<TRIPOS>BOND
   1    1    2 ar
   2    1    6 ar
   3    1   25 1
   4    2    3 ar
   5    2   15 1
   6    3    4 ar
   7    3   26 1
   8    4    5 ar
   9    5    6 ar
  10    5   27 1
  11    7    8 ar
  12    7   12 ar
  13    7   15 1
  14    8    9 ar
  15    9   10 ar
  16    9   28 1
  17   10   11 ar
  18   10   29 1
  19   11   12 ar
  20   11   13 1
  21   12   30 1
  22   13   14 am
  23   13   31 1
  24   14   16 1
  25   14   17 2
  26   15   24 1
  27   16   18 ar
  28   16   22 ar
  29   18   19 ar
  30   18   32 1
  31   19   20 ar
  32   19   33 1
  33   20   21 ar
  34   20   34 1
  35   21   22 ar
  36   21   23 1
  37   22   35 1
  38   24   36 1
  39   24   37 1
  40   24   38 1

#	End of record

