#	Name: ASD07301080
#	Creating user name:	WinNT
#	Creation time:	15. 06. 2019 21:10

#	Modifying user name:	WinNT
#	Modification time:	15. 06. 2019 21:10

#	Program:	/corina/corina34_cracker 3.40 0067  02.08.2006

@<TRIPOS>MOLECULE
ASD07301080
  38   39    0    0    0
SMALL
NO_CHARGES


@<TRIPOS>ATOM
   1 C1            -0.0169     1.4661     0.0592 C.2     
   2 C2             0.0021    -0.0040     0.0009 C.2     
   3 C3             1.2715    -0.6338    -0.0641 C.2     
   4 C4             2.3706     0.1578    -0.0680 C.2     
   5 N5             2.2550     1.5070    -0.0114 N.pl3   
   6 N6             1.1281     2.1149     0.0483 N.2     
   7 O7            -1.0314    -0.6546     0.0087 O.2     
   8 C8             3.4243     2.2747    -0.0184 C.ar    
   9 C9             3.3480     3.6587    -0.1151 C.ar    
  10 C10            4.5041     4.4135    -0.1213 C.ar    
  11 C11            5.7372     3.7934    -0.0314 C.ar    
  12 C12            5.8168     2.4163     0.0645 C.ar    
  13 C13            4.6640     1.6556     0.0770 C.ar    
  14 C14            4.4224     5.9146    -0.2265 C.3     
  15 F15            4.3457     6.4685     1.0558 F       
  16 F16            5.5625     6.3993    -0.8765 F       
  17 F17            3.2830     6.2695    -0.9567 F       
  18 C18           -1.2981     2.2007     0.1226 C.2     
  19 C19           -1.3009     3.6122     0.1782 C.2     
  20 C20           -2.4728     4.2841     0.2362 C.2     
  21 O21           -2.3516     1.5888     0.1270 O.2     
  22 N22           -2.4756     5.6483     0.2898 N.pl3   
  23 C23           -1.2088     6.3841     0.2845 C.3     
  24 C24           -3.7453     6.3764     0.3527 C.3     
  25 H25            1.3588    -1.7094    -0.1087 H       
  26 H26            3.3514    -0.2918    -0.1164 H       
  27 H27            2.3855     4.1434    -0.1856 H       
  28 H28            6.6400     4.3862    -0.0365 H       
  29 H29            6.7812     1.9353     0.1341 H       
  30 H30            4.7267     0.5804     0.1564 H       
  31 H31           -0.3671     4.1547     0.1743 H       
  32 H32           -3.4067     3.7417     0.2401 H       
  33 H33           -0.9223     6.6070    -0.7433 H       
  34 H34           -1.3271     7.3153     0.8387 H       
  35 H35           -0.4344     5.7777     0.7542 H       
  36 H36           -4.5720     5.6661     0.3471 H       
  37 H37           -3.7803     6.9674     1.2678 H       
  38 H38           -3.8283     7.0373    -0.5101 H       
@<TRIPOS>BOND
   1    1    2 1
   2    1    6 2
   3    1   18 1
   4    2    3 1
   5    2    7 2
   6    3    4 2
   7    3   25 1
   8    4    5 1
   9    4   26 1
  10    5    6 1
  11    5    8 1
  12    8    9 ar
  13    8   13 ar
  14    9   10 ar
  15    9   27 1
  16   10   11 ar
  17   10   14 1
  18   11   12 ar
  19   11   28 1
  20   12   13 ar
  21   12   29 1
  22   13   30 1
  23   14   15 1
  24   14   16 1
  25   14   17 1
  26   18   19 1
  27   18   21 2
  28   19   20 2
  29   19   31 1
  30   20   22 1
  31   20   32 1
  32   22   23 1
  33   22   24 1
  34   23   33 1
  35   23   34 1
  36   23   35 1
  37   24   36 1
  38   24   37 1
  39   24   38 1

#	End of record

