#	Name: ASD00960045
#	Creating user name:	WinNT
#	Creation time:	15. 06. 2019 18:53

#	Modifying user name:	WinNT
#	Modification time:	15. 06. 2019 18:53

#	Program:	/corina/corina34_cracker 3.40 0067  02.08.2006

@<TRIPOS>MOLECULE
ASD00960045
  40   42    0    0    0
SMALL
NO_CHARGES


@<TRIPOS>ATOM
   1 C1             0.0254     1.9428    -0.4377 C.3     
   2 C2             0.1845     0.4233    -0.6683 C.3     
   3 C3            -0.3445    -0.2118     0.6368 C.3     
   4 O4            -1.2376     0.7775     1.1931 O.3     
   5 C5            -0.5809     2.0459     0.9794 C.3     
   6 C6            -1.5962     3.1887     1.0424 C.3     
   7 C7            -1.0935    -1.4842     0.3350 C.2     
   8 C8            -0.5305    -2.7033     0.1849 C.2     
   9 N9            -2.4377    -1.5827     0.1780 N.pl3   
  10 C10           -2.7592    -2.8894    -0.0846 C.2     
  11 C11           -1.5674    -3.6248    -0.0865 C.2     
  12 N12           -3.4760    -0.6413     0.2359 N.2     
  13 C13           -4.7122    -1.0176     0.0421 C.2     
  14 N14           -5.0355    -2.2815    -0.2132 N.2     
  15 C15           -4.1147    -3.2285    -0.2849 C.2     
  16 O16           -2.1128     3.2942     2.3706 O.3     
  17 N17           -4.4758    -4.5349    -0.5519 N.pl3   
  18 C18           -0.6568    -0.0285    -1.8637 C.3     
  19 C19           -1.4237    -5.0655    -0.3231 C.2     
  20 O20           -2.1225    -5.6188    -1.1518 O.2     
  21 N21           -0.5177    -5.7763     0.3771 N.am    
  22 O22            1.2972     2.5925    -0.4867 O.3     
  23 *23            1.2437     3.9237    -0.9484 Du      
  24 O24            1.5590     0.0886    -0.8699 O.3     
  25 *25            2.1391     0.7026    -1.9989 Du      
  26 H26           -0.6507     2.3725    -1.1768 H       
  27 H27            0.4786    -0.4089     1.3237 H       
  28 H28            0.2060     2.1951     1.7188 H       
  29 H29           -1.1084     4.1237     0.7670 H       
  30 H30           -2.4133     2.9873     0.3497 H       
  31 H31            0.5223    -2.9324     0.2587 H       
  32 H32           -5.4972    -0.2775     0.0912 H       
  33 H33           -2.7639     4.0000     2.4845 H       
  34 H34           -5.3333    -4.7268    -0.9627 H       
  35 H35           -3.8718    -5.2603    -0.3286 H       
  36 H36           -0.3135     0.4822    -2.7634 H       
  37 H37           -0.5525    -1.1056    -1.9951 H       
  38 H38           -1.7038     0.2159    -1.6843 H       
  39 H39            0.0393    -5.3354     1.0376 H       
  40 H40           -0.4227    -6.7289     0.2207 H       
@<TRIPOS>BOND
   1    1    2 1
   2    1   22 1
   3    1    5 1
   4    1   26 1
   5    2   18 1
   6    2   24 1
   7    2    3 1
   8    3    4 1
   9    3    7 1
  10    3   27 1
  11    4    5 1
  12    5    6 1
  13    5   28 1
  14    6   16 1
  15    6   29 1
  16    6   30 1
  17    7    8 2
  18    7    9 1
  19    8   11 1
  20    8   31 1
  21    9   10 1
  22    9   12 1
  23   10   11 2
  24   10   15 1
  25   11   19 1
  26   12   13 2
  27   13   14 1
  28   13   32 1
  29   14   15 2
  30   15   17 1
  31   16   33 1
  32   17   34 1
  33   17   35 1
  34   18   36 1
  35   18   37 1
  36   18   38 1
  37   19   20 2
  38   19   21 am
  39   21   39 1
  40   21   40 1
  41   22   23 1
  42   24   25 1

#	End of record

