#	Name: ASD08070079
#	Creating user name:	WinNT
#	Creation time:	15. 06. 2019 21:14

#	Modifying user name:	WinNT
#	Modification time:	15. 06. 2019 21:14

#	Program:	/corina/corina34_cracker 3.40 0067  02.08.2006

@<TRIPOS>MOLECULE
ASD08070079
  45   46    0    0    0
SMALL
NO_CHARGES


@<TRIPOS>ATOM
   1 C1            -0.0166     1.3730     0.0096 C.ar    
   2 C2             0.0021    -0.0041     0.0020 C.ar    
   3 C3             1.1763     2.0860     0.0020 C.ar    
   4 C4             2.3926     1.4130    -0.0136 C.ar    
   5 C5             2.4197     0.0365    -0.0217 C.ar    
   6 C6             1.2224    -0.6842    -0.0133 C.ar    
   7 C7             1.2470    -2.1600    -0.0214 C.2     
   8 O8             2.3099    -2.7502    -0.0355 O.2     
   9 C9             0.2350    -4.8182    -1.4623 C.3     
  10 C10            0.1156    -4.3180    -0.0213 C.3     
  11 N11            0.0912    -2.8533    -0.0132 N.am    
  12 C12           -1.1767    -4.8530     0.5988 C.3     
  13 C13           -1.2357    -4.4573     2.0756 C.3     
  14 O14            1.1537     3.4429     0.0095 O.3     
  15 C15           -2.5086    -4.9843     2.6863 C.ar    
  16 C16           -0.1301     4.0703     0.0251 C.3     
  17 C17            3.6831     2.1912    -0.0223 C.3     
  18 C18           -2.5308    -6.2414     3.2610 C.ar    
  19 C19           -3.6526    -4.2084     2.6770 C.ar    
  20 C20           -4.8203    -4.6918     3.2372 C.ar    
  21 C21           -4.8440    -5.9512     3.8064 C.ar    
  22 C22           -3.6984    -6.7248     3.8212 C.ar    
  23 H23           -0.9595     1.8995     0.0169 H       
  24 H24           -0.9253    -0.5575     0.0082 H       
  25 H25            3.3651    -0.4856    -0.0346 H       
  26 H26            1.1557    -4.4370    -1.9041 H       
  27 H27            0.2532    -5.9080    -1.4683 H       
  28 H28           -0.6187    -4.4658    -2.0411 H       
  29 H29            0.9694    -4.6704     0.5575 H       
  30 H30           -0.7567    -2.3824    -0.0020 H       
  31 H31           -2.0336    -4.4297     0.0747 H       
  32 H32           -1.1985    -5.9394     0.5126 H       
  33 H33           -0.3789    -4.8807     2.5997 H       
  34 H34           -1.2140    -3.3710     2.1618 H       
  35 H35           -0.6907     3.7729    -0.8612 H       
  36 H36           -0.6737     3.7634     0.9187 H       
  37 H37           -0.0053     5.1531     0.0297 H       
  38 H38            4.0044     2.3733     1.0032 H       
  39 H39            4.4486     1.6194    -0.5468 H       
  40 H40            3.5297     3.1437    -0.5295 H       
  41 H41           -1.6359    -6.8460     3.2719 H       
  42 H42           -3.6341    -3.2244     2.2323 H       
  43 H43           -5.7139    -4.0852     3.2305 H       
  44 H44           -5.7562    -6.3288     4.2445 H       
  45 H45           -3.7170    -7.7088     4.2659 H       
@<TRIPOS>BOND
   1    1    2 ar
   2    1    3 ar
   3    1   23 1
   4    2    6 ar
   5    2   24 1
   6    3    4 ar
   7    3   14 1
   8    4    5 ar
   9    4   17 1
  10    5    6 ar
  11    5   25 1
  12    6    7 1
  13    7    8 2
  14    7   11 am
  15    9   10 1
  16    9   26 1
  17    9   27 1
  18    9   28 1
  19   10   12 1
  20   10   11 1
  21   10   29 1
  22   11   30 1
  23   12   13 1
  24   12   31 1
  25   12   32 1
  26   13   15 1
  27   13   33 1
  28   13   34 1
  29   14   16 1
  30   15   18 ar
  31   15   19 ar
  32   16   35 1
  33   16   36 1
  34   16   37 1
  35   17   38 1
  36   17   39 1
  37   17   40 1
  38   18   22 ar
  39   18   41 1
  40   19   20 ar
  41   19   42 1
  42   20   21 ar
  43   20   43 1
  44   21   22 ar
  45   21   44 1
  46   22   45 1

#	End of record

