#	Name: ASD01914342
#	Creating user name:	WinNT
#	Creation time:	15. 06. 2019 20:03

#	Modifying user name:	WinNT
#	Modification time:	15. 06. 2019 20:03

#	Program:	/corina/corina34_cracker 3.40 0067  02.08.2006

@<TRIPOS>MOLECULE
ASD01914342
  46   49    0    0    0
SMALL
NO_CHARGES


@<TRIPOS>ATOM
   1 C1             0.2351     1.1873     1.2992 C.2     
   2 N2             0.2240    -0.1182     1.2645 N.2     
   3 C3            -1.0170    -0.5206     0.9577 C.2     
   4 C4            -1.7758     0.5660     0.8020 C.2     
   5 O5            -0.9990     1.6379     1.0201 O.3     
   6 C6             1.4340     2.0466     1.6081 C.3     
   7 O7             2.1273     2.3503     0.3960 O.3     
   8 C8             3.2406     3.1228     0.4991 C.ar    
   9 C9             3.9625     3.4565    -0.6377 C.ar    
  10 C10            5.0939     4.2418    -0.5302 C.ar    
  11 C11            5.5071     4.6952     0.7089 C.ar    
  12 C12            4.7896     4.3637     1.8434 C.ar    
  13 C13            3.6540     3.5837     1.7406 C.ar    
  14 C14           -1.5068    -1.9500     0.8074 C.3     
  15 C15           -2.5225    -2.1977     1.9387 C.3     
  16 N16           -3.7722    -1.5233     1.6259 N.am    
  17 C17           -3.9945    -0.0862     1.6335 C.3     
  18 C18           -3.2511     0.5542     0.4456 C.3     
  19 C19           -4.8218    -2.3025     1.2979 C.2     
  20 O20           -5.9176    -1.8051     1.1253 O.2     
  21 C21           -4.6407    -3.7609     1.1482 C.ar    
  22 C22           -5.5166    -4.6446     1.7825 C.ar    
  23 C23           -3.5965    -4.2609     0.3673 C.ar    
  24 C24           -3.4321    -5.6226     0.2310 C.ar    
  25 C25           -4.3015    -6.4956     0.8672 C.ar    
  26 C26           -5.3431    -6.0044     1.6395 C.ar    
  27 F27           -4.1364    -7.8294     0.7296 F       
  28 H28            1.1054     2.9723     2.0805 H       
  29 H29            2.1008     1.5106     2.2836 H       
  30 H30            3.6404     3.1023    -1.6058 H       
  31 H31            5.6564     4.5015    -1.4149 H       
  32 H32            6.3919     5.3091     0.7908 H       
  33 H33            5.1148     4.7185     2.8103 H       
  34 H34            3.0940     3.3251     2.6270 H       
  35 H35           -1.9903    -2.0777    -0.1611 H       
  36 H36           -0.6698    -2.6419     0.9008 H       
  37 H37           -2.7023    -3.2682     2.0375 H       
  38 H38           -2.1245    -1.8084     2.8758 H       
  39 H39           -5.0619     0.1169     1.5463 H       
  40 H40           -3.6195     0.3346     2.5664 H       
  41 H41           -3.6047     1.5737     0.2912 H       
  42 H42           -3.4114    -0.0369    -0.4561 H       
  43 H43           -6.3283    -4.2631     2.3842 H       
  44 H44           -2.9192    -3.5819    -0.1292 H       
  45 H45           -2.6248    -6.0104    -0.3726 H       
  46 H46           -6.0172    -6.6887     2.1332 H       
@<TRIPOS>BOND
   1    1    2 2
   2    1    6 1
   3    1    5 1
   4    2    3 1
   5    3    4 2
   6    3   14 1
   7    4    5 1
   8    4   18 1
   9    6    7 1
  10    6   28 1
  11    6   29 1
  12    7    8 1
  13    8    9 ar
  14    8   13 ar
  15    9   10 ar
  16    9   30 1
  17   10   11 ar
  18   10   31 1
  19   11   12 ar
  20   11   32 1
  21   12   13 ar
  22   12   33 1
  23   13   34 1
  24   14   15 1
  25   14   35 1
  26   14   36 1
  27   15   16 1
  28   15   37 1
  29   15   38 1
  30   16   17 1
  31   16   19 am
  32   17   18 1
  33   17   39 1
  34   17   40 1
  35   18   41 1
  36   18   42 1
  37   19   20 2
  38   19   21 1
  39   21   22 ar
  40   21   23 ar
  41   22   26 ar
  42   22   43 1
  43   23   24 ar
  44   23   44 1
  45   24   25 ar
  46   24   45 1
  47   25   26 ar
  48   25   27 1
  49   26   46 1

#	End of record

