#	Name: ASD01911720
#	Creating user name:	WinNT
#	Creation time:	15. 06. 2019 19:58

#	Modifying user name:	WinNT
#	Modification time:	15. 06. 2019 19:58

#	Program:	/corina/corina34_cracker 3.40 0067  02.08.2006

@<TRIPOS>MOLECULE
ASD01911720
  37   39    0    0    0
SMALL
NO_CHARGES


@<TRIPOS>ATOM
   1 C1            -0.0144     1.2130     0.0087 C.2     
   2 O2            -0.0903     0.1732    -0.6194 O.2     
   3 S3             1.3239     3.7571    -0.1506 S.3     
   4 C4             3.0817     3.6536    -0.1137 C.2     
   5 N5             3.4421     2.3979    -0.0179 N.2     
   6 C6             2.4939     1.5055     0.0299 C.2     
   7 C7             1.2196     2.0020    -0.0270 C.2     
   8 C8             3.9776     4.7688    -0.1788 C.1     
   9 C9             4.7121     5.6831    -0.2321 C.1     
  10 C10            5.6081     6.7983    -0.2972 C.ar    
  11 C11            6.9901     6.5916    -0.2592 C.ar    
  12 C12            7.8489     7.6717    -0.3223 C.ar    
  13 C13            7.3431     8.9580    -0.4227 C.ar    
  14 C14            5.9742     9.1698    -0.4604 C.ar    
  15 C15            5.1046     8.0979    -0.4048 C.ar    
  16 N16           -1.0675     1.6414     0.7326 N.am    
  17 C17           -0.9508     2.8244     1.5960 C.3     
  18 F18            5.4891    10.4270    -0.5574 F       
  19 F19            9.1848     7.4737    -0.2857 F       
  20 C20           -2.0665     3.8102     1.2351 C.3     
  21 C21           -3.4186     3.0987     1.3232 C.3     
  22 C22           -3.4541     1.9415     0.3223 C.3     
  23 C23           -2.3558     0.9378     0.6686 C.3     
  24 H24            2.6991     0.4481     0.1086 H       
  25 H25            7.3856     5.5897    -0.1803 H       
  26 H26            8.0189     9.7991    -0.4714 H       
  27 H27            4.0380     8.2640    -0.4391 H       
  28 H28           -1.0501     2.5262     2.6397 H       
  29 H29            0.0190     3.2968     1.4395 H       
  30 H30           -2.0505     4.6486     1.9316 H       
  31 H31           -1.9138     4.1768     0.2201 H       
  32 H32           -3.5598     2.7108     2.3320 H       
  33 H33           -4.2161     3.8044     1.0908 H       
  34 H34           -4.4258     1.4498     0.3691 H       
  35 H35           -3.2883     2.3257    -0.6841 H       
  36 H36           -2.3132     0.1639    -0.0978 H       
  37 H37           -2.5670     0.4846     1.6371 H       
@<TRIPOS>BOND
   1    1    2 2
   2    1    7 1
   3    1   16 am
   4    3    4 1
   5    3    7 1
   6    4    5 2
   7    4    8 1
   8    5    6 1
   9    6    7 2
  10    6   24 1
  11    8    9 3
  12    9   10 1
  13   10   11 ar
  14   10   15 ar
  15   11   12 ar
  16   11   25 1
  17   12   13 ar
  18   12   19 1
  19   13   14 ar
  20   13   26 1
  21   14   15 ar
  22   14   18 1
  23   15   27 1
  24   16   17 1
  25   16   23 1
  26   17   20 1
  27   17   28 1
  28   17   29 1
  29   20   21 1
  30   20   30 1
  31   20   31 1
  32   21   22 1
  33   21   32 1
  34   21   33 1
  35   22   23 1
  36   22   34 1
  37   22   35 1
  38   23   36 1
  39   23   37 1

#	End of record

