#	Name: ASD03430056
#	Creating user name:	WinNT
#	Creation time:	15. 06. 2019 20:40

#	Modifying user name:	WinNT
#	Modification time:	15. 06. 2019 20:40

#	Program:	/corina/corina34_cracker 3.40 0067  02.08.2006

@<TRIPOS>MOLECULE
ASD03430056
  49   54    0    0    0
SMALL
NO_CHARGES


@<TRIPOS>ATOM
   1 C1             1.8797     1.2937    -1.0477 C.ar    
   2 C2             1.3063     0.0600    -0.7803 C.ar    
   3 C3             2.0950    -1.0016    -0.3900 C.ar    
   4 C4             3.4709    -0.8478    -0.2493 C.ar    
   5 C5             4.0434     0.3904    -0.5222 C.ar    
   6 C6             3.2541     1.4571    -0.9182 C.ar    
   7 O7             4.0572    -2.0054     0.1708 O.3     
   8 C8             1.7877    -2.4370    -0.0569 C.3     
   9 C9             3.1674    -3.1089    -0.0844 C.3     
  10 C10           -0.0834    -3.2366     1.0283 C.ar    
  11 C11            1.1200    -2.5833     1.2779 C.ar    
  12 C12            0.8444    -3.0617    -1.0445 C.2     
  13 N13           -0.2148    -3.5025    -0.3369 N.am    
  14 O14            1.0041    -3.1516    -2.2435 O.2     
  15 C15            1.4665    -2.2165     2.5643 C.ar    
  16 C16            0.6106    -2.5016     3.6208 C.ar    
  17 C17           -0.5849    -3.1509     3.3797 C.ar    
  18 C18           -0.9329    -3.5181     2.0957 C.ar    
  19 C19           -1.3696    -4.1810    -0.9304 C.3     
  20 O20            1.0879     2.3298    -1.4397 O.3     
  21 C21            1.6501     3.6430    -1.3401 C.3     
  22 C22            3.0680     3.6031    -1.9260 C.3     
  23 O23            3.8384     2.6602    -1.1737 O.3     
  24 O24            2.6435    -1.5781     2.7958 O.3     
  25 C25            2.9937    -1.3337     4.0858 C.ar    
  26 C26            3.7164    -2.2781     4.8007 C.ar    
  27 C27            4.0716    -2.0270     6.1118 C.ar    
  28 C28            2.9918     0.1094     6.0001 C.ar    
  29 C29            2.6342    -0.1368     4.6888 C.ar    
  30 C30            3.7071    -0.8359     6.7120 C.ar    
  31 H31            0.2386    -0.0698    -0.8776 H       
  32 H32            5.1110     0.5208    -0.4241 H       
  33 H33            3.3651    -3.5473    -1.0626 H       
  34 H34            3.2477    -3.8604     0.7010 H       
  35 H35            0.8786    -2.2162     4.6274 H       
  36 H36           -1.2506    -3.3727     4.2006 H       
  37 H37           -1.8691    -4.0262     1.9174 H       
  38 H38           -2.1211    -3.4424    -1.2094 H       
  39 H39           -1.0524    -4.7296    -1.8172 H       
  40 H40           -1.7945    -4.8759    -0.2060 H       
  41 H41            1.0391     4.3483    -1.9035 H       
  42 H42            1.6928     3.9463    -0.2941 H       
  43 H43            3.0257     3.2927    -2.9700 H       
  44 H44            3.5233     4.5908    -1.8539 H       
  45 H45            4.0007    -3.2089     4.3325 H       
  46 H46            4.6341    -2.7618     6.6686 H       
  47 H47            2.7125     1.0410     6.4698 H       
  48 H48            2.0758     0.6020     4.1331 H       
  49 H49            3.9852    -0.6418     7.7374 H       
@<TRIPOS>BOND
   1    1    2 ar
   2    1    6 ar
   3    1   20 1
   4    2    3 ar
   5    2   31 1
   6    3    4 ar
   7    3    8 1
   8    4    5 ar
   9    4    7 1
  10    5    6 ar
  11    5   32 1
  12    6   23 1
  13    7    9 1
  14    8    9 1
  15    8   11 1
  16    8   12 1
  17    9   33 1
  18    9   34 1
  19   10   11 ar
  20   10   13 1
  21   10   18 ar
  22   11   15 ar
  23   12   13 am
  24   12   14 2
  25   13   19 1
  26   15   16 ar
  27   15   24 1
  28   16   17 ar
  29   16   35 1
  30   17   18 ar
  31   17   36 1
  32   18   37 1
  33   19   38 1
  34   19   39 1
  35   19   40 1
  36   20   21 1
  37   21   22 1
  38   21   41 1
  39   21   42 1
  40   22   23 1
  41   22   43 1
  42   22   44 1
  43   24   25 1
  44   25   26 ar
  45   25   29 ar
  46   26   27 ar
  47   26   45 1
  48   27   30 ar
  49   27   46 1
  50   28   29 ar
  51   28   30 ar
  52   28   47 1
  53   29   48 1
  54   30   49 1

#	End of record

