#	Name: ASD01410754
#	Creating user name:	WinNT
#	Creation time:	15. 06. 2019 19:18

#	Modifying user name:	WinNT
#	Modification time:	15. 06. 2019 19:18

#	Program:	/corina/corina34_cracker 3.40 0067  02.08.2006

@<TRIPOS>MOLECULE
ASD01410754
 133  141    0    0    0
SMALL
NO_CHARGES


@<TRIPOS>ATOM
   1 C1             1.6837    -0.8795    -2.8937 C.3     
   2 C2             2.1318    -2.3457    -2.6920 C.3     
   3 N3             1.8523    -2.6243    -1.2681 N.am    
   4 C4             0.7550    -1.7525    -0.8310 C.3     
   5 C5             0.4021    -0.8297    -2.0179 C.3     
   6 O6             2.6727     0.0309    -2.4089 O.3     
   7 C7            -0.4432    -2.5858    -0.4557 C.2     
   8 O8            -0.3926    -3.7944    -0.5427 O.2     
   9 N9            -1.5711    -1.9879    -0.0235 N.am    
  10 C10           -2.7734    -2.7864     0.2277 C.3     
  11 C11           -3.3960    -3.4237    -0.9878 C.2     
  12 N12           -2.9110    -3.1502    -2.2152 N.am    
  13 O13           -4.3335    -4.1828    -0.8615 O.2     
  14 S14           -3.5129    -3.9428    -3.5388 S.o2    
  15 C15           -5.2410    -3.4013    -3.6435 C.3     
  16 C16           -2.8453    -3.5598     1.5459 C.3     
  17 C17           -3.7142    -2.3166     1.3391 C.3     
  18 C18           -6.1220    -4.0531    -4.7112 C.3     
  19 C19           -6.3216    -4.4047    -3.2356 C.3     
  20 O20           -2.7614    -3.4258    -4.6284 O.2     
  21 O21           -3.4415    -5.3176    -3.1865 O.2     
  22 C22           -3.5337    -4.9002     1.5296 C.2     
  23 C23           -2.8731    -5.9799     1.8672 C.2     
  24 C24            2.6391     1.2949    -2.8991 C.ar    
  25 C25            3.6171     2.2455    -2.5239 C.ar    
  26 C26            1.6600     1.6835    -3.7754 C.ar    
  27 C27            1.6473     2.9958    -4.2677 C.ar    
  28 N28            2.5634     3.8784    -3.9066 N.ar    
  29 C29            3.5454     3.5553    -3.0591 C.ar    
  30 C30            0.5859     3.4022    -5.2123 C.2     
  31 C31            4.5132     4.5028    -2.6824 C.ar    
  32 C32            5.5134     4.1423    -1.8072 C.ar    
  33 C33            5.5770     2.8452    -1.2901 C.ar    
  34 C34            4.6491     1.9110    -1.6351 C.ar    
  35 Cl35           4.4483     6.1173    -3.3172 Cl      
  36 O36            6.4493     5.0574    -1.4427 O.3     
  37 C37            7.4612     4.6230    -0.5320 C.3     
  38 N38            0.4586     4.5850    -5.7428 N.2     
  39 C39           -0.5478     4.7662    -6.5633 C.2     
  40 C40           -1.3367     3.7026    -6.7631 C.2     
  41 S41           -0.7059     2.3626    -5.8076 S.3     
  42 C42           -0.8012     6.0891    -7.2392 C.3     
  43 C43           -0.1615     6.0825    -8.6291 C.3     
  44 C44           -2.3089     6.3130    -7.3727 C.3     
  45 C45            3.6466    -2.4566    -2.8973 C.3     
  46 C46            3.7740    -4.1776    -1.0256 C.3     
  47 C47            2.5317    -3.5044    -0.5136 C.2     
  48 C48            3.5738    -5.6939    -0.9876 C.3     
  49 C49            3.1788    -6.1233     0.4287 C.3     
  50 C50            2.9041    -7.6294     0.4390 C.3     
  51 O51            1.8774    -7.9315    -0.5079 O.3     
  52 C52            2.2101    -7.5952    -1.8564 C.3     
  53 C53            2.4568    -6.0878    -1.9589 C.3     
  54 C54            8.4170     5.7818    -0.2411 C.3     
  55 N55            7.6701     6.8921     0.3651 N.3     
  56 C56            8.5724     7.9844     0.7512 C.3     
  57 C57            6.8764     6.4291     1.5105 C.3     
  58 C58            6.0032     7.5759     2.0247 C.3     
  59 C59            6.8989     8.7462     2.4402 C.3     
  60 C60            7.7498     9.1777     1.2427 C.3     
  61 O61            2.1348    -3.7602     0.6035 O.2     
  62 N62            4.0736    -3.7692    -2.3962 N.am    
  63 O63            5.1180    -4.1984    -4.4379 O.3     
  64 C64            5.8422    -5.1524    -5.2588 C.3     
  65 C65            4.9771    -6.3947    -5.4804 C.3     
  66 C66            6.1742    -4.5146    -6.6093 C.3     
  67 C67            7.1385    -5.5531    -4.5516 C.3     
  68 C68            4.7486    -4.6059    -3.2090 C.2     
  69 O69            5.0239    -5.7280    -2.8328 O.2     
  70 H70            1.4517    -0.6814    -3.9401 H       
  71 H71            1.5811    -3.0226    -3.3452 H       
  72 H72            1.0746    -1.1537     0.0219 H       
  73 H73            0.2107     0.1863    -1.6724 H       
  74 H74           -0.4552    -1.2190    -2.5670 H       
  75 H75           -1.5868    -1.0289     0.1214 H       
  76 H76           -2.2095    -2.4891    -2.3232 H       
  77 H77           -5.4188    -2.3500    -3.4174 H       
  78 H78           -1.9980    -3.4744     2.2263 H       
  79 H79           -3.4384    -1.4135     1.8837 H       
  80 H80           -4.7833    -2.4687     1.1913 H       
  81 H81           -6.8797    -3.4306    -5.1872 H       
  82 H82           -5.6632    -4.8072    -5.3507 H       
  83 H83           -5.9941    -5.3901    -2.9043 H       
  84 H84           -7.2106    -4.0136    -2.7408 H       
  85 H85           -4.5716    -4.9707     1.2395 H       
  86 H86           -1.8352    -5.9094     2.1572 H       
  87 H87           -3.3665    -6.9406     1.8555 H       
  88 H88            0.9009     0.9809    -4.0861 H       
  89 H89            6.3696     2.5822    -0.6053 H       
  90 H90            4.7097     0.9125    -1.2280 H       
  91 H91            6.9965     4.2932     0.3972 H       
  92 H92            8.0169     3.7959    -0.9739 H       
  93 H93           -2.2064     3.6703    -7.4027 H       
  94 H94           -0.3662     6.8911    -6.6428 H       
  95 H95           -0.3449     7.0394    -9.1179 H       
  96 H96            0.9125     5.9230    -8.5339 H       
  97 H97           -0.5965     5.2806    -9.2255 H       
  98 H98           -2.7646     6.3177    -6.3826 H       
  99 H99           -2.4922     7.2698    -7.8616 H       
 100 H100          -2.7439     5.5110    -7.9692 H       
 101 H101           3.8824    -2.3720    -3.9581 H       
 102 H102           4.1530    -1.6671    -2.3420 H       
 103 H103           4.6139    -3.9125    -0.3834 H       
 104 H104           4.5004    -6.1914    -1.2743 H       
 105 H105           3.9919    -5.8966     1.1182 H       
 106 H106           2.2804    -5.5871     0.7346 H       
 107 H107           3.8142    -8.1667     0.1723 H       
 108 H108           2.5811    -7.9331     1.4348 H       
 109 H109           3.1111    -8.1321    -2.1532 H       
 110 H110           1.3870    -7.8744    -2.5143 H       
 111 H111           1.5439    -5.5509    -1.7012 H       
 112 H112           2.7537    -5.8357    -2.9770 H       
 113 H113           9.1938     5.4480     0.4468 H       
 114 H114           8.8751     6.1172    -1.1715 H       
 115 H115           9.2328     7.6452     1.5493 H       
 116 H116           9.1687     8.2846    -0.1104 H       
 117 H117           6.2409     5.5995     1.2005 H       
 118 H118           7.5447     6.0971     2.3051 H       
 119 H119           5.3250     7.8992     1.2349 H       
 120 H120           5.4258     7.2363     2.8846 H       
 121 H121           6.2790     9.5813     2.7664 H       
 122 H122           7.5504     8.4343     3.2565 H       
 123 H123           8.4203     9.9826     1.5438 H       
 124 H124           7.0992     9.5262     0.4406 H       
 125 H125           4.0536    -6.1092    -5.9842 H       
 126 H126           5.5207    -7.1108    -6.0966 H       
 127 H127           4.7406    -6.8491    -4.5183 H       
 128 H128           6.7905    -3.6295    -6.4515 H       
 129 H129           6.7178    -5.2307    -7.2255 H       
 130 H130           5.2507    -4.2291    -7.1131 H       
 131 H131           6.9020    -6.0075    -3.5895 H       
 132 H132           7.6821    -6.2692    -5.1679 H       
 133 H133           7.7548    -4.6680    -4.3938 H       
@<TRIPOS>BOND
   1    1    2 1
   2    1    6 1
   3    1    5 1
   4    1   70 1
   5    2    3 1
   6    2   45 1
   7    2   71 1
   8    3    4 1
   9    3   47 am
  10    4    5 1
  11    4    7 1
  12    4   72 1
  13    5   73 1
  14    5   74 1
  15    6   24 1
  16    7    8 2
  17    7    9 am
  18    9   10 1
  19    9   75 1
  20   10   11 1
  21   10   16 1
  22   10   17 1
  23   11   12 am
  24   11   13 2
  25   12   14 am
  26   12   76 1
  27   14   15 1
  28   14   20 2
  29   14   21 2
  30   15   18 1
  31   15   19 1
  32   15   77 1
  33   16   17 1
  34   16   22 1
  35   16   78 1
  36   17   79 1
  37   17   80 1
  38   18   19 1
  39   18   81 1
  40   18   82 1
  41   19   83 1
  42   19   84 1
  43   22   23 2
  44   22   85 1
  45   23   86 1
  46   23   87 1
  47   24   25 ar
  48   24   26 ar
  49   25   29 ar
  50   25   34 ar
  51   26   27 ar
  52   26   88 1
  53   27   28 ar
  54   27   30 1
  55   28   29 ar
  56   29   31 ar
  57   30   38 2
  58   30   41 1
  59   31   32 ar
  60   31   35 1
  61   32   33 ar
  62   32   36 1
  63   33   34 ar
  64   33   89 1
  65   34   90 1
  66   36   37 1
  67   37   54 1
  68   37   91 1
  69   37   92 1
  70   38   39 1
  71   39   40 2
  72   39   42 1
  73   40   41 1
  74   40   93 1
  75   42   43 1
  76   42   44 1
  77   42   94 1
  78   43   95 1
  79   43   96 1
  80   43   97 1
  81   44   98 1
  82   44   99 1
  83   44  100 1
  84   45   62 1
  85   45  101 1
  86   45  102 1
  87   46   47 1
  88   46   48 1
  89   46   62 1
  90   46  103 1
  91   47   61 2
  92   48   49 1
  93   48   53 1
  94   48  104 1
  95   49   50 1
  96   49  105 1
  97   49  106 1
  98   50   51 1
  99   50  107 1
 100   50  108 1
 101   51   52 1
 102   52   53 1
 103   52  109 1
 104   52  110 1
 105   53  111 1
 106   53  112 1
 107   54   55 1
 108   54  113 1
 109   54  114 1
 110   55   56 1
 111   55   57 1
 112   56   60 1
 113   56  115 1
 114   56  116 1
 115   57   58 1
 116   57  117 1
 117   57  118 1
 118   58   59 1
 119   58  119 1
 120   58  120 1
 121   59   60 1
 122   59  121 1
 123   59  122 1
 124   60  123 1
 125   60  124 1
 126   62   68 am
 127   63   64 1
 128   63   68 1
 129   64   65 1
 130   64   66 1
 131   64   67 1
 132   65  125 1
 133   65  126 1
 134   65  127 1
 135   66  128 1
 136   66  129 1
 137   66  130 1
 138   67  131 1
 139   67  132 1
 140   67  133 1
 141   68   69 2

#	End of record

