#	Name: ASD01141025
#	Creating user name:	WinNT
#	Creation time:	15. 06. 2019 19:01

#	Modifying user name:	WinNT
#	Modification time:	15. 06. 2019 19:01

#	Program:	/corina/corina34_cracker 3.40 0067  02.08.2006

@<TRIPOS>MOLECULE
ASD01141025
  49   51    0    0    0
SMALL
NO_CHARGES


@<TRIPOS>ATOM
   1 P1            -0.3286     0.6620    -0.2891 P.3     
   2 O2            -0.1994    -0.8031    -0.1244 O.2     
   3 O3             1.1010     1.3585    -0.0374 O.3     
   4 O4            -0.8306     0.9919    -1.7829 O.3     
   5 O5            -1.3966     1.2295     0.7736 O.3     
   6 C6             1.6680     1.0410     1.1562 C.ar    
   7 C7             2.2681    -0.1972     1.3329 C.ar    
   8 C8             2.8438    -0.5175     2.5472 C.ar    
   9 C9             2.8221     0.3948     3.5859 C.ar    
  10 C10            2.2242     1.6293     3.4125 C.ar    
  11 C11            1.6526     1.9568     2.1982 C.ar    
  12 C12           -3.0726    -1.6855    -2.7534 C.2     
  13 C13           -4.4352    -1.1873    -2.3663 C.3     
  14 C14           -4.3168    -0.0010    -1.4068 C.3     
  15 C15           -3.3286     1.0120    -2.0033 C.3     
  16 N16           -2.0311     0.3343    -2.1454 N.pl3   
  17 N17           -2.0046    -0.9740    -2.6465 N.2     
  18 C18           -2.9506    -3.0593    -3.2762 C.ar    
  19 C19           -1.7005    -3.5600    -3.6474 C.ar    
  20 C20           -1.5933    -4.8464    -4.1353 C.ar    
  21 C21           -2.7230    -5.6404    -4.2576 C.ar    
  22 C22           -3.9644    -5.1490    -3.8916 C.ar    
  23 C23           -4.0838    -3.8669    -3.3966 C.ar    
  24 Cl24          -0.0410    -5.4713    -4.5974 Cl      
  25 Cl25          -2.5806    -7.2575    -4.8727 Cl      
  26 C26           -1.3027     0.9838     2.1782 C.3     
  27 C27           -1.4912     2.2975     2.9395 C.3     
  28 C28           -2.3899    -0.0083     2.5961 C.3     
  29 H29            2.2850    -0.9103     0.5219 H       
  30 H30            3.3108    -1.4815     2.6853 H       
  31 H31            3.2727     0.1425     4.5345 H       
  32 H32            2.2079     2.3399     4.2256 H       
  33 H33            1.1900     2.9231     2.0617 H       
  34 H34           -4.9726    -0.8747    -3.2616 H       
  35 H35           -4.9880    -1.9908    -1.8796 H       
  36 H36           -5.2926     0.4687    -1.2831 H       
  37 H37           -3.9485    -0.3466    -0.4409 H       
  38 H38           -3.6821     1.3430    -2.9798 H       
  39 H39           -3.2279     1.8678    -1.3358 H       
  40 H40           -0.8200    -2.9417    -3.5531 H       
  41 H41           -4.8409    -5.7723    -3.9898 H       
  42 H42           -5.0523    -3.4868    -3.1070 H       
  43 H43           -0.3224     0.5673     2.4095 H       
  44 H44           -2.4999     2.6742     2.7698 H       
  45 H45           -1.3425     2.1244     4.0053 H       
  46 H46           -0.7655     3.0298     2.5856 H       
  47 H47           -2.3740    -0.1298     3.6792 H       
  48 H48           -3.3646     0.3692     2.2872 H       
  49 H49           -2.2056    -0.9713     2.1198 H       
@<TRIPOS>BOND
   1    1    2 2
   2    1    3 1
   3    1    4 1
   4    1    5 1
   5    3    6 1
   6    4   16 1
   7    5   26 1
   8    6    7 ar
   9    6   11 ar
  10    7    8 ar
  11    7   29 1
  12    8    9 ar
  13    8   30 1
  14    9   10 ar
  15    9   31 1
  16   10   11 ar
  17   10   32 1
  18   11   33 1
  19   12   13 1
  20   12   17 2
  21   12   18 1
  22   13   14 1
  23   13   34 1
  24   13   35 1
  25   14   15 1
  26   14   36 1
  27   14   37 1
  28   15   16 1
  29   15   38 1
  30   15   39 1
  31   16   17 1
  32   18   19 ar
  33   18   23 ar
  34   19   20 ar
  35   19   40 1
  36   20   21 ar
  37   20   24 1
  38   21   22 ar
  39   21   25 1
  40   22   23 ar
  41   22   41 1
  42   23   42 1
  43   26   27 1
  44   26   28 1
  45   26   43 1
  46   27   44 1
  47   27   45 1
  48   27   46 1
  49   28   47 1
  50   28   48 1
  51   28   49 1

#	End of record

