#	Name: ASD03092490
#	Creating user name:	WinNT
#	Creation time:	15. 06. 2019 20:32

#	Modifying user name:	WinNT
#	Modification time:	15. 06. 2019 20:32

#	Program:	/corina/corina34_cracker 3.40 0067  02.08.2006

@<TRIPOS>MOLECULE
ASD03092490
  55   58    0    0    0
SMALL
NO_CHARGES


@<TRIPOS>ATOM
   1 O1             0.4846     0.3849     0.3502 O.3     
   2 N2             0.6567    -0.8091     0.3284 N.2     
   3 C3             1.9147    -1.1247     0.2379 C.2     
   4 C4             2.6353     0.1571     0.1980 C.2     
   5 C5             1.6215     1.0806     0.2764 C.2     
   6 C6             4.0870     0.3925     0.0989 C.2     
   7 O7             4.8530    -0.5501     0.0380 O.2     
   8 N8             4.5654     1.6522     0.0756 N.am    
   9 C9             2.5083    -2.5089     0.1855 C.3     
  10 C10            6.0083     1.8861    -0.0229 C.3     
  11 S11            6.7306     5.7576    -0.7213 S.3     
  12 C12            6.6127     5.3513     0.9349 C.2     
  13 N13            6.3778     4.0808     1.0717 N.2     
  14 C14            6.2775     3.3689    -0.0298 C.2     
  15 C15            6.4368     4.0785    -1.1665 C.2     
  16 N16            6.7483     6.2468     1.9800 N.3     
  17 C17            7.0086     7.6046     1.4799 C.3     
  18 C18            7.0922     8.5714     2.6641 C.3     
  19 O19            8.1061     8.1238     3.5679 O.3     
  20 C20            7.8840     6.8051     4.0749 C.3     
  21 C21            7.8084     5.8203     2.9051 C.3     
  22 C22            7.4423     9.9717     2.1565 C.3     
  23 F23            6.4525    10.4069     1.2687 F       
  24 F24            7.5185    10.8546     3.2391 F       
  25 F25            8.6759     9.9341     1.4977 F       
  26 C26            7.2689     3.3332    -4.7520 C.ar    
  27 C27            7.3658     3.8561    -3.4807 C.ar    
  28 C28            6.3753     3.5427    -2.5403 C.ar    
  29 C29            5.3251     2.7058    -2.9407 C.ar    
  30 C30            5.3078     2.2278    -4.2331 C.ar    
  31 N31            6.2618     2.5482    -5.0876 N.ar    
  32 C32            4.1845     1.3265    -4.6770 C.3     
  33 C33            8.3237     3.6670    -5.7753 C.3     
  34 H34            1.7239     2.1558     0.2780 H       
  35 H35            3.9544     2.4041     0.1242 H       
  36 H36            2.5801    -2.8344    -0.8522 H       
  37 H37            3.5028    -2.4949     0.6315 H       
  38 H38            1.8714    -3.1985     0.7394 H       
  39 H39            6.5095     1.4298     0.8308 H       
  40 H40            6.3859     1.4440    -0.9448 H       
  41 H41            7.9513     7.6165     0.9330 H       
  42 H42            6.1987     7.9098     0.8173 H       
  43 H43            6.1321     8.5998     3.1793 H       
  44 H44            8.7060     6.5252     4.7337 H       
  45 H45            6.9469     6.7821     4.6312 H       
  46 H46            7.5823     4.8232     3.2828 H       
  47 H47            8.7639     5.8038     2.3809 H       
  48 H48            8.1927     4.4973    -3.2132 H       
  49 H49            4.5415     2.4392    -2.2470 H       
  50 H50            3.3719     1.9306    -5.0806 H       
  51 H51            4.5478     0.6454    -5.4466 H       
  52 H52            3.8216     0.7517    -3.8250 H       
  53 H53            9.1237     2.9283    -5.7267 H       
  54 H54            7.8801     3.6572    -6.7709 H       
  55 H55            8.7302     4.6570    -5.5683 H       
@<TRIPOS>BOND
   1    1    2 1
   2    1    5 1
   3    2    3 2
   4    3    4 1
   5    3    9 1
   6    4    5 2
   7    4    6 1
   8    5   34 1
   9    6    7 2
  10    6    8 am
  11    8   10 1
  12    8   35 1
  13    9   36 1
  14    9   37 1
  15    9   38 1
  16   10   14 1
  17   10   39 1
  18   10   40 1
  19   11   12 1
  20   11   15 1
  21   12   13 2
  22   12   16 1
  23   13   14 1
  24   14   15 2
  25   15   28 1
  26   16   17 1
  27   16   21 1
  28   17   18 1
  29   17   41 1
  30   17   42 1
  31   18   19 1
  32   18   22 1
  33   18   43 1
  34   19   20 1
  35   20   21 1
  36   20   44 1
  37   20   45 1
  38   21   46 1
  39   21   47 1
  40   22   23 1
  41   22   24 1
  42   22   25 1
  43   26   27 ar
  44   26   31 ar
  45   26   33 1
  46   27   28 ar
  47   27   48 1
  48   28   29 ar
  49   29   30 ar
  50   29   49 1
  51   30   31 ar
  52   30   32 1
  53   32   50 1
  54   32   51 1
  55   32   52 1
  56   33   53 1
  57   33   54 1
  58   33   55 1

#	End of record

