#	Name: ASD01208750
#	Creating user name:	WinNT
#	Creation time:	15. 06. 2019 19:10

#	Modifying user name:	WinNT
#	Modification time:	15. 06. 2019 19:10

#	Program:	/corina/corina34_cracker 3.40 0067  02.08.2006

@<TRIPOS>MOLECULE
ASD01208750
  53   56    0    0    0
SMALL
NO_CHARGES


@<TRIPOS>ATOM
   1 C1            -0.6241     1.5495    -0.5838 C.2     
   2 C2            -0.3226     0.1088    -0.4476 C.ar    
   3 C3            -1.3539    -0.8035    -0.2211 C.ar    
   4 C4            -1.0669    -2.1526    -0.0940 C.ar    
   5 C5             0.2442    -2.5972    -0.1911 C.ar    
   6 C6             1.2723    -1.6935    -0.4156 C.ar    
   7 C7             0.9933    -0.3433    -0.5506 C.ar    
   8 O8             0.2757     2.3428    -0.7811 O.2     
   9 N9            -1.8972     1.9829    -0.4950 N.am    
  10 S10           -3.7437     4.0229    -0.5320 S.3     
  11 C11           -2.1805     3.3366    -0.6230 C.2     
  12 N12           -1.2979     4.2638    -0.8285 N.2     
  13 C13           -1.7439     5.5024    -0.9248 C.2     
  14 C14           -3.0661     5.6277    -0.7945 C.2     
  15 O15            2.5545    -2.1342    -0.5094 O.3     
  16 C16            4.8922    -1.6975    -0.0793 C.3     
  17 C17            3.5752    -1.1406    -0.6236 C.3     
  18 C18            3.7524    -0.7581    -2.0944 C.3     
  19 O19            5.3268    -2.7823    -0.9018 O.3     
  20 C20            6.5551    -3.3771    -0.4781 C.3     
  21 O21           -2.0704    -3.0420     0.1265 O.3     
  22 C22           -2.8423    -3.4078    -0.9304 C.ar    
  23 C23           -2.5276    -2.9638    -2.2039 C.ar    
  24 C24           -3.3231    -3.3420    -3.2862 C.ar    
  25 C25           -4.4315    -4.1660    -3.0774 C.ar    
  26 C26           -4.7356    -4.6024    -1.8045 C.ar    
  27 C27           -3.9430    -4.2313    -0.7337 C.ar    
  28 O28           -3.6728    -3.1596    -5.7743 O.3     
  29 C29           -2.9945    -2.8724    -4.6475 C.2     
  30 N30           -1.9844    -2.0956    -4.9812 N.2     
  31 N31           -2.0057    -1.8903    -6.2512 N.2     
  32 C32           -3.0290    -2.5271    -6.7784 C.2     
  33 C33           -3.3930    -2.5463    -8.1632 C.1     
  34 N34           -3.6817    -2.5615    -9.2618 N.1     
  35 H35           -2.3744    -0.4582    -0.1448 H       
  36 H36            0.4646    -3.6497    -0.0911 H       
  37 H37            1.7939     0.3589    -0.7306 H       
  38 H38           -2.6156     1.3495    -0.3416 H       
  39 H39           -1.0916     6.3460    -1.0956 H       
  40 H40           -3.6233     6.5516    -0.8416 H       
  41 H41            5.6483    -0.9124    -0.0840 H       
  42 H42            4.7429    -2.0521     0.9406 H       
  43 H43            3.2894    -0.2585    -0.0506 H       
  44 H44            2.8141    -0.3613    -2.4821 H       
  45 H45            4.5309    -0.0002    -2.1814 H       
  46 H46            4.0382    -1.6402    -2.6673 H       
  47 H47            7.3457    -2.6268    -0.4911 H       
  48 H48            6.4403    -3.7665     0.5335 H       
  49 H49            6.8163    -4.1918    -1.1536 H       
  50 H50           -1.6695    -2.3266    -2.3588 H       
  51 H51           -5.0503    -4.4611    -3.9119 H       
  52 H52           -5.5928    -5.2394    -1.6443 H       
  53 H53           -4.1833    -4.5799     0.2598 H       
@<TRIPOS>BOND
   1    1    2 1
   2    1    8 2
   3    1    9 am
   4    2    3 ar
   5    2    7 ar
   6    3    4 ar
   7    3   35 1
   8    4    5 ar
   9    4   21 1
  10    5    6 ar
  11    5   36 1
  12    6    7 ar
  13    6   15 1
  14    7   37 1
  15    9   11 1
  16    9   38 1
  17   10   11 1
  18   10   14 1
  19   11   12 2
  20   12   13 1
  21   13   14 2
  22   13   39 1
  23   14   40 1
  24   15   17 1
  25   16   17 1
  26   16   19 1
  27   16   41 1
  28   16   42 1
  29   17   18 1
  30   17   43 1
  31   18   44 1
  32   18   45 1
  33   18   46 1
  34   19   20 1
  35   20   47 1
  36   20   48 1
  37   20   49 1
  38   21   22 1
  39   22   23 ar
  40   22   27 ar
  41   23   24 ar
  42   23   50 1
  43   24   25 ar
  44   24   29 1
  45   25   26 ar
  46   25   51 1
  47   26   27 ar
  48   26   52 1
  49   27   53 1
  50   28   29 1
  51   28   32 1
  52   29   30 2
  53   30   31 1
  54   31   32 2
  55   32   33 1
  56   33   34 3

#	End of record

