#	Name: ASD01884489
#	Creating user name:	WinNT
#	Creation time:	15. 06. 2019 19:48

#	Modifying user name:	WinNT
#	Modification time:	15. 06. 2019 19:48

#	Program:	/corina/corina34_cracker 3.40 0067  02.08.2006

@<TRIPOS>MOLECULE
ASD01884489
  37   39    0    0    0
SMALL
NO_CHARGES


@<TRIPOS>ATOM
   1 C1            -0.0164     1.3574     0.0095 C.2     
   2 C2             0.0021    -0.0041     0.0020 C.2     
   3 C3             1.2457    -0.6736    -0.0135 C.2     
   4 C4             2.4034     0.0504    -0.0206 C.2     
   5 N5             2.3705     1.3996    -0.0131 N.am    
   6 C6             1.2000     2.0637     0.0017 C.2     
   7 C7             3.6273     2.1522    -0.0210 C.3     
   8 O8             1.1940     3.2839     0.0083 O.2     
   9 C9             4.0447     2.4179    -1.4445 C.ar    
  10 C10            3.6210     3.5670    -2.0857 C.ar    
  11 C11            4.0035     3.8112    -3.3912 C.ar    
  12 C12            4.8106     2.9055    -4.0563 C.ar    
  13 C13            5.2343     1.7557    -3.4140 C.ar    
  14 C14            4.8558     1.5153    -2.1066 C.ar    
  15 Cl15           5.2909     3.2113    -5.6962 Cl      
  16 C16            1.2938    -2.1555    -0.0214 C.ar    
  17 C17            0.1068    -2.8856    -0.0135 C.ar    
  18 N18            2.4668    -2.7759    -0.0414 N.ar    
  19 C19            2.5526    -4.0907    -0.0490 C.ar    
  20 C20            1.4151    -4.8764    -0.0369 C.ar    
  21 C21            0.1677    -4.2681    -0.0211 C.ar    
  22 C22            1.5285    -6.3791    -0.0463 C.3     
  23 H23           -0.9560     1.8899     0.0169 H       
  24 H24           -0.9213    -0.5642     0.0082 H       
  25 H25            3.3543    -0.4615    -0.0321 H       
  26 H26            3.4867     3.0997     0.4993 H       
  27 H27            4.4011     1.5726     0.4823 H       
  28 H28            2.9907     4.2738    -1.5666 H       
  29 H29            3.6721     4.7088    -3.8922 H       
  30 H30            5.8644     1.0483    -3.9327 H       
  31 H31            5.1865     0.6178    -1.6051 H       
  32 H32           -0.8473    -2.3796    -0.0013 H       
  33 H33            3.5246    -4.5611    -0.0654 H       
  34 H34           -0.7352    -4.8606    -0.0110 H       
  35 H35            1.5705    -6.7467     0.9790 H       
  36 H36            0.6612    -6.8057    -0.5500 H       
  37 H37            2.4359    -6.6716    -0.5747 H       
@<TRIPOS>BOND
   1    1    2 2
   2    1    6 1
   3    1   23 1
   4    2    3 1
   5    2   24 1
   6    3    4 2
   7    3   16 1
   8    4    5 1
   9    4   25 1
  10    5    6 am
  11    5    7 1
  12    6    8 2
  13    7    9 1
  14    7   26 1
  15    7   27 1
  16    9   10 ar
  17    9   14 ar
  18   10   11 ar
  19   10   28 1
  20   11   12 ar
  21   11   29 1
  22   12   13 ar
  23   12   15 1
  24   13   14 ar
  25   13   30 1
  26   14   31 1
  27   16   17 ar
  28   16   18 ar
  29   17   21 ar
  30   17   32 1
  31   18   19 ar
  32   19   20 ar
  33   19   33 1
  34   20   21 ar
  35   20   22 1
  36   21   34 1
  37   22   35 1
  38   22   36 1
  39   22   37 1

#	End of record

