#	Name: ASD04078001
#	Creating user name:	WinNT
#	Creation time:	15. 06. 2019 20:48

#	Modifying user name:	WinNT
#	Modification time:	15. 06. 2019 20:48

#	Program:	/corina/corina34_cracker 3.40 0067  02.08.2006

@<TRIPOS>MOLECULE
ASD04078001
  61   65    0    0    0
SMALL
NO_CHARGES


@<TRIPOS>ATOM
   1 C1             1.1819     3.2466     0.5457 C.3     
   2 C2             2.4872     3.7052     1.1991 C.3     
   3 C3             1.1453     4.0398     1.8535 C.3     
   4 C4             0.7460     3.9557    -0.7106 C.2     
   5 O5             1.4228     4.8533    -1.1663 O.2     
   6 N6            -0.3957     3.5926    -1.3278 N.am    
   7 C7            -0.8501     4.3125    -2.4407 C.ar    
   8 C8             0.0614     4.8367    -3.3478 C.ar    
   9 C9            -0.3859     5.5460    -4.4442 C.ar    
  10 C10           -1.7482     5.7355    -4.6402 C.ar    
  11 C11           -2.6598     5.2109    -3.7326 C.ar    
  12 C12           -2.2121     4.4968    -2.6394 C.ar    
  13 S13           -2.3195     6.6413    -6.0393 S.3     
  14 C14           -2.3211     5.3628    -7.2517 C.ar    
  15 N15           -2.5995     5.6679    -8.5109 N.ar    
  16 C16           -2.6095     4.7285    -9.4535 C.ar    
  17 C17           -2.3227     3.4124    -9.1015 C.ar    
  18 C18           -2.0351     3.1304    -7.7694 C.ar    
  19 N19           -2.0387     4.1225    -6.8817 N.ar    
  20 N20           -1.7439     1.8333    -7.3725 N.pl3   
  21 N21           -1.5616     2.4351    -5.0000 N.pl3   
  22 N22           -1.3648     1.7243    -3.8092 N.2     
  23 C23           -1.2625     0.4526    -4.0990 C.2     
  24 C24           -1.3898     0.3029    -5.4825 C.2     
  25 C25           -1.5739     1.5398    -6.0211 C.2     
  26 C26           -1.0440    -0.6620    -3.1086 C.3     
  27 N27           -2.9022     5.0560   -10.7683 N.3     
  28 C28           -3.1715     6.4942   -10.9054 C.3     
  29 C29           -3.4111     6.8274   -12.3798 C.3     
  30 N30           -4.5409     6.0327   -12.8816 N.3     
  31 C31           -4.2716     4.5946   -12.7445 C.3     
  32 C32           -4.0319     4.2614   -11.2700 C.3     
  33 C33           -4.8510     6.3798   -14.2749 C.3     
  34 H34            0.9407     2.1848     0.5942 H       
  35 H35            3.1047     2.9449     1.6774 H       
  36 H36            3.0307     4.5197     0.7202 H       
  37 H37            0.8060     5.0745     1.8052 H       
  38 H38            0.8801     3.4998     2.7624 H       
  39 H39           -0.9029     2.8328    -1.0016 H       
  40 H40            1.1205     4.6898    -3.1952 H       
  41 H41            0.3230     5.9540    -5.1494 H       
  42 H42           -3.7189     5.3581    -3.8847 H       
  43 H43           -2.9210     4.0850    -1.9363 H       
  44 H44           -2.3237     2.6287    -9.8447 H       
  45 H45           -1.6587     1.1307    -8.0359 H       
  46 H46           -1.6733     3.3953    -5.0805 H       
  47 H47           -1.3487    -0.6285    -6.0278 H       
  48 H48           -2.0080    -1.0368    -2.7648 H       
  49 H49           -0.4898    -1.4696    -3.5868 H       
  50 H50           -0.4760    -0.2858    -2.2577 H       
  51 H51           -4.0565     6.7553   -10.3251 H       
  52 H52           -2.3156     7.0610   -10.5389 H       
  53 H53           -3.6397     7.8884   -12.4804 H       
  54 H54           -2.5164     6.5916   -12.9560 H       
  55 H55           -5.1274     4.0277   -13.1109 H       
  56 H56           -3.3866     4.3334   -13.3248 H       
  57 H57           -3.8034     3.2004   -11.1694 H       
  58 H58           -4.9267     4.4972   -10.6939 H       
  59 H59           -3.9804     6.1834   -14.9006 H       
  60 H60           -5.6907     5.7772   -14.6212 H       
  61 H61           -5.1120     7.4363   -14.3367 H       
@<TRIPOS>BOND
   1    1    2 1
   2    1    3 1
   3    1    4 1
   4    1   34 1
   5    2    3 1
   6    2   35 1
   7    2   36 1
   8    3   37 1
   9    3   38 1
  10    4    5 2
  11    4    6 am
  12    6    7 1
  13    6   39 1
  14    7    8 ar
  15    7   12 ar
  16    8    9 ar
  17    8   40 1
  18    9   10 ar
  19    9   41 1
  20   10   11 ar
  21   10   13 1
  22   11   12 ar
  23   11   42 1
  24   12   43 1
  25   13   14 1
  26   14   15 ar
  27   14   19 ar
  28   15   16 ar
  29   16   17 ar
  30   16   27 1
  31   17   18 ar
  32   17   44 1
  33   18   19 ar
  34   18   20 1
  35   20   25 1
  36   20   45 1
  37   21   22 1
  38   21   25 1
  39   21   46 1
  40   22   23 2
  41   23   24 1
  42   23   26 1
  43   24   25 2
  44   24   47 1
  45   26   48 1
  46   26   49 1
  47   26   50 1
  48   27   28 1
  49   27   32 1
  50   28   29 1
  51   28   51 1
  52   28   52 1
  53   29   30 1
  54   29   53 1
  55   29   54 1
  56   30   31 1
  57   30   33 1
  58   31   32 1
  59   31   55 1
  60   31   56 1
  61   32   57 1
  62   32   58 1
  63   33   59 1
  64   33   60 1
  65   33   61 1

#	End of record

