#	Name: ASD04170002
#	Creating user name:	WinNT
#	Creation time:	15. 06. 2019 20:48

#	Modifying user name:	WinNT
#	Modification time:	15. 06. 2019 20:48

#	Program:	/corina/corina34_cracker 3.40 0067  02.08.2006

@<TRIPOS>MOLECULE
ASD04170002
  38   40    0    0    0
SMALL
NO_CHARGES


@<TRIPOS>ATOM
   1 C1            -0.0180     1.4730     0.0101 C.2     
   2 C2             0.0021    -0.0041     0.0020 C.ar    
   3 C3             1.2194    -0.6883    -0.0133 C.ar    
   4 C4             1.2324    -2.0666    -0.0203 C.ar    
   5 C5             0.0396    -2.7736    -0.0127 C.ar    
   6 C6            -1.1718    -2.0993     0.0025 C.ar    
   7 C7            -1.1962    -0.7212     0.0154 C.ar    
   8 O8             1.0265     2.0951     0.0035 O.2     
   9 N9            -1.1942     2.1309     0.0193 N.am    
  10 C10           -1.2140     3.5958     0.0274 C.3     
  11 N11           -3.3770     3.4845     1.1717 N.3     
  12 C12           -2.6633     4.0861     0.0369 C.3     
  13 C13           -2.6859     5.6111     0.1742 C.3     
  14 C14           -3.4493     5.9823     1.4517 C.3     
  15 C15           -2.7448     5.3321     2.6490 C.3     
  16 C16           -2.7199     3.8147     2.4435 C.3     
  17 C17           -4.8714     5.4155     1.3540 C.3     
  18 C18           -4.7876     3.8961     1.1838 C.3     
  19 F19            0.0580    -4.1245    -0.0206 F       
  20 H20           -3.1512     3.7971    -0.8940 H       
  21 H21            2.1490    -0.1385    -0.0199 H       
  22 H22            2.1732    -2.5967    -0.0322 H       
  23 H23           -2.0979    -2.6549     0.0084 H       
  24 H24           -2.1403    -0.1969     0.0314 H       
  25 H25           -2.0276     1.6346     0.0206 H       
  26 H26           -0.7010     3.9612     0.9169 H       
  27 H27           -0.7094     3.9709    -0.8630 H       
  28 H28           -1.6647     5.9873     0.2366 H       
  29 H29           -3.1859     6.0482    -0.6901 H       
  30 H30           -3.4725     7.0652     1.5733 H       
  31 H31           -1.7241     5.7078     2.7203 H       
  32 H32           -3.2876     5.5678     3.5644 H       
  33 H33           -3.2486     3.3280     3.2631 H       
  34 H34           -1.6869     3.4678     2.4199 H       
  35 H35           -5.4218     5.6512     2.2649 H       
  36 H36           -5.3801     5.8518     0.4945 H       
  37 H37           -5.2582     3.6090     0.2435 H       
  38 H38           -5.3017     3.4084     2.0120 H       
@<TRIPOS>BOND
   1    1    2 1
   2    1    8 2
   3    1    9 am
   4    2    3 ar
   5    2    7 ar
   6    3    4 ar
   7    3   21 1
   8    4    5 ar
   9    4   22 1
  10    5    6 ar
  11    5   19 1
  12    6    7 ar
  13    6   23 1
  14    7   24 1
  15    9   10 1
  16    9   25 1
  17   10   12 1
  18   10   26 1
  19   10   27 1
  20   11   16 1
  21   11   18 1
  22   11   12 1
  23   12   13 1
  24   12   20 1
  25   13   14 1
  26   13   28 1
  27   13   29 1
  28   14   15 1
  29   14   17 1
  30   14   30 1
  31   15   16 1
  32   15   31 1
  33   15   32 1
  34   16   33 1
  35   16   34 1
  36   17   18 1
  37   17   35 1
  38   17   36 1
  39   18   37 1
  40   18   38 1

#	End of record

