#	Name: ASD04230019
#	Creating user name:	WinNT
#	Creation time:	15. 06. 2019 20:48

#	Modifying user name:	WinNT
#	Modification time:	15. 06. 2019 20:48

#	Program:	/corina/corina34_cracker 3.40 0067  02.08.2006

@<TRIPOS>MOLECULE
ASD04230019
  48   52    0    0    0
SMALL
NO_CHARGES


@<TRIPOS>ATOM
   1 C1             1.5359     4.6862     1.7199 C.ar    
   2 C2             2.5438     5.3840     2.3697 C.ar    
   3 C3             3.8003     4.8590     2.4683 C.ar    
   4 C4             4.0824     3.6080     1.9006 C.ar    
   5 C5             3.0563     2.8818     1.2694 C.ar    
   6 C6             1.7831     3.4396     1.1728 C.ar    
   7 C7             5.3933     3.0678     1.9622 C.2     
   8 C8             5.6627     1.9284     1.2158 C.2     
   9 C9             4.5671     1.3877     0.3906 C.2     
  10 O10            3.2978     1.6422     0.7795 O.3     
  11 C11            6.9878     1.2871     1.2467 C.2     
  12 N12            7.2188     0.1818     0.5109 N.am    
  13 O13            7.8739     1.7548     1.9362 O.2     
  14 C14            8.5060    -0.3624     0.4514 C.ar    
  15 C15            8.6752    -1.7392     0.3692 C.ar    
  16 C16            9.9454    -2.2817     0.3107 C.ar    
  17 C17           11.0535    -1.4596     0.3335 C.ar    
  18 C18           10.8940    -0.0753     0.4160 C.ar    
  19 C19            9.6131     0.4723     0.4687 C.ar    
  20 C20           12.0803     0.8080     0.4416 C.2     
  21 N21           12.0446     2.1157     0.5175 N.2     
  22 C22           13.3078     2.6064     0.5197 C.ar    
  23 C23           14.1804     1.5066     0.4386 C.ar    
  24 N24           13.3802     0.3819     0.3955 N.pl3   
  25 C25           13.8364     3.8999     0.5832 C.ar    
  26 C26           15.1897     4.0837     0.5660 C.ar    
  27 C27           16.0508     2.9983     0.4859 C.ar    
  28 C28           15.5529     1.7140     0.4223 C.ar    
  29 O29            4.7981     0.7331    -0.6087 O.2     
  30 O30            0.7868     2.7609     0.5437 O.3     
  31 C31           -0.4923     3.3950     0.4832 C.3     
  32 H32            0.5487     5.1178     1.6445 H       
  33 H33            2.3326     6.3514     2.8011 H       
  34 H34            4.5762     5.4065     2.9827 H       
  35 H35            6.1575     3.5287     2.5705 H       
  36 H36            6.4924    -0.2364     0.0225 H       
  37 H37            7.8117    -2.3876     0.3513 H       
  38 H38           10.0709    -3.3525     0.2472 H       
  39 H39           12.0442    -1.8872     0.2880 H       
  40 H40            9.4837     1.5427     0.5322 H       
  41 H41           13.6827    -0.5379     0.3377 H       
  42 H42           13.1755     4.7518     0.6454 H       
  43 H43           15.5938     5.0841     0.6148 H       
  44 H44           17.1184     3.1607     0.4729 H       
  45 H45           16.2278     0.8732     0.3604 H       
  46 H46           -1.1939     2.7482    -0.0436 H       
  47 H47           -0.8556     3.5776     1.4945 H       
  48 H48           -0.4033     4.3429    -0.0475 H       
@<TRIPOS>BOND
   1    1    2 ar
   2    1    6 ar
   3    1   32 1
   4    2    3 ar
   5    2   33 1
   6    3    4 ar
   7    3   34 1
   8    4    5 ar
   9    4    7 1
  10    5    6 ar
  11    5   10 1
  12    6   30 1
  13    7    8 2
  14    7   35 1
  15    8    9 1
  16    8   11 1
  17    9   10 1
  18    9   29 2
  19   11   12 am
  20   11   13 2
  21   12   14 1
  22   12   36 1
  23   14   15 ar
  24   14   19 ar
  25   15   16 ar
  26   15   37 1
  27   16   17 ar
  28   16   38 1
  29   17   18 ar
  30   17   39 1
  31   18   19 ar
  32   18   20 1
  33   19   40 1
  34   20   21 2
  35   20   24 1
  36   21   22 1
  37   22   23 ar
  38   22   25 ar
  39   23   24 1
  40   23   28 ar
  41   24   41 1
  42   25   26 ar
  43   25   42 1
  44   26   27 ar
  45   26   43 1
  46   27   28 ar
  47   27   44 1
  48   28   45 1
  49   30   31 1
  50   31   46 1
  51   31   47 1
  52   31   48 1

#	End of record

