#	Name: ASD03331901
#	Creating user name:	WinNT
#	Creation time:	15. 06. 2019 20:40

#	Modifying user name:	WinNT
#	Modification time:	15. 06. 2019 20:40

#	Program:	/corina/corina34_cracker 3.40 0067  02.08.2006

@<TRIPOS>MOLECULE
ASD03331901
  60   62    0    0    0
SMALL
NO_CHARGES


@<TRIPOS>ATOM
   1 C1            -0.0617     2.0042     1.7840 C.2     
   2 N2            -0.1508     0.7126     2.1996 N.pl3   
   3 C3             1.0662     0.1312     1.9938 C.2     
   4 N4             1.8796     1.0302     1.4905 N.2     
   5 C5             1.2147     2.1985     1.3514 C.2     
   6 C6             1.7716     3.4575     0.8262 C.2     
   7 O7             1.0693     4.4475     0.7487 O.2     
   8 N8             3.0591     3.5121     0.4315 N.am    
   9 C9             3.6128     4.7638    -0.0908 C.3     
  10 C10            3.3030     4.8743    -1.5850 C.3     
  11 C11            4.0095     3.7447    -2.3372 C.3     
  12 C12            5.1056     4.7774     0.1151 C.2     
  13 C13            1.7924     4.7649    -1.8022 C.3     
  14 C14            3.7973     6.2238    -2.1099 C.3     
  15 O15            5.6884     3.7513     0.3953 O.2     
  16 N16            5.7929     5.9297    -0.0121 N.am    
  17 C17            7.2524     5.9298     0.1149 C.3     
  18 C18           -1.3428     0.0856     2.7771 C.3     
  19 C19           -2.5595     0.4284     1.9117 C.3     
  20 C20           -3.1674     1.7480     2.3760 C.3     
  21 N21           -2.1325     2.6636     2.8602 N.3     
  22 C22           -1.1830     3.0106     1.7923 C.3     
  23 C23           -2.7299     3.8710     3.4462 C.3     
  24 C24            1.4114    -1.2759     2.2890 C.ar    
  25 C25            1.0537    -1.8428     3.5126 C.ar    
  26 C26            1.3780    -3.1557     3.7833 C.ar    
  27 C27            2.0584    -3.9133     2.8429 C.ar    
  28 C28            2.4175    -3.3573     1.6259 C.ar    
  29 C29            2.0925    -2.0450     1.3411 C.ar    
  30 F30            2.4423    -1.5030     0.1540 F       
  31 F31            2.3730    -5.1988     3.1144 F       
  32 H32            3.6192     2.7225     0.4932 H       
  33 H33            3.1656     5.6067     0.4363 H       
  34 H34            3.6574     2.7833    -1.9632 H       
  35 H35            3.7888     3.8234    -3.4017 H       
  36 H36            5.0856     3.8226    -2.1825 H       
  37 H37            1.2891     5.5697    -1.2663 H       
  38 H38            1.5718     4.8436    -2.8667 H       
  39 H39            1.4403     3.8035    -1.4282 H       
  40 H40            4.8415     6.3622    -1.8296 H       
  41 H41            3.7065     6.2466    -3.1959 H       
  42 H42            3.1960     7.0239    -1.6782 H       
  43 H43            5.3213     6.7589    -0.1877 H       
  44 H44            7.6285     6.9443    -0.0170 H       
  45 H45            7.5312     5.5646     1.1034 H       
  46 H46            7.6835     5.2806    -0.6472 H       
  47 H47           -1.2085    -0.9958     2.8049 H       
  48 H48           -1.4980     0.4606     3.7887 H       
  49 H49           -2.2498     0.5185     0.8705 H       
  50 H50           -3.3025    -0.3642     2.0007 H       
  51 H51           -3.6940     2.2122     1.5422 H       
  52 H52           -3.8761     1.5518     3.1806 H       
  53 H53           -0.7780     4.0061     1.9739 H       
  54 H54           -1.6948     2.9941     0.8300 H       
  55 H55           -3.3682     3.5905     4.2841 H       
  56 H56           -1.9392     4.5337     3.7978 H       
  57 H57           -3.3257     4.3845     2.6916 H       
  58 H58            0.5238    -1.2543     4.2469 H       
  59 H59            1.1014    -3.5946     4.7306 H       
  60 H60            2.9482    -3.9518     0.8970 H       
@<TRIPOS>BOND
   1    1    2 1
   2    1    5 2
   3    1   22 1
   4    2    3 1
   5    2   18 1
   6    3    4 2
   7    3   24 1
   8    4    5 1
   9    5    6 1
  10    6    7 2
  11    6    8 am
  12    8    9 1
  13    8   32 1
  14    9   10 1
  15    9   12 1
  16    9   33 1
  17   10   11 1
  18   10   13 1
  19   10   14 1
  20   11   34 1
  21   11   35 1
  22   11   36 1
  23   12   15 2
  24   12   16 am
  25   13   37 1
  26   13   38 1
  27   13   39 1
  28   14   40 1
  29   14   41 1
  30   14   42 1
  31   16   17 1
  32   16   43 1
  33   17   44 1
  34   17   45 1
  35   17   46 1
  36   18   19 1
  37   18   47 1
  38   18   48 1
  39   19   20 1
  40   19   49 1
  41   19   50 1
  42   20   21 1
  43   20   51 1
  44   20   52 1
  45   21   22 1
  46   21   23 1
  47   22   53 1
  48   22   54 1
  49   23   55 1
  50   23   56 1
  51   23   57 1
  52   24   25 ar
  53   24   29 ar
  54   25   26 ar
  55   25   58 1
  56   26   27 ar
  57   26   59 1
  58   27   28 ar
  59   27   31 1
  60   28   29 ar
  61   28   60 1
  62   29   30 1

#	End of record

