#	Name: ASD03740228
#	Creating user name:	WinNT
#	Creation time:	15. 06. 2019 20:46

#	Modifying user name:	WinNT
#	Modification time:	15. 06. 2019 20:46

#	Program:	/corina/corina34_cracker 3.40 0067  02.08.2006

@<TRIPOS>MOLECULE
ASD03740228
  50   53    0    0    0
SMALL
NO_CHARGES


@<TRIPOS>ATOM
   1 C1             0.9635     3.4946    -1.0092 C.ar    
   2 C2             1.8621     3.9840    -1.9493 C.ar    
   3 C3             3.2156     3.9827    -1.6746 C.ar    
   4 C4             3.6823     3.4959    -0.4676 C.ar    
   5 C5             2.7916     3.0076     0.4734 C.ar    
   6 C6             1.4416     3.0097     0.2035 C.ar    
   7 C7            -5.1969    10.0351     0.7358 C.3     
   8 S8             0.2828     2.4012     1.3860 S.o2    
   9 N9            -1.2057     2.9244     0.8763 N.am    
  10 C10           -1.3744     3.3844    -0.3239 C.2     
  11 N11           -0.4020     3.4831    -1.2780 N.pl3   
  12 C12           -2.7281     3.8364    -0.6897 C.2     
  13 C13           -3.7760     2.9213    -0.7633 C.2     
  14 C14           -5.1057     3.4193    -1.1316 C.ar    
  15 C15           -5.2725     4.7911    -1.3948 C.ar    
  16 N16           -4.1939     5.6470    -1.3052 N.am    
  17 C17           -2.9724     5.2048    -0.9628 C.2     
  18 C18           -6.1994     2.5530    -1.2237 C.ar    
  19 C19           -7.4264     3.0448    -1.5693 C.ar    
  20 C20           -7.5958     4.3975    -1.8303 C.ar    
  21 C21           -6.5315     5.2691    -1.7445 C.ar    
  22 O22           -3.5730     1.6116    -0.5032 O.3     
  23 O23           -2.0511     5.9989    -0.8912 O.2     
  24 C24           -4.3868     7.0724    -1.5828 C.3     
  25 C25           -4.7526     7.7994    -0.2872 C.3     
  26 C26           -4.9541     9.2881    -0.5772 C.3     
  27 C27           -6.1624     9.4694    -1.4981 C.3     
  28 O28            0.2801     0.9858     1.2595 O.2     
  29 O29            0.5547     3.0784     2.6053 O.2     
  30 H30            1.5026     4.3646    -2.8940 H       
  31 H31            3.9129     4.3635    -2.4062 H       
  32 H32            4.7419     3.4962    -0.2587 H       
  33 H33            3.1547     2.6266     1.4164 H       
  34 H34           -4.3361     9.9060     1.3919 H       
  35 H35           -5.3404    11.0957     0.5293 H       
  36 H36           -6.0872     9.6358     1.2217 H       
  37 H37           -0.6815     3.5511    -2.2044 H       
  38 H38           -6.0747     1.4992    -1.0227 H       
  39 H39           -8.2711     2.3756    -1.6404 H       
  40 H40           -8.5717     4.7710    -2.1030 H       
  41 H41           -6.6742     6.3199    -1.9493 H       
  42 H42           -2.6470     1.3804    -0.3480 H       
  43 H43           -3.4655     7.4918    -1.9870 H       
  44 H44           -5.1910     7.1957    -2.3082 H       
  45 H45           -5.6739     7.3800     0.1170 H       
  46 H46           -3.9484     7.6761     0.4381 H       
  47 H47           -4.0638     9.6874    -1.0631 H       
  48 H48           -7.0527     9.0701    -1.0122 H       
  49 H49           -6.3059    10.5300    -1.7046 H       
  50 H50           -5.9894     8.9372    -2.4334 H       
@<TRIPOS>BOND
   1    1    2 ar
   2    1    6 ar
   3    1   11 1
   4    2    3 ar
   5    2   30 1
   6    3    4 ar
   7    3   31 1
   8    4    5 ar
   9    4   32 1
  10    5    6 ar
  11    5   33 1
  12    6    8 1
  13    7   26 1
  14    7   34 1
  15    7   35 1
  16    7   36 1
  17    8    9 am
  18    8   28 2
  19    8   29 2
  20    9   10 2
  21   10   11 1
  22   10   12 1
  23   11   37 1
  24   12   13 2
  25   12   17 1
  26   13   14 1
  27   13   22 1
  28   14   15 ar
  29   14   18 ar
  30   15   16 1
  31   15   21 ar
  32   16   17 am
  33   16   24 1
  34   17   23 2
  35   18   19 ar
  36   18   38 1
  37   19   20 ar
  38   19   39 1
  39   20   21 ar
  40   20   40 1
  41   21   41 1
  42   22   42 1
  43   24   25 1
  44   24   43 1
  45   24   44 1
  46   25   26 1
  47   25   45 1
  48   25   46 1
  49   26   27 1
  50   26   47 1
  51   27   48 1
  52   27   49 1
  53   27   50 1

#	End of record

