#	Name: ASD01100053
#	Creating user name:	WinNT
#	Creation time:	15. 06. 2019 18:58

#	Modifying user name:	WinNT
#	Modification time:	15. 06. 2019 18:58

#	Program:	/corina/corina34_cracker 3.40 0067  02.08.2006

@<TRIPOS>MOLECULE
ASD01100053
  37   38    0    0    0
SMALL
NO_CHARGES


@<TRIPOS>ATOM
   1 C1             0.2554     1.8645    -2.0806 C.ar    
   2 C2            -0.0396     0.5481    -1.7738 C.ar    
   3 C3             0.8397    -0.1970    -1.0084 C.ar    
   4 C4             2.0122     0.3741    -0.5507 C.ar    
   5 C5             2.3063     1.6896    -0.8576 C.ar    
   6 C6             1.4281     2.4346    -1.6223 C.ar    
   7 C7             3.5846     2.3119    -0.3578 C.3     
   8 C8             3.2591     3.3575     0.7107 C.3     
   9 C9             2.6934     2.6612     1.9500 C.3     
  10 C10            4.5339     4.1146     1.0884 C.3     
  11 Cl11          -1.5127    -0.1684    -2.3486 Cl      
  12 C12            4.3035     2.9732    -1.5053 C.2     
  13 N13            5.6278     3.2100    -1.4242 N.am    
  14 O14            3.6903     3.2925    -2.5019 O.2     
  15 C15            6.3113     3.7225    -2.5220 C.2     
  16 N16            7.5807     3.9893    -2.5605 N.2     
  17 C17            8.0576     4.4719    -3.6927 C.2     
  18 C18            7.1683     4.6305    -4.6756 C.2     
  19 S19            5.5931     4.1059    -4.0842 S.3     
  20 F20            7.4315     5.1065    -5.9122 F       
  21 C21            2.2246     4.3423     0.1621 C.3     
  22 H22           -0.4285     2.4453    -2.6818 H       
  23 H23            0.6099    -1.2246    -0.7683 H       
  24 H24            2.6985    -0.2072     0.0471 H       
  25 H25            1.6585     3.4622    -1.8617 H       
  26 H26            4.2211     1.5387     0.0725 H       
  27 H27            3.4304     1.9596     2.3408 H       
  28 H28            2.4615     3.4061     2.7112 H       
  29 H29            1.7852     2.1218     1.6809 H       
  30 H30            5.0138     4.4914     0.1851 H       
  31 H31            4.2803     4.9503     1.7407 H       
  32 H32            5.2156     3.4416     1.6084 H       
  33 H33            6.1044     3.0229    -0.6003 H       
  34 H34            9.1008     4.7228    -3.8160 H       
  35 H35            1.2997     3.8106    -0.0613 H       
  36 H36            2.0290     5.1152     0.9053 H       
  37 H37            2.6082     4.8025    -0.7485 H       
@<TRIPOS>BOND
   1    1    2 ar
   2    1    6 ar
   3    1   22 1
   4    2    3 ar
   5    2   11 1
   6    3    4 ar
   7    3   23 1
   8    4    5 ar
   9    4   24 1
  10    5    6 ar
  11    5    7 1
  12    6   25 1
  13    7    8 1
  14    7   12 1
  15    7   26 1
  16    8    9 1
  17    8   10 1
  18    8   21 1
  19    9   27 1
  20    9   28 1
  21    9   29 1
  22   10   30 1
  23   10   31 1
  24   10   32 1
  25   12   13 am
  26   12   14 2
  27   13   15 1
  28   13   33 1
  29   15   16 2
  30   15   19 1
  31   16   17 1
  32   17   18 2
  33   17   34 1
  34   18   19 1
  35   18   20 1
  36   21   35 1
  37   21   36 1
  38   21   37 1

#	End of record

