#	Name: ASD00990108
#	Creating user name:	WinNT
#	Creation time:	15. 06. 2019 18:54

#	Modifying user name:	WinNT
#	Modification time:	15. 06. 2019 18:54

#	Program:	/corina/corina34_cracker 3.40 0067  02.08.2006

@<TRIPOS>MOLECULE
ASD00990108
  44   47    0    0    0
SMALL
NO_CHARGES


@<TRIPOS>ATOM
   1 C1            -0.0167     1.3769     0.0096 C.ar    
   2 C2             0.0021    -0.0041     0.0020 C.ar    
   3 C3             1.2125    -0.6793    -0.0131 C.ar    
   4 C4             2.4067     0.0410    -0.0207 C.ar    
   5 C5             2.3813     1.4268    -0.0123 C.ar    
   6 C6             1.1697     2.0919     0.0021 C.ar    
   7 N7             3.4381    -0.8975    -0.0363 N.am    
   8 C8             4.8739    -0.6067    -0.0480 C.3     
   9 C9             5.3796    -0.5160     1.3688 C.2     
  10 N10            6.6806    -0.2545     1.6045 N.am    
  11 C11            7.1722    -0.1663     2.9817 C.3     
  12 O12            4.6159    -0.6783     2.2968 O.2     
  13 C13            7.6031    -0.0585     0.4834 C.3     
  14 C14            7.6227    -1.5285     3.4425 C.2     
  15 N15            8.9031    -1.9856     3.3886 N.pl3   
  16 C16            8.9033    -3.2677     3.9005 C.ar    
  17 C17            7.5724    -3.5435     4.2564 C.ar    
  18 N18            6.8450    -2.4369     3.9550 N.2     
  19 C19            9.8857    -4.2275     4.1031 C.ar    
  20 C20            9.5468    -5.4464     4.6532 C.ar    
  21 C21            8.2308    -5.7181     5.0041 C.ar    
  22 C22            7.2520    -4.7850     4.8120 C.ar    
  23 O23            1.5364    -1.9958    -0.0240 O.3     
  24 C24            2.8727    -2.1210    -0.0379 C.2     
  25 O25            3.4792    -3.1748    -0.0508 O.2     
  26 C26            7.8794    -7.0555     5.6033 C.3     
  27 Cl27           1.1347     3.8276     0.0121 Cl      
  28 Cl28          10.7731    -6.6486     4.9077 Cl      
  29 H29           -0.9606     1.9017     0.0169 H       
  30 H30           -0.9255    -0.5573     0.0082 H       
  31 H31            3.3056     1.9853    -0.0183 H       
  32 H32            5.4018    -1.4036    -0.5718 H       
  33 H33            5.0486     0.3409    -0.5575 H       
  34 H34            8.0117     0.5276     3.0241 H       
  35 H35            6.3726     0.1908     3.6307 H       
  36 H36            7.6280     0.9973     0.2137 H       
  37 H37            8.6023    -0.3828     0.7742 H       
  38 H38            7.2655    -0.6441    -0.3716 H       
  39 H39            9.6730    -1.5005     3.0528 H       
  40 H40           10.9103    -4.0210     3.8311 H       
  41 H41            6.2318    -5.0067     5.0885 H       
  42 H42            7.9680    -7.0020     6.6884 H       
  43 H43            6.8557    -7.3162     5.3347 H       
  44 H44            8.5604    -7.8154     5.2202 H       
@<TRIPOS>BOND
   1    1    2 ar
   2    1    6 ar
   3    1   29 1
   4    2    3 ar
   5    2   30 1
   6    3    4 ar
   7    3   23 1
   8    4    5 ar
   9    4    7 1
  10    5    6 ar
  11    5   31 1
  12    6   27 1
  13    7    8 1
  14    7   24 am
  15    8    9 1
  16    8   32 1
  17    8   33 1
  18    9   10 am
  19    9   12 2
  20   10   11 1
  21   10   13 1
  22   11   14 1
  23   11   34 1
  24   11   35 1
  25   13   36 1
  26   13   37 1
  27   13   38 1
  28   14   15 1
  29   14   18 2
  30   15   16 1
  31   15   39 1
  32   16   17 ar
  33   16   19 ar
  34   17   18 1
  35   17   22 ar
  36   19   20 ar
  37   19   40 1
  38   20   21 ar
  39   20   28 1
  40   21   22 ar
  41   21   26 1
  42   22   41 1
  43   23   24 1
  44   24   25 2
  45   26   42 1
  46   26   43 1
  47   26   44 1

#	End of record

