#	Name: ASD09116087
#	Creating user name:	WinNT
#	Creation time:	15. 06. 2019 21:20

#	Modifying user name:	WinNT
#	Modification time:	15. 06. 2019 21:20

#	Program:	/corina/corina34_cracker 3.40 0067  02.08.2006

@<TRIPOS>MOLECULE
ASD09116087
  62   67    0    0    0
SMALL
NO_CHARGES


@<TRIPOS>ATOM
   1 C1            -0.9134     0.9662    -2.9495 C.2     
   2 N2            -0.7908    -0.3436    -2.5051 N.pl3   
   3 N3             0.3430    -0.9325    -1.9223 N.2     
   4 C4             0.0322    -2.1773    -1.6517 C.2     
   5 N5            -1.2308    -2.4069    -2.0298 N.2     
   6 C6            -1.7471    -1.3105    -2.5421 C.2     
   7 N7            -3.0287    -1.1690    -3.0376 N.pl3   
   8 N8             0.8829    -3.1134    -1.0640 N.pl3   
   9 C9             0.4035    -4.3845    -0.7367 C.ar    
  10 C10           -0.9309    -4.5532    -0.3868 C.ar    
  11 C11           -1.3814    -5.8243    -0.0988 C.ar    
  12 C12           -0.5240    -6.9087    -0.1551 C.ar    
  13 C13            0.8186    -6.7621    -0.4397 C.ar    
  14 C14            1.2545    -5.4693    -0.7672 C.ar    
  15 C15           -1.1224    -8.2868     0.0323 C.3     
  16 C16           -1.1869    -9.0598    -1.2832 C.3     
  17 C17            0.1851    -9.1881    -1.9256 C.3     
  18 N18            1.0109    -9.9794    -1.0365 N.3     
  19 C19            1.5201    -9.1607     0.0626 C.3     
  20 C20            1.9407    -7.7688    -0.3898 C.3     
  21 S21            0.3590     2.1767    -2.8689 S.3     
  22 C22           -0.7077     3.3665    -3.6112 C.ar    
  23 C23           -1.9411     2.7574    -3.8621 C.ar    
  24 N24           -1.9733     1.4649    -3.4840 N.2     
  25 C25           -0.5001     4.7026    -3.9466 C.ar    
  26 C26           -1.5100     5.4354    -4.5284 C.ar    
  27 C27           -2.7387     4.8432    -4.7828 C.ar    
  28 C28           -2.9609     3.5289    -4.4597 C.ar    
  29 C29            2.1112   -10.6192    -1.7700 C.3     
  30 C30            2.9528   -11.4805    -0.8120 C.3     
  31 C31            1.5467   -11.5750    -2.8413 C.3     
  32 C32            2.5289   -12.7726    -2.8373 C.3     
  33 C33            2.8704   -12.9296    -1.3346 C.3     
  34 H34           -3.6389    -1.9230    -3.0269 H       
  35 H35           -3.3186    -0.3156    -3.3963 H       
  36 H36            1.8072    -2.8820    -0.8825 H       
  37 H37           -1.6005    -3.7071    -0.3411 H       
  38 H38           -2.4154    -5.9751     0.1742 H       
  39 H39            2.2875    -5.3182    -1.0436 H       
  40 H40           -0.5124    -8.8451     0.7424 H       
  41 H41           -2.1307    -8.1844     0.4335 H       
  42 H42           -1.5842   -10.0564    -1.0909 H       
  43 H43           -1.8537    -8.5382    -1.9698 H       
  44 H44            0.0969    -9.6867    -2.8909 H       
  45 H45            0.6256    -8.2000    -2.0588 H       
  46 H46            0.7422    -9.0648     0.8200 H       
  47 H47            2.3807    -9.6620     0.5057 H       
  48 H48            2.3796    -7.8467    -1.3845 H       
  49 H49            2.7058    -7.3999     0.2932 H       
  50 H50            0.4557     5.1650    -3.7492 H       
  51 H51           -1.3459     6.4712    -4.7865 H       
  52 H52           -3.5277     5.4227    -5.2391 H       
  53 H53           -3.9224     3.0815    -4.6637 H       
  54 H54            2.7381    -9.8605    -2.2385 H       
  55 H55            3.9883   -11.1403    -0.8162 H       
  56 H56            2.5448   -11.4237     0.1971 H       
  57 H57            0.5436   -11.9034    -2.5692 H       
  58 H58            1.5390   -11.0913    -3.8181 H       
  59 H59            2.0441   -13.6711    -3.2191 H       
  60 H60            3.4238   -12.5402    -3.4145 H       
  61 H61            3.8286   -13.4344    -1.2119 H       
  62 H62            2.0810   -13.4767    -0.8192 H       
@<TRIPOS>BOND
   1    1    2 1
   2    1   21 1
   3    1   24 2
   4    2    3 1
   5    2    6 1
   6    3    4 2
   7    4    5 1
   8    4    8 1
   9    5    6 2
  10    6    7 1
  11    7   34 1
  12    7   35 1
  13    8    9 1
  14    8   36 1
  15    9   10 ar
  16    9   14 ar
  17   10   11 ar
  18   10   37 1
  19   11   12 ar
  20   11   38 1
  21   12   13 ar
  22   12   15 1
  23   13   14 ar
  24   13   20 1
  25   14   39 1
  26   15   16 1
  27   15   40 1
  28   15   41 1
  29   16   17 1
  30   16   42 1
  31   16   43 1
  32   17   18 1
  33   17   44 1
  34   17   45 1
  35   18   19 1
  36   18   29 1
  37   19   20 1
  38   19   46 1
  39   19   47 1
  40   20   48 1
  41   20   49 1
  42   21   22 1
  43   22   23 ar
  44   22   25 ar
  45   23   24 1
  46   23   28 ar
  47   25   26 ar
  48   25   50 1
  49   26   27 ar
  50   26   51 1
  51   27   28 ar
  52   27   52 1
  53   28   53 1
  54   29   30 1
  55   29   31 1
  56   29   54 1
  57   30   33 1
  58   30   55 1
  59   30   56 1
  60   31   32 1
  61   31   57 1
  62   31   58 1
  63   32   33 1
  64   32   59 1
  65   32   60 1
  66   33   61 1
  67   33   62 1

#	End of record

