#	Name: ASD03091864
#	Creating user name:	WinNT
#	Creation time:	15. 06. 2019 20:31

#	Modifying user name:	WinNT
#	Modification time:	15. 06. 2019 20:31

#	Program:	/corina/corina34_cracker 3.40 0067  02.08.2006

@<TRIPOS>MOLECULE
ASD03091864
  41   44    0    0    0
SMALL
NO_CHARGES


@<TRIPOS>ATOM
   1 C1            -0.0181     1.4869     0.0102 C.ar    
   2 C2            -1.2075     2.1999     0.0311 C.ar    
   3 N3            -2.4262     1.5321     0.0227 N.pl3   
   4 C4            -2.5438     0.0926    -0.0478 C.3     
   5 C5             0.0021    -0.0041     0.0020 C.3     
   6 C6             1.2008     3.5583     0.0229 C.ar    
   7 C7             0.0141     4.2672     0.0519 C.ar    
   8 C8            -1.1887     3.5901     0.0571 C.ar    
   9 C9             1.1846     2.1780     0.0024 C.ar    
  10 C10           -2.8269    -0.2950    -1.4764 C.ar    
  11 C11           -3.7333    -1.3015    -1.7527 C.ar    
  12 C12           -3.9936    -1.6569    -3.0628 C.ar    
  13 C13           -3.3468    -1.0054    -4.0975 C.ar    
  14 C14           -2.4399     0.0016    -3.8205 C.ar    
  15 C15           -2.1842     0.3600    -2.5103 C.ar    
  16 C16            0.3157    -0.5604    -1.3633 C.2     
  17 C17           -1.3138    -0.6577     0.4193 C.3     
  18 C18           -1.2340    -1.9921    -0.3748 C.3     
  19 C19           -0.3643    -1.6602    -1.5713 C.2     
  20 S20            2.7381     4.4190     0.0081 S.o2    
  21 O21            2.4688     5.7124    -0.5153 O.2     
  22 N22            3.1924     4.6382     1.5854 N.am    
  23 O23            3.6893     3.5317    -0.5639 O.2     
  24 Br24          -3.7020    -1.4917    -5.8900 Br      
  25 H25           -3.2397     2.0586     0.0666 H       
  26 H26           -3.3908    -0.2159     0.5650 H       
  27 H27            0.7730    -0.3422     0.6945 H       
  28 H28            0.0282     5.3469     0.0726 H       
  29 H29           -2.1172     4.1411     0.0810 H       
  30 H30            2.1160     1.6318    -0.0194 H       
  31 H31           -4.2380    -1.8104    -0.9447 H       
  32 H32           -4.7015    -2.4435    -3.2785 H       
  33 H33           -1.9345     0.5104    -4.6281 H       
  34 H34           -1.4792     1.1490    -2.2941 H       
  35 H35            1.0019    -0.1158    -2.0687 H       
  36 H36           -1.3444    -0.8267     1.4957 H       
  37 H37           -0.7677    -2.7692     0.2309 H       
  38 H38           -2.2272    -2.3036    -0.6982 H       
  39 H39           -0.3119    -2.2510    -2.4739 H       
  40 H40            2.6295     4.3072     2.3027 H       
  41 H41            4.0214     5.0975     1.7920 H       
@<TRIPOS>BOND
   1    1    5 1
   2    1    9 ar
   3    1    2 ar
   4    2    3 1
   5    2    8 ar
   6    3    4 1
   7    3   25 1
   8    4   17 1
   9    4   10 1
  10    4   26 1
  11    5   16 1
  12    5   17 1
  13    5   27 1
  14    6    7 ar
  15    6    9 ar
  16    6   20 1
  17    7    8 ar
  18    7   28 1
  19    8   29 1
  20    9   30 1
  21   10   11 ar
  22   10   15 ar
  23   11   12 ar
  24   11   31 1
  25   12   13 ar
  26   12   32 1
  27   13   14 ar
  28   13   24 1
  29   14   15 ar
  30   14   33 1
  31   15   34 1
  32   16   19 2
  33   16   35 1
  34   17   18 1
  35   17   36 1
  36   18   19 1
  37   18   37 1
  38   18   38 1
  39   19   39 1
  40   20   21 2
  41   20   22 am
  42   20   23 2
  43   22   40 1
  44   22   41 1

#	End of record

