#	Name: ASD01948177
#	Creating user name:	WinNT
#	Creation time:	15. 06. 2019 20:13

#	Modifying user name:	WinNT
#	Modification time:	15. 06. 2019 20:13

#	Program:	/corina/corina34_cracker 3.40 0067  02.08.2006

@<TRIPOS>MOLECULE
ASD01948177
  47   50    0    0    0
SMALL
NO_CHARGES


@<TRIPOS>ATOM
   1 C1             1.8001     1.4194    -1.0469 C.ar    
   2 C2             1.5984     0.0463    -1.1439 C.ar    
   3 C3             1.7716    -0.5929    -2.3637 C.ar    
   4 C4             2.1435     0.1352    -3.4776 C.ar    
   5 C5             2.3440     1.5000    -3.3791 C.ar    
   6 C6             2.1670     2.1427    -2.1665 C.ar    
   7 N7             1.2223    -0.6887    -0.0143 N.pl3   
   8 C8             3.6318    -2.2826    -0.4412 C.2     
   9 C9             2.3519    -2.8723    -0.2921 C.2     
  10 C10            1.1519    -2.0657    -0.0788 C.2     
  11 N11            4.6882    -3.1037    -0.6398 N.am    
  12 F12            1.6322     2.0459     0.1382 F       
  13 C13            2.2379    -4.2686    -0.3510 C.2     
  14 N14            1.0112    -4.8541    -0.2088 N.am    
  15 C15           -0.0980    -4.1217    -0.0132 C.2     
  16 C16           -0.0590    -2.7265     0.0572 C.2     
  17 C17            4.5110    -4.4447    -0.6919 C.2     
  18 N18            3.3408    -5.0042    -0.5463 N.2     
  19 O19            3.7754    -1.0735    -0.3969 O.2     
  20 C20            0.9032    -6.3137    -0.2719 C.3     
  21 O21           -1.1704    -4.6913     0.1077 O.2     
  22 I22            2.9084     2.5982    -5.0715 I       
  23 C23            6.0305    -2.5390    -0.7997 C.3     
  24 C24            6.7021    -2.4243     0.5702 C.3     
  25 C25            6.9617    -3.8242     1.1570 C.3     
  26 C26            8.1002    -1.7796     0.4301 C.3     
  27 C27            8.9561    -2.5855     1.4393 C.3     
  28 N28            8.4262    -3.9668     1.3074 N.3     
  29 H29            1.6161    -1.6588    -2.4421 H       
  30 H30            2.2782    -0.3624    -4.4267 H       
  31 H31            2.3243     3.2086    -2.0927 H       
  32 H32            1.0110    -0.2306     0.8142 H       
  33 H33           -0.9682    -2.1656     0.2160 H       
  34 H34            5.3723    -5.0764    -0.8516 H       
  35 H35            1.0203    -6.7304     0.7285 H       
  36 H36           -0.0743    -6.5889    -0.6680 H       
  37 H37            1.6832    -6.7079    -0.9233 H       
  38 H38            6.6241    -3.1894    -1.4421 H       
  39 H39            5.9571    -1.5501    -1.2523 H       
  40 H40            6.0803    -1.8394     1.2479 H       
  41 H41            6.4780    -3.9147     2.1296 H       
  42 H42            6.5821    -4.5877     0.4780 H       
  43 H43            8.4817    -1.9022    -0.5836 H       
  44 H44            8.0684    -0.7257     0.7065 H       
  45 H45           10.0102    -2.5500     1.1642 H       
  46 H46            8.8091    -2.2122     2.4527 H       
  47 H47            8.6540    -4.5206     2.1195 H       
@<TRIPOS>BOND
   1    1    2 ar
   2    1   12 1
   3    1    6 ar
   4    2    3 ar
   5    2    7 1
   6    3    4 ar
   7    3   29 1
   8    4    5 ar
   9    4   30 1
  10    5    6 ar
  11    5   22 1
  12    6   31 1
  13    7   10 1
  14    7   32 1
  15    8    9 1
  16    8   19 2
  17    8   11 am
  18    9   10 1
  19    9   13 2
  20   10   16 2
  21   11   17 1
  22   11   23 1
  23   13   14 1
  24   13   18 1
  25   14   15 am
  26   14   20 1
  27   15   16 1
  28   15   21 2
  29   16   33 1
  30   17   18 2
  31   17   34 1
  32   20   35 1
  33   20   36 1
  34   20   37 1
  35   23   24 1
  36   23   38 1
  37   23   39 1
  38   24   25 1
  39   24   26 1
  40   24   40 1
  41   25   28 1
  42   25   41 1
  43   25   42 1
  44   26   27 1
  45   26   43 1
  46   26   44 1
  47   27   28 1
  48   27   45 1
  49   27   46 1
  50   28   47 1

#	End of record

