#	Name: ASD05633003
#	Creating user name:	WinNT
#	Creation time:	15. 06. 2019 21:01

#	Modifying user name:	WinNT
#	Modification time:	15. 06. 2019 21:01

#	Program:	/corina/corina34_cracker 3.40 0067  02.08.2006

@<TRIPOS>MOLECULE
ASD05633003
  55   57    0    0    0
SMALL
NO_CHARGES


@<TRIPOS>ATOM
   1 C1             0.0617     1.3944    -0.0577 C.ar    
   2 C2             0.0604     0.0125    -0.1197 C.ar    
   3 C3            -1.1338    -0.6794    -0.1251 C.ar    
   4 C4            -2.3395     0.0166    -0.0678 C.ar    
   5 C5            -2.3323     1.4085    -0.0054 C.ar    
   6 C6            -1.1322     2.0901     0.0050 C.ar    
   7 C7            -3.6266    -0.7219    -0.0737 C.ar    
   8 C8            -4.8324    -0.0259    -0.0165 C.ar    
   9 C9            -6.0266    -0.7179    -0.0222 C.ar    
  10 C10           -6.0279    -2.0997    -0.0842 C.ar    
  11 C11           -4.8338    -2.7957    -0.1407 C.ar    
  12 C12           -3.6340    -2.1136    -0.1423 C.ar    
  13 S13            1.5900     2.2713    -0.0513 S.o2    
  14 O14            1.2919     3.4900     0.6159 O.2     
  15 O15            2.5220     1.3471     0.4931 O.2     
  16 C16            1.9447     2.5753    -1.8041 C.3     
  17 C17           -7.3350    -2.8497    -0.0896 C.3     
  18 N18           -7.2943    -3.8944    -1.1159 N.am    
  19 C19           -7.5578    -3.4805     1.2608 C.2     
  20 C20           -7.7001    -3.6215    -2.3718 C.2     
  21 C21           -7.5531    -4.6602    -3.4536 C.3     
  22 O22           -7.3148    -4.6569     1.4281 O.2     
  23 N23           -8.0272    -2.7373     2.2825 N.am    
  24 C24           -8.1277    -3.2925     3.5630 C.ar    
  25 C25           -7.1846    -4.2144     3.9977 C.ar    
  26 C26           -7.2867    -4.7606     5.2621 C.ar    
  27 C27           -8.3269    -4.3906     6.0948 C.ar    
  28 C28           -9.2679    -3.4732     5.6647 C.ar    
  29 C29           -9.1677    -2.9184     4.4039 C.ar    
  30 O30           -8.1837    -2.5400    -2.6312 O.2     
  31 C31            3.2440     3.3284    -1.9303 C.2     
  32 O32            3.8667     3.6291    -0.9396 O.2     
  33 O33            3.7094     3.6650    -3.1435 O.3     
  34 H34            0.9955    -0.5259    -0.1644 H       
  35 H35           -1.1337    -1.7583    -0.1739 H       
  36 H36           -3.2640     1.9529     0.0391 H       
  37 H37           -1.1254     3.1690     0.0534 H       
  38 H38           -4.8325     1.0529     0.0327 H       
  39 H39           -6.9617    -0.1794     0.0222 H       
  40 H40           -4.8406    -3.8746    -0.1886 H       
  41 H41           -2.7023    -2.6580    -0.1868 H       
  42 H42            2.0240     1.6234    -2.3292 H       
  43 H43            1.1389     3.1652    -2.2409 H       
  44 H44           -8.1495    -2.1587    -0.3067 H       
  45 H45           -6.9752    -4.7825    -0.8915 H       
  46 H46           -8.4523    -5.2751    -3.4916 H       
  47 H47           -7.4099    -4.1662    -4.4146 H       
  48 H48           -6.6906    -5.2907    -3.2372 H       
  49 H49           -8.2952    -1.8176     2.1302 H       
  50 H50           -6.3723    -4.5043     3.3476 H       
  51 H51           -6.5535    -5.4777     5.6008 H       
  52 H52           -8.4047    -4.8194     7.0829 H       
  53 H53          -10.0795    -3.1868     6.3171 H       
  54 H54           -9.9027    -2.2016     4.0687 H       
  55 H55            4.5469     4.1475    -3.1741 H       
@<TRIPOS>BOND
   1    1    2 ar
   2    1   13 1
   3    1    6 ar
   4    2    3 ar
   5    2   34 1
   6    3    4 ar
   7    3   35 1
   8    4    5 ar
   9    4    7 1
  10    5    6 ar
  11    5   36 1
  12    6   37 1
  13    7    8 ar
  14    7   12 ar
  15    8    9 ar
  16    8   38 1
  17    9   10 ar
  18    9   39 1
  19   10   11 ar
  20   10   17 1
  21   11   12 ar
  22   11   40 1
  23   12   41 1
  24   13   14 2
  25   13   15 2
  26   13   16 1
  27   16   31 1
  28   16   42 1
  29   16   43 1
  30   17   18 1
  31   17   19 1
  32   17   44 1
  33   18   20 am
  34   18   45 1
  35   19   22 2
  36   19   23 am
  37   20   21 1
  38   20   30 2
  39   21   46 1
  40   21   47 1
  41   21   48 1
  42   23   24 1
  43   23   49 1
  44   24   25 ar
  45   24   29 ar
  46   25   26 ar
  47   25   50 1
  48   26   27 ar
  49   26   51 1
  50   27   28 ar
  51   27   52 1
  52   28   29 ar
  53   28   53 1
  54   29   54 1
  55   31   32 2
  56   31   33 1
  57   33   55 1

#	End of record

