#	Name: ASD01208948
#	Creating user name:	WinNT
#	Creation time:	15. 06. 2019 19:10

#	Modifying user name:	WinNT
#	Modification time:	15. 06. 2019 19:10

#	Program:	/corina/corina34_cracker 3.40 0067  02.08.2006

@<TRIPOS>MOLECULE
ASD01208948
  62   66    0    0    0
SMALL
NO_CHARGES


@<TRIPOS>ATOM
   1 C1            -2.6402     1.7839    -0.5139 C.3     
   2 C2            -2.4043     0.2952    -0.7870 C.3     
   3 C3            -1.5220     0.1491    -2.0306 C.3     
   4 C4            -2.1947     0.8567    -3.2099 C.3     
   5 C5            -3.2697     2.4283    -1.7517 C.3     
   6 C6            -1.7036    -0.3409     0.4152 C.3     
   7 C7            -1.5517    -1.8450     0.1799 C.3     
   8 C8            -0.7044    -2.4416     1.2740 C.2     
   9 N9             0.6325    -2.5222     1.1230 N.am    
  10 C10            1.4018    -3.1742     2.0793 C.ar    
  11 N11           -2.8736    -2.4763     0.1868 N.pl3   
  12 C12           -3.4269    -3.1740    -0.8550 C.ar    
  13 C13           -4.6971    -3.6050    -0.4250 C.ar    
  14 C14           -4.8559    -3.1146     0.9403 C.2     
  15 N15           -3.7709    -2.4687     1.2597 N.2     
  16 O16           -1.2254    -2.8492     2.2904 O.2     
  17 O17           -2.4132     2.2294    -2.8783 O.3     
  18 C18           -2.9930    -3.4977    -2.1378 C.ar    
  19 C19           -3.7996    -4.2274    -2.9647 C.ar    
  20 C20           -5.0527    -4.6533    -2.5425 C.ar    
  21 C21           -5.5041    -4.3519    -1.2900 C.ar    
  22 C22            0.7927    -4.0644     2.9599 C.ar    
  23 C23            1.5619    -4.7086     3.9070 C.ar    
  24 C24            2.9377    -4.4381     3.9443 C.ar    
  25 C25            3.4750    -3.5328     3.0278 C.ar    
  26 N26            2.7057    -2.9441     2.1368 N.ar    
  27 C27            3.8045    -5.1006     4.9386 C.2     
  28 N28            5.1252    -4.8334     4.9657 N.am    
  29 O29            3.3270    -5.8874     5.7331 O.2     
  30 C30           -6.7538    -6.0601     0.5836 C.3     
  31 C31           -7.9424    -6.8111     1.1870 C.3     
  32 C32           -6.9420    -7.5511     0.2969 C.3     
  33 S33           -7.0955    -4.8979    -0.7667 S.o2    
  34 O34           -7.7221    -3.7242    -0.2678 O.2     
  35 O35           -7.6189    -5.5847    -1.8952 O.2     
  36 H36           -3.3124     1.8961     0.3368 H       
  37 H37           -1.6892     2.2692    -0.2944 H       
  38 H38           -3.3601    -0.2001    -0.9577 H       
  39 H39           -0.5484     0.6014    -1.8417 H       
  40 H40           -1.3945    -0.9078    -2.2646 H       
  41 H41           -1.5511     0.7927    -4.0873 H       
  42 H42           -3.1502     0.3779    -3.4240 H       
  43 H43           -4.2392     1.9701    -1.9468 H       
  44 H44           -3.4005     3.4965    -1.5787 H       
  45 H45           -0.7185     0.1085     0.5413 H       
  46 H46           -2.2976    -0.1718     1.3133 H       
  47 H47           -1.0727    -2.0154    -0.7843 H       
  48 H48            1.0577    -2.1251     0.3469 H       
  49 H49           -5.7173    -3.2644     1.5742 H       
  50 H50           -2.0211    -3.1725    -2.4786 H       
  51 H51           -3.4589    -4.4758    -3.9591 H       
  52 H52           -5.6753    -5.2291    -3.2112 H       
  53 H53           -0.2700    -4.2483     2.9025 H       
  54 H54            1.1157    -5.4037     4.6027 H       
  55 H55            4.5330    -3.3166     3.0470 H       
  56 H56            5.5061    -4.2057     4.3318 H       
  57 H57            5.6948    -5.2688     5.6190 H       
  58 H58           -5.9449    -5.7747     1.2561 H       
  59 H59           -7.9153    -7.0201     2.2564 H       
  60 H60           -8.9297    -6.6069     0.7726 H       
  61 H61           -7.2710    -7.8338    -0.7031 H       
  62 H62           -6.2566    -8.2471     0.7807 H       
@<TRIPOS>BOND
   1    1    2 1
   2    1    5 1
   3    1   36 1
   4    1   37 1
   5    2    3 1
   6    2    6 1
   7    2   38 1
   8    3    4 1
   9    3   39 1
  10    3   40 1
  11    4   17 1
  12    4   41 1
  13    4   42 1
  14    5   17 1
  15    5   43 1
  16    5   44 1
  17    6    7 1
  18    6   45 1
  19    6   46 1
  20    7    8 1
  21    7   11 1
  22    7   47 1
  23    8    9 am
  24    8   16 2
  25    9   10 1
  26    9   48 1
  27   10   22 ar
  28   10   26 ar
  29   11   12 1
  30   11   15 1
  31   12   13 ar
  32   12   18 ar
  33   13   14 1
  34   13   21 ar
  35   14   15 2
  36   14   49 1
  37   18   19 ar
  38   18   50 1
  39   19   20 ar
  40   19   51 1
  41   20   21 ar
  42   20   52 1
  43   21   33 1
  44   22   23 ar
  45   22   53 1
  46   23   24 ar
  47   23   54 1
  48   24   25 ar
  49   24   27 1
  50   25   26 ar
  51   25   55 1
  52   27   28 am
  53   27   29 2
  54   28   56 1
  55   28   57 1
  56   30   31 1
  57   30   33 1
  58   30   32 1
  59   30   58 1
  60   31   32 1
  61   31   59 1
  62   31   60 1
  63   32   61 1
  64   32   62 1
  65   33   34 2
  66   33   35 2

#	End of record

