#	Name: ASD04881041
#	Creating user name:	WinNT
#	Creation time:	15. 06. 2019 20:53

#	Modifying user name:	WinNT
#	Modification time:	15. 06. 2019 20:53

#	Program:	/corina/corina34_cracker 3.40 0067  02.08.2006

@<TRIPOS>MOLECULE
ASD04881041
  83   88    0    0    0
SMALL
NO_CHARGES


@<TRIPOS>ATOM
   1 N1            -0.0271     1.2388    -0.1398 N.2     
   2 C2             1.1135     1.7367    -0.6899 C.2     
   3 C3             1.5533     3.1434    -0.6709 C.2     
   4 O4             2.6003     3.4605    -1.2024 O.2     
   5 C5             1.7721     0.6912    -1.2605 C.2     
   6 O6             1.0263    -0.4047    -1.0470 O.3     
   7 C7            -0.0662    -0.0411    -0.3606 C.2     
   8 N8             0.7952     4.0783    -0.0645 N.am    
   9 C9             1.2632     5.3941     0.0490 C.ar    
  10 C10            0.3666     6.4643    -0.0232 C.ar    
  11 C11            0.8293     7.7699     0.0898 C.ar    
  12 C12            2.1726     8.0144     0.2732 C.ar    
  13 C13            3.0742     6.9494     0.3463 C.ar    
  14 C14            2.6106     5.6348     0.2382 C.ar    
  15 C15            4.5127     7.2115     0.5423 C.2     
  16 O16            5.2966     6.2841     0.6058 O.2     
  17 N17            4.9580     8.4789     0.6511 N.am    
  18 C18            6.3865     8.7392     0.8457 C.3     
  19 C19            6.6221    10.2482     0.9372 C.3     
  20 N20           -0.9920     6.2217    -0.2090 N.3     
  21 C21           -1.2439     5.6173    -1.5246 C.3     
  22 C22           -2.7340     5.2941    -1.6576 C.3     
  23 N23           -3.5168     6.5262    -1.4887 N.3     
  24 C24           -3.2649     7.1306    -0.1731 C.3     
  25 C25           -1.7748     7.4539    -0.0401 C.3     
  26 C26           -4.8796     6.2829    -1.6751 C.ar    
  27 C27           -5.5213     6.7536    -2.8137 C.ar    
  28 C28           -6.8687     6.5108    -2.9950 C.ar    
  29 C29           -7.5789     5.8002    -2.0448 C.ar    
  30 C30           -6.9431     5.3303    -0.9103 C.ar    
  31 C31           -5.5948     5.5649    -0.7251 C.ar    
  32 C32           -4.7483     7.5285    -3.8495 C.3     
  33 C33            8.1140    10.5201     1.1405 C.3     
  34 N34            8.3396    11.9649     1.2281 N.am    
  35 C35            8.3151    12.6684     2.3733 C.2     
  36 C36            8.5783    14.1311     2.0912 C.3     
  37 C37            8.3523    14.2701     0.5678 C.3     
  38 C38            8.6275    12.8294     0.0775 C.3     
  39 C39           -1.1659    -0.9702     0.0850 C.3     
  40 O40            8.1112    12.1987     3.4727 O.2     
  41 C41           -4.9014     5.0471     0.5086 C.3     
  42 C42           -1.9257    -1.7368    -0.9993 C.3     
  43 C43           -0.9369    -2.4724    -0.0928 C.3     
  44 H44            2.7149     0.7348    -1.7856 H       
  45 H45           -0.0744     3.8403     0.2933 H       
  46 H46            0.1344     8.5946     0.0332 H       
  47 H47            2.5291     9.0301     0.3603 H       
  48 H48            3.3045     4.8095     0.2984 H       
  49 H49            4.3327     9.2187     0.6004 H       
  50 H50            6.7203     8.2628     1.7675 H       
  51 H51            6.9477     8.3343     0.0036 H       
  52 H52            6.2883    10.7246     0.0154 H       
  53 H53            6.0610    10.6532     1.7794 H       
  54 H54           -0.9522     6.3167    -2.3080 H       
  55 H55           -0.6629     4.7001    -1.6207 H       
  56 H56           -2.9280     4.8723    -2.6438 H       
  57 H57           -3.0197     4.5737    -0.8911 H       
  58 H58           -3.8460     8.0478    -0.0770 H       
  59 H59           -3.5566     6.4312     0.6103 H       
  60 H60           -1.5809     7.8757     0.9461 H       
  61 H61           -1.4892     8.1742    -0.8067 H       
  62 H62           -7.3684     6.8767    -3.8798 H       
  63 H63           -8.6326     5.6121    -2.1890 H       
  64 H64           -7.5007     4.7756    -0.1701 H       
  65 H65           -4.4131     6.8510    -4.6348 H       
  66 H66           -5.3894     8.2968    -4.2817 H       
  67 H67           -3.8833     7.9982    -3.3811 H       
  68 H68            8.4478    10.0437     2.0623 H       
  69 H69            8.6752    10.1151     0.2984 H       
  70 H70            7.8754    14.7580     2.6399 H       
  71 H71            9.6049    14.3908     2.3498 H       
  72 H72            7.3272    14.5709     0.3514 H       
  73 H73            9.0634    14.9708     0.1303 H       
  74 H74            9.6699    12.7229    -0.2227 H       
  75 H75            7.9676    12.5826    -0.7541 H       
  76 H76           -1.7286    -0.6467     0.9607 H       
  77 H77           -4.8871     5.8258     1.2712 H       
  78 H78           -5.4368     4.1767     0.8880 H       
  79 H79           -3.8788     4.7642     0.2589 H       
  80 H80           -2.9882    -1.9180    -0.8368 H       
  81 H81           -1.6302    -1.5692    -2.0350 H       
  82 H82            0.0092    -2.7888    -0.5320 H       
  83 H83           -1.3488    -3.1376     0.6662 H       
@<TRIPOS>BOND
   1    1    7 2
   2    1    2 1
   3    2    3 1
   4    2    5 2
   5    3    4 2
   6    3    8 am
   7    5    6 1
   8    5   44 1
   9    6    7 1
  10    7   39 1
  11    8    9 1
  12    8   45 1
  13    9   10 ar
  14    9   14 ar
  15   10   11 ar
  16   10   20 1
  17   11   12 ar
  18   11   46 1
  19   12   13 ar
  20   12   47 1
  21   13   14 ar
  22   13   15 1
  23   14   48 1
  24   15   16 2
  25   15   17 am
  26   17   18 1
  27   17   49 1
  28   18   19 1
  29   18   50 1
  30   18   51 1
  31   19   33 1
  32   19   52 1
  33   19   53 1
  34   20   21 1
  35   20   25 1
  36   21   22 1
  37   21   54 1
  38   21   55 1
  39   22   23 1
  40   22   56 1
  41   22   57 1
  42   23   24 1
  43   23   26 1
  44   24   25 1
  45   24   58 1
  46   24   59 1
  47   25   60 1
  48   25   61 1
  49   26   27 ar
  50   26   31 ar
  51   27   28 ar
  52   27   32 1
  53   28   29 ar
  54   28   62 1
  55   29   30 ar
  56   29   63 1
  57   30   31 ar
  58   30   64 1
  59   31   41 1
  60   32   65 1
  61   32   66 1
  62   32   67 1
  63   33   34 1
  64   33   68 1
  65   33   69 1
  66   34   35 am
  67   34   38 1
  68   35   36 1
  69   35   40 2
  70   36   37 1
  71   36   70 1
  72   36   71 1
  73   37   38 1
  74   37   72 1
  75   37   73 1
  76   38   74 1
  77   38   75 1
  78   39   42 1
  79   39   43 1
  80   39   76 1
  81   41   77 1
  82   41   78 1
  83   41   79 1
  84   42   43 1
  85   42   80 1
  86   42   81 1
  87   43   82 1
  88   43   83 1

#	End of record

