#	Name: ASD03080171
#	Creating user name:	WinNT
#	Creation time:	15. 06. 2019 20:26

#	Modifying user name:	WinNT
#	Modification time:	15. 06. 2019 20:26

#	Program:	/corina/corina34_cracker 3.40 0067  02.08.2006

@<TRIPOS>MOLECULE
ASD03080171
  32   33    0    0    0
SMALL
NO_CHARGES


@<TRIPOS>ATOM
   1 C1            -0.0158     1.3142     0.0093 C.ar    
   2 N2             0.0021    -0.0041     0.0020 N.ar    
   3 C3             1.1445    -0.6686    -0.0124 C.ar    
   4 C4             2.3450     0.0496    -0.0200 C.ar    
   5 C5             2.2777     1.4470    -0.0119 C.ar    
   6 N6             1.0915     2.0298     0.0025 N.ar    
   7 C7             3.6480    -0.6483    -0.0357 C.2     
   8 C8             4.7743     0.0507    -0.0427 C.2     
   9 N9             8.1851    -0.9368    -1.3187 N.3     
  10 C10            6.8819    -0.2600    -1.3133 C.3     
  11 C11            6.1027    -0.6608    -0.0587 C.3     
  12 C12            6.9077    -0.2686     1.1833 C.3     
  13 C13            8.2786    -0.9484     1.1290 C.3     
  14 C14            8.9948    -0.5392    -0.1600 C.3     
  15 C15            8.9040    -0.6847    -2.5748 C.3     
  16 H16           -0.9678     1.8241     0.0165 H       
  17 H17            1.1510    -1.7486    -0.0179 H       
  18 H18            3.1803     2.0399    -0.0169 H       
  19 H19            3.6824    -1.7278    -0.0415 H       
  20 H20            4.7400     1.1301    -0.0369 H       
  21 H21            7.0333     0.8195    -1.3174 H       
  22 H22            6.3179    -0.5508    -2.1995 H       
  23 H23            5.9389    -1.7385    -0.0608 H       
  24 H24            7.0383     0.8134     1.2061 H       
  25 H25            6.3763    -0.5912     2.0787 H       
  26 H26            8.8725    -0.6392     1.9892 H       
  27 H27            8.1491    -2.0305     1.1456 H       
  28 H28            9.9654    -1.0328    -0.2086 H       
  29 H29            9.1363     0.5416    -0.1695 H       
  30 H30            9.0662     0.3868    -2.6918 H       
  31 H31            9.8656    -1.1974    -2.5522 H       
  32 H32            8.3136    -1.0565    -3.4122 H       
@<TRIPOS>BOND
   1    1    2 ar
   2    1    6 ar
   3    1   16 1
   4    2    3 ar
   5    3    4 ar
   6    3   17 1
   7    4    5 ar
   8    4    7 1
   9    5    6 ar
  10    5   18 1
  11    7    8 2
  12    7   19 1
  13    8   11 1
  14    8   20 1
  15    9   10 1
  16    9   14 1
  17    9   15 1
  18   10   11 1
  19   10   21 1
  20   10   22 1
  21   11   12 1
  22   11   23 1
  23   12   13 1
  24   12   24 1
  25   12   25 1
  26   13   14 1
  27   13   26 1
  28   13   27 1
  29   14   28 1
  30   14   29 1
  31   15   30 1
  32   15   31 1
  33   15   32 1

#	End of record

