#	Name: ASD01120290
#	Creating user name:	WinNT
#	Creation time:	15. 06. 2019 18:59

#	Modifying user name:	WinNT
#	Modification time:	15. 06. 2019 18:59

#	Program:	/corina/corina34_cracker 3.40 0067  02.08.2006

@<TRIPOS>MOLECULE
ASD01120290
  39   41    0    0    0
SMALL
NO_CHARGES


@<TRIPOS>ATOM
   1 C1             0.3605     1.2515     0.6218 C.3     
   2 C2             0.2688    -0.2252     0.2322 C.3     
   3 O3            -1.0767    -0.7095     0.4842 O.3     
   4 C4            -1.3268    -2.0023     0.1922 C.2     
   5 O5            -0.4439    -2.7052    -0.2607 O.2     
   6 C6            -2.6640    -2.5605     0.4210 C.2     
   7 N7            -3.7479    -1.8664     0.9289 N.pl3   
   8 C8            -4.8243    -2.7194     0.9995 C.ar    
   9 C9            -4.3989    -3.9746     0.5238 C.ar    
  10 C10           -3.0395    -3.8426     0.1623 C.2     
  11 C11           -5.3089    -5.0485     0.4843 C.ar    
  12 C12           -6.6095    -4.8565     0.9135 C.ar    
  13 C13           -7.0181    -3.6161     1.3803 C.ar    
  14 C14           -6.1396    -2.5556     1.4251 C.ar    
  15 N15           -6.5951    -1.2396     1.9272 N.pl3   
  16 O16           -7.7455    -1.0950     2.3002 O.2     
  17 O17           -5.8195    -0.3013     1.9672 O.2     
  18 N18           -4.9022    -6.2949     0.0159 N.pl3   
  19 C19           -5.7570    -7.3945     0.1235 C.ar    
  20 C20           -5.8820    -8.2852    -0.9353 C.ar    
  21 C21           -6.7280    -9.3716    -0.8262 C.ar    
  22 C22           -7.4505    -9.5736     0.3350 C.ar    
  23 C23           -7.3292    -8.6881     1.3921 C.ar    
  24 C24           -6.4798    -7.6027     1.2916 C.ar    
  25 Cl25          -8.2393    -8.9453     2.8479 Cl      
  26 H26            1.3706     1.6151     0.4326 H       
  27 H27           -0.3501     1.8283     0.0297 H       
  28 H28            0.1265     1.3632     1.6805 H       
  29 H29            0.5028    -0.3369    -0.8265 H       
  30 H30            0.9794    -0.8020     0.8242 H       
  31 H31           -3.7484    -0.9327     1.1916 H       
  32 H32           -2.4093    -4.6217    -0.2403 H       
  33 H33           -7.3110    -5.6771     0.8848 H       
  34 H34           -8.0368    -3.4797     1.7122 H       
  35 H35           -4.0252    -6.3998    -0.3852 H       
  36 H36           -5.3183    -8.1282    -1.8430 H       
  37 H37           -6.8255   -10.0640    -1.6493 H       
  38 H38           -8.1113   -10.4239     0.4175 H       
  39 H39           -6.3852    -6.9119     2.1163 H       
@<TRIPOS>BOND
   1    1    2 1
   2    1   26 1
   3    1   27 1
   4    1   28 1
   5    2    3 1
   6    2   29 1
   7    2   30 1
   8    3    4 1
   9    4    5 2
  10    4    6 1
  11    6    7 1
  12    6   10 2
  13    7    8 1
  14    7   31 1
  15    8    9 ar
  16    8   14 ar
  17    9   10 1
  18    9   11 ar
  19   10   32 1
  20   11   12 ar
  21   11   18 1
  22   12   13 ar
  23   12   33 1
  24   13   14 ar
  25   13   34 1
  26   14   15 1
  27   15   16 2
  28   15   17 2
  29   18   19 1
  30   18   35 1
  31   19   20 ar
  32   19   24 ar
  33   20   21 ar
  34   20   36 1
  35   21   22 ar
  36   21   37 1
  37   22   23 ar
  38   22   38 1
  39   23   24 ar
  40   23   25 1
  41   24   39 1

#	End of record

