#	Name: ASD05720110
#	Creating user name:	WinNT
#	Creation time:	15. 06. 2019 21:01

#	Modifying user name:	WinNT
#	Modification time:	15. 06. 2019 21:01

#	Program:	/corina/corina34_cracker 3.40 0067  02.08.2006

@<TRIPOS>MOLECULE
ASD05720110
  75   78    0    0    0
SMALL
NO_CHARGES


@<TRIPOS>ATOM
   1 C1             0.2553     1.3213    -1.5222 C.ar    
   2 C2             0.2244    -0.0261    -1.2093 C.ar    
   3 C3             1.3888    -0.7249    -0.9890 C.ar    
   4 C4             2.6364    -0.0881    -1.0758 C.ar    
   5 C5             2.6474     1.2696    -1.3921 C.ar    
   6 C6             1.4734     1.9697    -1.6136 C.ar    
   7 N7             3.8883    -0.6482    -0.8835 N.pl3   
   8 C8             4.9771     0.1600    -1.0186 C.2     
   9 S9             4.3454     1.7642    -1.4240 S.3     
  10 N10            6.2316    -0.1795    -0.8780 N.2     
  11 C11            7.2860     0.8212    -1.0596 C.3     
  12 C12            8.0931     0.9520     0.2336 C.3     
  13 C13            8.7251    -0.3978     0.5791 C.3     
  14 C14            9.6512    -0.8334    -0.5582 C.3     
  15 C15            8.8441    -0.9642    -1.8514 C.3     
  16 C16            8.2121     0.3856    -2.1969 C.3     
  17 O17            7.2281     1.3589     1.2958 O.3     
  18 C18           10.2832    -2.1833    -0.2127 C.3     
  19 C19           11.2170    -2.0169     0.9878 C.3     
  20 C20           11.7587    -3.3852     1.4061 C.3     
  21 C21           10.5933    -4.2996     1.7893 C.3     
  22 C22           11.1234    -5.7035     2.0875 C.3     
  23 C23           12.3823    -1.1025     0.6046 C.3     
  24 O24           12.6449    -3.2273     2.5454 O.3     
  25 C25           13.6462    -4.1131     2.6660 C.2     
  26 C26           14.6062    -4.0122     3.8233 C.3     
  27 N27           15.2797    -5.3030     4.0142 N.3     
  28 C28           16.1956    -5.2595     5.1613 C.3     
  29 C29           17.2847    -4.2150     4.9068 C.3     
  30 C30           16.6328    -2.8453     4.6981 C.3     
  31 C31           15.6479    -2.9304     3.5288 C.3     
  32 O32           13.7778    -4.9913     1.8467 O.2     
  33 H33           10.4357    -0.0889    -0.6933 H       
  34 C34            7.8734     2.1388     2.3045 C.3     
  35 C35            4.0374    -2.0657    -0.5449 C.3     
  36 Cl36           1.5306     3.6598    -2.0058 Cl      
  37 H37           -0.6636     1.8609    -1.6979 H       
  38 H38           -0.7253    -0.5354    -1.1368 H       
  39 H39            1.3423    -1.7762    -0.7460 H       
  40 H40            6.8358     1.7829    -1.3058 H       
  41 H41            8.8776     1.6966     0.0985 H       
  42 H42            9.3001    -0.3046     1.5004 H       
  43 H43            7.9406    -1.1424     0.7142 H       
  44 H44            9.5039    -1.2746    -2.6617 H       
  45 H45            8.0596    -1.7088    -1.7163 H       
  46 H46            7.6371     0.2924    -3.1182 H       
  47 H47            8.9966     1.1302    -2.3320 H       
  48 H48            9.4990    -2.8992     0.0334 H       
  49 H49           10.8523    -2.5475    -1.0680 H       
  50 H50           10.6662    -1.5748     1.8180 H       
  51 H51           12.3095    -3.8273     0.5759 H       
  52 H52           10.0964    -3.9032     2.6748 H       
  53 H53            9.8824    -4.3472     0.9645 H       
  54 H54           11.6203    -6.1000     1.2021 H       
  55 H55           11.8343    -5.6559     2.9124 H       
  56 H56           10.2932    -6.3550     2.3605 H       
  57 H57           12.0068    -0.0982     0.4086 H       
  58 H58           13.1015    -1.0682     1.4229 H       
  59 H59           12.8688    -1.4897    -0.2907 H       
  60 H60           14.0578    -3.7512     4.7284 H       
  61 H61           14.6085    -6.0496     4.1155 H       
  62 H62           15.6396    -4.9928     6.0601 H       
  63 H63           16.6556    -6.2384     5.2961 H       
  64 H64           17.9553    -4.1719     5.7650 H       
  65 H65           17.8501    -4.4884     4.0159 H       
  66 H66           16.0995    -2.5541     5.6031 H       
  67 H67           17.4018    -2.1062     4.4736 H       
  68 H68           16.1875    -3.1836     2.6162 H       
  69 H69           15.1490    -1.9695     3.4025 H       
  70 H70            8.6807     1.5585     2.7514 H       
  71 H71            8.2818     3.0450     1.8573 H       
  72 H72            7.1500     2.4076     3.0742 H       
  73 H73            4.1233    -2.6508    -1.4605 H       
  74 H74            4.9342    -2.2025     0.0593 H       
  75 H75            3.1655    -2.3984     0.0183 H       
@<TRIPOS>BOND
   1    1    2 ar
   2    1    6 ar
   3    1   37 1
   4    2    3 ar
   5    2   38 1
   6    3    4 ar
   7    3   39 1
   8    4    5 ar
   9    4    7 1
  10    5    6 ar
  11    5    9 1
  12    6   36 1
  13    7   35 1
  14    7    8 1
  15    8    9 1
  16    8   10 2
  17   10   11 1
  18   11   12 1
  19   11   16 1
  20   11   40 1
  21   12   13 1
  22   12   17 1
  23   12   41 1
  24   13   14 1
  25   13   42 1
  26   13   43 1
  27   14   15 1
  28   14   18 1
  29   14   33 1
  30   15   16 1
  31   15   44 1
  32   15   45 1
  33   16   46 1
  34   16   47 1
  35   17   34 1
  36   18   19 1
  37   18   48 1
  38   18   49 1
  39   19   23 1
  40   19   20 1
  41   19   50 1
  42   20   21 1
  43   20   24 1
  44   20   51 1
  45   21   22 1
  46   21   52 1
  47   21   53 1
  48   22   54 1
  49   22   55 1
  50   22   56 1
  51   23   57 1
  52   23   58 1
  53   23   59 1
  54   24   25 1
  55   25   26 1
  56   25   32 2
  57   26   27 1
  58   26   31 1
  59   26   60 1
  60   27   28 1
  61   27   61 1
  62   28   29 1
  63   28   62 1
  64   28   63 1
  65   29   30 1
  66   29   64 1
  67   29   65 1
  68   30   31 1
  69   30   66 1
  70   30   67 1
  71   31   68 1
  72   31   69 1
  73   34   70 1
  74   34   71 1
  75   34   72 1
  76   35   73 1
  77   35   74 1
  78   35   75 1

#	End of record

