#	Name: ASD00310182
#	Creating user name:	WinNT
#	Creation time:	15. 06. 2019 18:33

#	Modifying user name:	WinNT
#	Modification time:	15. 06. 2019 18:33

#	Program:	/corina/corina34_cracker 3.40 0067  02.08.2006

@<TRIPOS>MOLECULE
ASD00310182
  24   25    0    0    0
SMALL
NO_CHARGES


@<TRIPOS>ATOM
   1 C1            -0.0187     1.5305     0.0105 C.3     
   2 C2             0.0021    -0.0041     0.0020 C.3     
   3 C3             0.6599    -0.4672    -1.3023 C.3     
   4 C4             1.9259     0.3138    -1.5289 C.2     
   5 C5             2.1781     1.4505    -0.8984 C.2     
   6 O6             1.3327     1.9986     0.0001 O.3     
   7 C7             2.9216    -0.2056    -2.4872 C.ar    
   8 C8             4.1822    -0.6063    -2.0401 C.ar    
   9 C9             5.1080    -1.0912    -2.9404 C.ar    
  10 C10            4.7896    -1.1805    -4.2850 C.ar    
  11 C11            3.5413    -0.7843    -4.7346 C.ar    
  12 C12            2.6046    -0.3035    -3.8434 C.ar    
  13 Cl13           5.9604    -1.7913    -5.4118 Cl      
  14 H14           -0.5407     1.8957    -0.8740 H       
  15 H15           -0.5237     1.8861     0.9086 H       
  16 H16            0.5769    -0.3687     0.8534 H       
  17 H17           -1.0175    -0.3859     0.0554 H       
  18 H18            0.8954    -1.5292    -1.2335 H       
  19 H19           -0.0244    -0.2995    -2.1340 H       
  20 H20            3.1039     1.9634    -1.1131 H       
  21 H21            4.4319    -0.5364    -0.9917 H       
  22 H22            6.0834    -1.4015    -2.5958 H       
  23 H23            3.2990    -0.8560    -5.7847 H       
  24 H24            1.6298     0.0011    -4.1947 H       
@<TRIPOS>BOND
   1    1    2 1
   2    1    6 1
   3    1   14 1
   4    1   15 1
   5    2    3 1
   6    2   16 1
   7    2   17 1
   8    3    4 1
   9    3   18 1
  10    3   19 1
  11    4    5 2
  12    4    7 1
  13    5    6 1
  14    5   20 1
  15    7    8 ar
  16    7   12 ar
  17    8    9 ar
  18    8   21 1
  19    9   10 ar
  20    9   22 1
  21   10   11 ar
  22   10   13 1
  23   11   12 ar
  24   11   23 1
  25   12   24 1

#	End of record

