#	Name: ASD09740285
#	Creating user name:	WinNT
#	Creation time:	15. 06. 2019 21:23

#	Modifying user name:	WinNT
#	Modification time:	15. 06. 2019 21:23

#	Program:	/corina/corina34_cracker 3.40 0067  02.08.2006

@<TRIPOS>MOLECULE
ASD09740285
  47   50    0    0    0
SMALL
NO_CHARGES


@<TRIPOS>ATOM
   1 N1            -0.0144     1.2085     0.0087 N.2     
   2 O2             0.0021    -0.0041     0.0020 O.3     
   3 C3             1.2067     1.6802    -0.0004 C.2     
   4 N4             2.0465     0.6237    -0.0141 N.2     
   5 C5             1.2701    -0.4443    -0.0125 C.2     
   6 C6             1.7122    -1.8534    -0.0238 C.ar    
   7 C7             1.5956     3.1116     0.0031 C.ar    
   8 C8             0.6173     4.1040     0.0178 C.ar    
   9 C9             0.9824     5.4337     0.0211 C.ar    
  10 C10            2.3212     5.7987     0.0103 C.ar    
  11 C11            3.3007     4.8004    -0.0043 C.ar    
  12 C12            2.9424     3.4727    -0.0024 C.ar    
  13 C13            3.0743    -2.1591    -0.0380 C.ar    
  14 C14            3.4856    -3.4753    -0.0491 C.ar    
  15 C15            2.5483    -4.4982    -0.0462 C.ar    
  16 C16            1.1867    -4.1999    -0.0316 C.ar    
  17 C17            0.7682    -2.8833    -0.0146 C.ar    
  18 O18            2.9584    -5.7934    -0.0581 O.3     
  19 O19            0.2704    -5.2048    -0.0288 O.3     
  20 C20           -1.1075    -4.8263    -0.0136 C.3     
  21 C21           -1.9814    -6.0822    -0.0127 C.3     
  22 C22            4.3680    -6.0275    -0.0732 C.3     
  23 C23            4.6347    -7.5340    -0.0850 C.3     
  24 C24            0.1420     6.6911     0.0362 C.3     
  25 C25            1.1654     7.8383     0.0328 C.3     
  26 N26            2.4761     7.1838     0.0166 N.pl3   
  27 H27           -0.4277     3.8314     0.0263 H       
  28 H28            4.3454     5.0741    -0.0128 H       
  29 H29            3.7054     2.7085    -0.0135 H       
  30 H30            3.8060    -1.3648    -0.0406 H       
  31 H31            4.5396    -3.7104    -0.0604 H       
  32 H32           -0.2864    -2.6507    -0.0033 H       
  33 H33           -1.3133    -4.2398     0.8818 H       
  34 H34           -1.3301    -4.2294    -0.8981 H       
  35 H35           -1.7756    -6.6686    -0.9082 H       
  36 H36           -1.7588    -6.6791     0.8717 H       
  37 H37           -3.0324    -5.7935    -0.0011 H       
  38 H38            4.8019    -5.5747    -0.9647 H       
  39 H39            4.8192    -5.5855     0.8151 H       
  40 H40            4.1835    -7.9759    -0.9733 H       
  41 H41            5.7099    -7.7125    -0.0965 H       
  42 H42            4.2008    -7.9868     0.8065 H       
  43 H43           -0.4866     6.7393    -0.8530 H       
  44 H44           -0.4694     6.7292     0.9378 H       
  45 H45            1.0395     8.4547    -0.8573 H       
  46 H46            1.0567     8.4447     0.9321 H       
  47 H47            3.3282     7.6473     0.0115 H       
@<TRIPOS>BOND
   1    1    2 1
   2    1    3 2
   3    2    5 1
   4    3    4 1
   5    3    7 1
   6    4    5 2
   7    5    6 1
   8    6   13 ar
   9    6   17 ar
  10    7    8 ar
  11    7   12 ar
  12    8    9 ar
  13    8   27 1
  14    9   10 ar
  15    9   24 1
  16   10   11 ar
  17   10   26 1
  18   11   12 ar
  19   11   28 1
  20   12   29 1
  21   13   14 ar
  22   13   30 1
  23   14   15 ar
  24   14   31 1
  25   15   16 ar
  26   15   18 1
  27   16   17 ar
  28   16   19 1
  29   17   32 1
  30   18   22 1
  31   19   20 1
  32   20   21 1
  33   20   33 1
  34   20   34 1
  35   21   35 1
  36   21   36 1
  37   21   37 1
  38   22   23 1
  39   22   38 1
  40   22   39 1
  41   23   40 1
  42   23   41 1
  43   23   42 1
  44   24   25 1
  45   24   43 1
  46   24   44 1
  47   25   26 1
  48   25   45 1
  49   25   46 1
  50   26   47 1

#	End of record

