#	Name: ASD01883969
#	Creating user name:	WinNT
#	Creation time:	15. 06. 2019 19:47

#	Modifying user name:	WinNT
#	Modification time:	15. 06. 2019 19:47

#	Program:	/corina/corina34_cracker 3.40 0067  02.08.2006

@<TRIPOS>MOLECULE
ASD01883969
  52   55    0    0    0
SMALL
NO_CHARGES


@<TRIPOS>ATOM
   1 C1            -0.0187     1.5258     0.0104 C.3     
   2 C2             0.0021    -0.0041     0.0020 C.3     
   3 C3            -1.4333    -0.5336     0.0129 C.3     
   4 C4            -1.4126    -2.0635     0.0045 C.3     
   5 N5            -2.7870    -2.5706     0.0149 N.am    
   6 C6            -3.5874    -2.8701     1.2073 C.3     
   7 N7            -4.8880    -3.3473     0.7324 N.pl3   
   8 C8            -4.8591    -3.3312    -0.6352 C.2     
   9 N9            -6.0255    -3.7591    -1.0809 N.2     
  10 C10           -6.8152    -4.0540    -0.0560 C.2     
  11 C11           -8.2265    -4.5743    -0.1475 C.3     
  12 C12           -6.1184    -3.8020     1.1083 C.2     
  13 C13           -6.6083    -3.9884     2.4904 C.ar    
  14 C14           -5.7942    -4.5979     3.4465 C.ar    
  15 C15           -6.2573    -4.7684     4.7347 C.ar    
  16 C16           -7.5259    -4.3372     5.0798 C.ar    
  17 C17           -8.3382    -3.7326     4.1368 C.ar    
  18 C18           -7.8850    -3.5504     2.8466 C.ar    
  19 C19           -8.0254    -4.5272     6.4889 C.3     
  20 F20           -6.9441    -4.4901     7.3758 F       
  21 F21           -8.9247    -3.5038     6.8068 F       
  22 C22           -8.7208    -5.8595     6.5999 C.ar    
  23 C23          -10.0765    -5.9547     6.3472 C.ar    
  24 C24          -10.7144    -7.1768     6.4491 C.ar    
  25 C25           -9.9965    -8.3038     6.8033 C.ar    
  26 C26           -8.6407    -8.2088     7.0551 C.ar    
  27 C27           -8.0019    -6.9874     6.9490 C.ar    
  28 C28           -3.5404    -2.8384    -1.0677 C.2     
  29 O29           -3.1866    -2.6977    -2.2229 O.2     
  30 H30            1.0039     1.9031     0.0027 H       
  31 H31           -0.5459     1.8868    -0.8726 H       
  32 H32           -0.5289     1.8773     0.9072 H       
  33 H33            0.5123    -0.3556    -0.8948 H       
  34 H34            0.5293    -0.3651     0.8851 H       
  35 H35           -1.9435    -0.1821     0.9097 H       
  36 H36           -1.9605    -0.1726    -0.8702 H       
  37 H37           -0.9024    -2.4150    -0.8923 H       
  38 H38           -0.8854    -2.4246     0.8875 H       
  39 H39           -3.0995    -3.6445     1.7992 H       
  40 H40           -3.7168    -1.9685     1.8059 H       
  41 H41           -8.2111    -5.6639    -0.1735 H       
  42 H42           -8.7942    -4.2395     0.7207 H       
  43 H43           -8.6951    -4.1958    -1.0560 H       
  44 H44           -4.8040    -4.9357     3.1782 H       
  45 H45           -5.6285    -5.2399     5.4754 H       
  46 H46           -9.3275    -3.3986     4.4126 H       
  47 H47           -8.5182    -3.0743     2.1127 H       
  48 H48          -10.6374    -5.0742     6.0705 H       
  49 H49          -11.7738    -7.2511     6.2523 H       
  50 H50          -10.4951    -9.2585     6.8836 H       
  51 H51           -8.0799    -9.0892     7.3322 H       
  52 H52           -6.9419    -6.9138     7.1421 H       
@<TRIPOS>BOND
   1    1    2 1
   2    1   30 1
   3    1   31 1
   4    1   32 1
   5    2    3 1
   6    2   33 1
   7    2   34 1
   8    3    4 1
   9    3   35 1
  10    3   36 1
  11    4    5 1
  12    4   37 1
  13    4   38 1
  14    5   28 am
  15    5    6 1
  16    6    7 1
  17    6   39 1
  18    6   40 1
  19    7   12 1
  20    7    8 1
  21    8    9 2
  22    8   28 1
  23    9   10 1
  24   10   11 1
  25   10   12 2
  26   11   41 1
  27   11   42 1
  28   11   43 1
  29   12   13 1
  30   13   18 ar
  31   13   14 ar
  32   14   15 ar
  33   14   44 1
  34   15   16 ar
  35   15   45 1
  36   16   17 ar
  37   16   19 1
  38   17   18 ar
  39   17   46 1
  40   18   47 1
  41   19   20 1
  42   19   21 1
  43   19   22 1
  44   22   27 ar
  45   22   23 ar
  46   23   24 ar
  47   23   48 1
  48   24   25 ar
  49   24   49 1
  50   25   26 ar
  51   25   50 1
  52   26   27 ar
  53   26   51 1
  54   27   52 1
  55   28   29 2

#	End of record

