#	Name: ASD03330857
#	Creating user name:	WinNT
#	Creation time:	15. 06. 2019 20:38

#	Modifying user name:	WinNT
#	Modification time:	15. 06. 2019 20:38

#	Program:	/corina/corina34_cracker 3.40 0067  02.08.2006

@<TRIPOS>MOLECULE
ASD03330857
  64   66    0    0    0
SMALL
NO_CHARGES


@<TRIPOS>ATOM
   1 N1            -0.3900     1.2692    -0.8053 N.pl3   
   2 C2            -0.4159    -0.0500    -0.4763 C.2     
   3 C3             0.7909    -0.9148    -0.2213 C.3     
   4 N4             1.7090    -0.2064     0.6841 N.3     
   5 C5             2.6497     0.6306    -0.0630 C.3     
   6 C6             1.9959     1.1988    -1.3194 C.3     
   7 C7             0.8156     2.0933    -0.9304 C.3     
   8 C8            -1.6818     1.6720    -0.9813 C.2     
   9 N9            -2.4738     0.6504    -0.7531 N.2     
  10 C10           -1.7234    -0.4277    -0.4361 C.2     
  11 C11           -2.2295    -1.7718    -0.1065 C.2     
  12 O12           -1.4502    -2.6659     0.1628 O.2     
  13 N13           -3.5560    -2.0103    -0.1036 N.am    
  14 C14            2.4217    -1.1503     1.5554 C.3     
  15 C15           -5.4137    -3.5420    -0.4069 C.2     
  16 C16           -4.0591    -3.3466     0.2241 C.3     
  17 C17           -4.1787    -3.4884     1.7428 C.3     
  18 C18           -5.2120    -2.4899     2.2684 C.3     
  19 O19           -6.1185    -2.5827    -0.6391 O.2     
  20 N20           -5.8418    -4.7827    -0.7132 N.am    
  21 C21           -7.2023    -4.9844    -1.2177 C.3     
  22 C22           -4.6224    -4.9112     2.0888 C.3     
  23 C23           -2.8213    -3.2059     2.3898 C.3     
  24 C24           -2.1170     3.0324    -1.3645 C.ar    
  25 C25           -3.3942     3.2366    -1.8891 C.ar    
  26 C26           -3.7961     4.5060    -2.2452 C.ar    
  27 C27           -2.9321     5.5811    -2.0826 C.ar    
  28 C28           -1.6605     5.3818    -1.5610 C.ar    
  29 C29           -1.2535     4.1162    -1.1973 C.ar    
  30 O30           -3.3316     6.8306    -2.4351 O.3     
  31 C31           -2.3931     7.8906    -2.2414 C.3     
  32 F32           -2.0550     7.9723    -0.8863 F       
  33 F33           -1.2417     7.6376    -2.9948 F       
  34 H34            0.4769    -1.8520     0.2383 H       
  35 H35            1.2967    -1.1218    -1.1644 H       
  36 H36            2.9798     1.4528     0.5720 H       
  37 H37            3.5137     0.0308    -0.3490 H       
  38 H38            2.7275     1.7855    -1.8749 H       
  39 H39            1.6394     0.3800    -1.9443 H       
  40 H40            0.6620     2.8493    -1.7004 H       
  41 H41            1.0252     2.5793     0.0225 H       
  42 H42           -4.1775    -1.2973    -0.3184 H       
  43 H43            2.9429    -1.8868     0.9438 H       
  44 H44            3.1440    -0.6076     2.1651 H       
  45 H45            1.7068    -1.6570     2.2038 H       
  46 H46           -3.3686    -4.0986    -0.1578 H       
  47 H47           -6.1790    -2.6912     1.8075 H       
  48 H48           -5.2971    -2.5909     3.3504 H       
  49 H49           -4.8959    -1.4763     2.0219 H       
  50 H50           -5.2491    -5.5421    -0.5995 H       
  51 H51           -7.9204    -4.6335    -0.4766 H       
  52 H52           -7.3331    -4.4246    -2.1438 H       
  53 H53           -7.3657    -6.0451    -1.4082 H       
  54 H54           -3.8521    -5.6174     1.7792 H       
  55 H55           -4.7779    -4.9917     3.1647 H       
  56 H56           -5.5533    -5.1380     1.5692 H       
  57 H57           -2.5052    -2.1923     2.1433 H       
  58 H58           -2.9065    -3.3069     3.4718 H       
  59 H59           -2.0852    -3.9172     2.0153 H       
  60 H60           -4.0665     2.4010    -2.0161 H       
  61 H61           -4.7841     4.6647    -2.6515 H       
  62 H62           -0.9912     6.2202    -1.4363 H       
  63 H63           -0.2661     3.9626    -0.7875 H       
  64 H64           -2.8375     8.8327    -2.5624 H       
@<TRIPOS>BOND
   1    1    2 1
   2    1    7 1
   3    1    8 1
   4    2    3 1
   5    2   10 2
   6    3    4 1
   7    3   34 1
   8    3   35 1
   9    4    5 1
  10    4   14 1
  11    5    6 1
  12    5   36 1
  13    5   37 1
  14    6    7 1
  15    6   38 1
  16    6   39 1
  17    7   40 1
  18    7   41 1
  19    8    9 2
  20    8   24 1
  21    9   10 1
  22   10   11 1
  23   11   12 2
  24   11   13 am
  25   13   16 1
  26   13   42 1
  27   14   43 1
  28   14   44 1
  29   14   45 1
  30   15   19 2
  31   15   20 am
  32   15   16 1
  33   16   17 1
  34   16   46 1
  35   17   18 1
  36   17   22 1
  37   17   23 1
  38   18   47 1
  39   18   48 1
  40   18   49 1
  41   20   21 1
  42   20   50 1
  43   21   51 1
  44   21   52 1
  45   21   53 1
  46   22   54 1
  47   22   55 1
  48   22   56 1
  49   23   57 1
  50   23   58 1
  51   23   59 1
  52   24   25 ar
  53   24   29 ar
  54   25   26 ar
  55   25   60 1
  56   26   27 ar
  57   26   61 1
  58   27   28 ar
  59   27   30 1
  60   28   29 ar
  61   28   62 1
  62   29   63 1
  63   30   31 1
  64   31   32 1
  65   31   33 1
  66   31   64 1

#	End of record

