#	Name: ASD00069134
#	Creating user name:	WinNT
#	Creation time:	15. 06. 2019 18:29

#	Modifying user name:	WinNT
#	Modification time:	15. 06. 2019 18:29

#	Program:	/corina/corina34_cracker 3.40 0067  02.08.2006

@<TRIPOS>MOLECULE
ASD00069134
  58   61    0    0    0
SMALL
NO_CHARGES


@<TRIPOS>ATOM
   1 C1            -0.0972     1.1981    -0.5382 C.2     
   2 N2             0.0007    -0.0058    -0.0196 N.2     
   3 C3             1.2451    -0.4623    -0.2084 C.2     
   4 C4             1.9523     0.5002    -0.8739 C.2     
   5 N5             1.1116     1.5384    -1.0796 N.pl3   
   6 C6            -1.3088     2.0381    -0.5413 C.2     
   7 O7            -1.2828     3.1410    -1.0532 O.2     
   8 N8            -2.4452     1.5838     0.0232 N.am    
   9 C9             1.4694    -3.9041     1.2924 C.ar    
  10 C10            0.9451    -2.6883     0.9045 C.ar    
  11 C11            1.7655    -1.7809     0.2282 C.ar    
  12 C12            3.0898    -2.1503    -0.0261 C.ar    
  13 C13            3.5327    -3.3860     0.3969 C.ar    
  14 N14            2.7253    -4.2138     1.0328 N.ar    
  15 C15            0.5975    -4.8890     2.0278 C.3     
  16 C16            0.6008    -6.2267     1.2852 C.3     
  17 C17           -3.5605     2.4244     0.1262 C.ar    
  18 C18           -4.8463     1.8957     0.0209 C.ar    
  19 C19           -5.9478     2.7348     0.1239 C.ar    
  20 C20           -5.7664     4.0914     0.3305 C.ar    
  21 C21           -4.4906     4.6142     0.4343 C.ar    
  22 C22           -3.3890     3.7844     0.3390 C.ar    
  23 F23           -7.1958     2.2275     0.0220 F       
  24 N24           -5.0263     0.5224    -0.1887 N.3     
  25 C25           -5.7974    -0.0803     0.9061 C.3     
  26 C26           -5.8498    -1.5984     0.7194 C.3     
  27 C27           -6.5033    -1.9199    -0.6275 C.3     
  28 C28           -5.7089    -1.2406    -1.7464 C.3     
  29 C29           -5.6606     0.2671    -1.4883 C.3     
  30 C30           -6.5035    -3.4340    -0.8472 C.3     
  31 N31           -7.2359    -3.7497    -2.0808 N.3     
  32 H32            2.9872     0.4422    -1.1773 H       
  33 H33            1.3259     2.3709    -1.5289 H       
  34 H34           -2.4905     0.6746     0.3582 H       
  35 H35           -0.0840    -2.4415     1.1200 H       
  36 H36            3.7560    -1.4780    -0.5462 H       
  37 H37            4.5539    -3.6804     0.2048 H       
  38 H38            0.9833    -5.0328     3.0371 H       
  39 H39           -0.4211    -4.5046     2.0796 H       
  40 H40            1.6194    -6.6111     1.2335 H       
  41 H41           -0.0298    -6.9391     1.8172 H       
  42 H42            0.2150    -6.0829     0.2760 H       
  43 H43           -6.6237     4.7434     0.4105 H       
  44 H44           -4.3543     5.6734     0.5951 H       
  45 H45           -2.3942     4.1960     0.4254 H       
  46 H46           -5.3197     0.1523     1.8578 H       
  47 H47           -6.8107     0.3214     0.9007 H       
  48 H48           -4.8376    -2.0025     0.7385 H       
  49 H49           -6.4353    -2.0439     1.5236 H       
  50 H50           -7.5286    -1.5500    -0.6324 H       
  51 H51           -4.6945    -1.6391    -1.7661 H       
  52 H52           -6.1938    -1.4305    -2.7039 H       
  53 H53           -6.6745     0.6672    -1.4824 H       
  54 H54           -5.0835     0.7521    -2.2756 H       
  55 H55           -5.4765    -3.7888    -0.9335 H       
  56 H56           -6.9873    -3.9237    -0.0020 H       
  57 H57           -6.8457    -3.2559    -2.8695 H       
  58 H58           -7.2503    -4.7446    -2.2483 H       
@<TRIPOS>BOND
   1    1    2 2
   2    1    5 1
   3    1    6 1
   4    2    3 1
   5    3    4 2
   6    3   11 1
   7    4    5 1
   8    4   32 1
   9    5   33 1
  10    6    7 2
  11    6    8 am
  12    8   17 1
  13    8   34 1
  14    9   10 ar
  15    9   14 ar
  16    9   15 1
  17   10   11 ar
  18   10   35 1
  19   11   12 ar
  20   12   13 ar
  21   12   36 1
  22   13   14 ar
  23   13   37 1
  24   15   16 1
  25   15   38 1
  26   15   39 1
  27   16   40 1
  28   16   41 1
  29   16   42 1
  30   17   18 ar
  31   17   22 ar
  32   18   19 ar
  33   18   24 1
  34   19   20 ar
  35   19   23 1
  36   20   21 ar
  37   20   43 1
  38   21   22 ar
  39   21   44 1
  40   22   45 1
  41   24   25 1
  42   24   29 1
  43   25   26 1
  44   25   46 1
  45   25   47 1
  46   26   27 1
  47   26   48 1
  48   26   49 1
  49   27   28 1
  50   27   30 1
  51   27   50 1
  52   28   29 1
  53   28   51 1
  54   28   52 1
  55   29   53 1
  56   29   54 1
  57   30   31 1
  58   30   55 1
  59   30   56 1
  60   31   57 1
  61   31   58 1

#	End of record

