#	Name: ASD06170093
#	Creating user name:	WinNT
#	Creation time:	15. 06. 2019 21:05

#	Modifying user name:	WinNT
#	Modification time:	15. 06. 2019 21:05

#	Program:	/corina/corina34_cracker 3.40 0067  02.08.2006

@<TRIPOS>MOLECULE
ASD06170093
  65   69    0    0    0
SMALL
NO_CHARGES


@<TRIPOS>ATOM
   1 N1             0.1216     1.7651    -0.0715 N.pl3   
   2 N2             0.0314     0.3881     0.1526 N.am    
   3 C3             1.2665    -0.0857     0.4182 C.2     
   4 C4             2.1789     1.0671     0.3552 C.2     
   5 C5             1.4012     2.1668     0.0497 C.2     
   6 C6             3.6302     1.0514     0.5750 C.2     
   7 O7             4.2693     2.0837     0.4924 O.2     
   8 N8             4.2549    -0.1063     0.8682 N.am    
   9 C9            -1.1425    -0.3710     0.1093 C.ar    
  10 C10           -2.0537    -0.1853    -0.9223 C.ar    
  11 C11           -3.2116    -0.9369    -0.9625 C.ar    
  12 C12           -3.4645    -1.8732     0.0232 C.ar    
  13 C13           -2.5593    -2.0606     1.0516 C.ar    
  14 C14           -1.3968    -1.3163     1.0945 C.ar    
  15 O15            1.5667    -1.2394     0.6623 O.2     
  16 C16            1.9007     3.5785    -0.1202 C.3     
  17 C17            5.6537    -0.1556     0.9116 C.ar    
  18 C18            6.3793     0.9844     1.2324 C.ar    
  19 C19            7.7599     0.9346     1.2754 C.ar    
  20 C20            8.4207    -0.2561     0.9976 C.ar    
  21 C21            7.6953    -1.3935     0.6775 C.ar    
  22 C22            6.3152    -1.3455     0.6395 C.ar    
  23 O23            9.7792    -0.3055     1.0394 O.3     
  24 N24           11.5840    -0.2429     4.7472 N.ar    
  25 C25           10.2829    -0.1051     4.6440 C.ar    
  26 C26            9.6402    -0.1209     3.4128 C.ar    
  27 C27           10.3796    -0.2857     2.2545 C.ar    
  28 C28           11.7800    -0.4331     2.3775 C.ar    
  29 C29           12.5952    -0.6038     1.2491 C.ar    
  30 C30           13.9405    -0.7426     1.4002 C.ar    
  31 C31           14.5239    -0.7174     2.6702 C.ar    
  32 C32           13.7507    -0.5520     3.7970 C.ar    
  33 C33           12.3602    -0.4061     3.6692 C.ar    
  34 O34           15.8692    -0.8581     2.7940 O.3     
  35 C35           16.6175    -1.0268     1.5883 C.3     
  36 F36            8.4667     2.0430     1.5869 F       
  37 C37           -1.0075     2.6402    -0.3962 C.3     
  38 C38           -1.5559     3.2634     0.8890 C.3     
  39 N39           -2.6882     4.1409     0.5634 N.3     
  40 H40            3.7356    -0.9053     1.0492 H       
  41 H41           -1.8571     0.5464    -1.6920 H       
  42 H42           -3.9206    -0.7929    -1.7644 H       
  43 H43           -4.3711    -2.4592    -0.0102 H       
  44 H44           -2.7598    -2.7927     1.8199 H       
  45 H45           -0.6883    -1.4660     1.8958 H       
  46 H46            1.8718     4.0923     0.8407 H       
  47 H47            2.9255     3.5591    -0.4912 H       
  48 H48            1.2661     4.1051    -0.8330 H       
  49 H49            5.8650     1.9094     1.4477 H       
  50 H50            8.2094    -2.3185     0.4617 H       
  51 H51            5.7508    -2.2330     0.3941 H       
  52 H52            9.6958     0.0241     5.5412 H       
  53 H53            8.5677    -0.0058     3.3596 H       
  54 H54           12.1563    -0.6254     0.2625 H       
  55 H55           14.5647    -0.8742     0.5287 H       
  56 H56           14.2110    -0.5346     4.7739 H       
  57 H57           16.2756    -1.9232     1.0709 H       
  58 H58           16.4717    -0.1585     0.9457 H       
  59 H59           17.6759    -1.1274     1.8286 H       
  60 H60           -0.6734     3.4300    -1.0691 H       
  61 H61           -1.7911     2.0577    -0.8806 H       
  62 H62           -1.8901     2.4736     1.5619 H       
  63 H63           -0.7724     3.8460     1.3734 H       
  64 H64           -3.0683     4.5648     1.3964 H       
  65 H65           -2.4195     4.8431    -0.1095 H       
@<TRIPOS>BOND
   1    1    2 1
   2    1    5 1
   3    1   37 1
   4    2    3 am
   5    2    9 1
   6    3    4 1
   7    3   15 2
   8    4    5 2
   9    4    6 1
  10    5   16 1
  11    6    7 2
  12    6    8 am
  13    8   17 1
  14    8   40 1
  15    9   10 ar
  16    9   14 ar
  17   10   11 ar
  18   10   41 1
  19   11   12 ar
  20   11   42 1
  21   12   13 ar
  22   12   43 1
  23   13   14 ar
  24   13   44 1
  25   14   45 1
  26   16   46 1
  27   16   47 1
  28   16   48 1
  29   17   18 ar
  30   17   22 ar
  31   18   19 ar
  32   18   49 1
  33   19   20 ar
  34   19   36 1
  35   20   21 ar
  36   20   23 1
  37   21   22 ar
  38   21   50 1
  39   22   51 1
  40   23   27 1
  41   24   25 ar
  42   24   33 ar
  43   25   26 ar
  44   25   52 1
  45   26   27 ar
  46   26   53 1
  47   27   28 ar
  48   28   29 ar
  49   28   33 ar
  50   29   30 ar
  51   29   54 1
  52   30   31 ar
  53   30   55 1
  54   31   32 ar
  55   31   34 1
  56   32   33 ar
  57   32   56 1
  58   34   35 1
  59   35   57 1
  60   35   58 1
  61   35   59 1
  62   37   38 1
  63   37   60 1
  64   37   61 1
  65   38   39 1
  66   38   62 1
  67   38   63 1
  68   39   64 1
  69   39   65 1

#	End of record

