#	Name: ASD04882184
#	Creating user name:	WinNT
#	Creation time:	15. 06. 2019 20:54

#	Modifying user name:	WinNT
#	Modification time:	15. 06. 2019 20:54

#	Program:	/corina/corina34_cracker 3.40 0067  02.08.2006

@<TRIPOS>MOLECULE
ASD04882184
  76   80    0    0    0
SMALL
NO_CHARGES


@<TRIPOS>ATOM
   1 C1             0.1257     1.4902    -0.4329 C.2     
   2 C2             0.1460     0.0187    -0.4837 C.2     
   3 N3             1.1860    -0.6594     0.0406 N.am    
   4 C4             1.1515    -2.0590     0.0999 C.ar    
   5 C5             2.3301    -2.7947    -0.0510 C.ar    
   6 C6             2.2974    -4.1832     0.0076 C.ar    
   7 C7             1.1039    -4.8389     0.2139 C.ar    
   8 C8            -0.0785    -4.1092     0.3657 C.ar    
   9 C9            -0.0473    -2.7128     0.3133 C.ar    
  10 N10            3.5389    -2.1359    -0.2608 N.3     
  11 C11            3.5456    -1.4485    -1.5596 C.3     
  12 C12            4.6712    -3.0667    -0.1548 C.3     
  13 C13            5.9816    -2.2917    -0.3121 C.3     
  14 N14            5.9883    -1.6043    -1.6110 N.3     
  15 C15            4.8560    -0.6736    -1.7169 C.3     
  16 C16            7.2008    -0.9436    -1.8214 C.ar    
  17 C17            7.9953    -1.2770    -2.9107 C.ar    
  18 C18            7.6121     0.0526    -0.9447 C.ar    
  19 C19            8.8113     0.7038    -1.1556 C.ar    
  20 C20            9.6025     0.3657    -2.2384 C.ar    
  21 C21            9.1937    -0.6216    -3.1158 C.ar    
  22 C22           -1.3568    -4.8118     0.5862 C.2     
  23 N23           -1.3851    -6.1581     0.6415 N.am    
  24 O24           -2.3850    -4.1761     0.7181 O.2     
  25 O25           -0.7759    -0.5848    -0.9990 O.2     
  26 C26            7.5505    -2.3530    -3.8676 C.3     
  27 C27           -2.6545    -6.8557     0.8605 C.3     
  28 C28           -2.4097    -8.3659     0.8806 C.3     
  29 C29           -3.7355    -9.0945     1.1093 C.3     
  30 N30           -3.5011   -10.5405     1.1285 N.am    
  31 C31           -3.1869   -11.3125     2.3366 C.3     
  32 C32           -2.6059   -12.6514     1.8305 C.3     
  33 C33           -3.2457   -12.7625     0.4272 C.3     
  34 C34           -3.5517   -11.3315     0.0429 C.2     
  35 O35           -3.7993   -10.9522    -1.0821 O.2     
  36 N36            1.1035     2.2154     0.1166 N.2     
  37 C37           -0.8818     2.2337    -0.9432 C.2     
  38 S38           -0.5323     3.8871    -0.6860 S.3     
  39 C39            0.9400     3.4910     0.0833 C.2     
  40 C40           -2.1111     1.6933    -1.6272 C.3     
  41 H41            1.9584    -0.1787     0.3770 H       
  42 H42            3.2098    -4.7491    -0.1094 H       
  43 H43            1.0817    -5.9177     0.2582 H       
  44 H44           -0.9593    -2.1463     0.4306 H       
  45 H45            3.4593    -2.1831    -2.3603 H       
  46 H46            2.7054    -0.7560    -1.6089 H       
  47 H47            4.6516    -3.5538     0.8201 H       
  48 H48            4.5976    -3.8196    -0.9395 H       
  49 H49            6.0680    -1.5571     0.4885 H       
  50 H50            6.8219    -2.9842    -0.2629 H       
  51 H51            4.8757    -0.1864    -2.6918 H       
  52 H52            4.9296     0.0794    -0.9323 H       
  53 H53            6.9943     0.3177    -0.0994 H       
  54 H54            9.1316     1.4783    -0.4745 H       
  55 H55           10.5397     0.8770    -2.4015 H       
  56 H56            9.8140    -0.8833    -3.9603 H       
  57 H57           -0.5649    -6.6651     0.5363 H       
  58 H58            6.9595    -1.9065    -4.6672 H       
  59 H59            8.4251    -2.8447    -4.2934 H       
  60 H60            6.9452    -3.0860    -3.3342 H       
  61 H61           -3.0806    -6.5440     1.8141 H       
  62 H62           -3.3474    -6.6107     0.0555 H       
  63 H63           -1.9836    -8.6776    -0.0730 H       
  64 H64           -1.7168    -8.6110     1.6856 H       
  65 H65           -4.1616    -8.7828     2.0629 H       
  66 H66           -4.4284    -8.8494     0.3043 H       
  67 H67           -2.4483   -10.7848     2.9399 H       
  68 H68           -4.0923   -11.4896     2.9171 H       
  69 H69           -1.5192   -12.6037     1.7611 H       
  70 H70           -2.9186   -13.4782     2.4683 H       
  71 H71           -2.5440   -13.2080    -0.2779 H       
  72 H72           -4.1651   -13.3462     0.4722 H       
  73 H73            1.6367     4.2112     0.4862 H       
  74 H74           -2.8939     1.5247    -0.8877 H       
  75 H75           -2.4602     2.4123    -2.3684 H       
  76 H76           -1.8683     0.7520    -2.1203 H       
@<TRIPOS>BOND
   1    1    2 1
   2    1   36 1
   3    1   37 2
   4    2    3 am
   5    2   25 2
   6    3    4 1
   7    3   41 1
   8    4    5 ar
   9    4    9 ar
  10    5    6 ar
  11    5   10 1
  12    6    7 ar
  13    6   42 1
  14    7    8 ar
  15    7   43 1
  16    8    9 ar
  17    8   22 1
  18    9   44 1
  19   10   11 1
  20   10   12 1
  21   11   15 1
  22   11   45 1
  23   11   46 1
  24   12   13 1
  25   12   47 1
  26   12   48 1
  27   13   14 1
  28   13   49 1
  29   13   50 1
  30   14   15 1
  31   14   16 1
  32   15   51 1
  33   15   52 1
  34   16   17 ar
  35   16   18 ar
  36   17   26 1
  37   17   21 ar
  38   18   19 ar
  39   18   53 1
  40   19   20 ar
  41   19   54 1
  42   20   21 ar
  43   20   55 1
  44   21   56 1
  45   22   23 am
  46   22   24 2
  47   23   27 1
  48   23   57 1
  49   26   58 1
  50   26   59 1
  51   26   60 1
  52   27   28 1
  53   27   61 1
  54   27   62 1
  55   28   29 1
  56   28   63 1
  57   28   64 1
  58   29   30 1
  59   29   65 1
  60   29   66 1
  61   30   31 1
  62   30   34 am
  63   31   32 1
  64   31   67 1
  65   31   68 1
  66   32   33 1
  67   32   69 1
  68   32   70 1
  69   33   34 1
  70   33   71 1
  71   33   72 1
  72   34   35 2
  73   36   39 2
  74   37   38 1
  75   37   40 1
  76   38   39 1
  77   39   73 1
  78   40   74 1
  79   40   75 1
  80   40   76 1

#	End of record

