#	Name: ASD05313029
#	Creating user name:	WinNT
#	Creation time:	15. 06. 2019 20:58

#	Modifying user name:	WinNT
#	Modification time:	15. 06. 2019 20:58

#	Program:	/corina/corina34_cracker 3.40 0067  02.08.2006

@<TRIPOS>MOLECULE
ASD05313029
  44   46    0    0    0
SMALL
NO_CHARGES


@<TRIPOS>ATOM
   1 C1            -0.2152     1.3902     0.5299 C.2     
   2 C2            -0.0910    -0.0970     0.3018 C.3     
   3 N3             0.8437     2.2383     0.5697 N.pl3   
   4 N4             1.3006    -0.3535    -0.1152 N.am    
   5 C5             2.3788     0.3398     0.6060 C.3     
   6 C6             2.2420     1.8513     0.3880 C.3     
   7 N7            -0.9650     3.3317     0.8850 N.2     
   8 N8            -1.2876     2.0938     0.7243 N.2     
   9 C9             0.3336     3.4646     0.7998 C.2     
  10 C10            1.1130     4.7471     0.9368 C.3     
  11 C11            2.0040     4.9362    -0.2926 C.3     
  12 C12            0.1423     5.9244     1.0490 C.3     
  13 C13            1.9841     4.6828     2.1930 C.3     
  14 C14            1.5762    -1.1993    -1.1277 C.2     
  15 O15            2.7199    -1.3265    -1.5192 O.2     
  16 C16            0.4879    -1.9721    -1.7618 C.ar    
  17 C17            0.4023    -2.0511    -3.1543 C.ar    
  18 C18           -0.6178    -2.7752    -3.7396 C.ar    
  19 C19           -1.5527    -3.4203    -2.9504 C.ar    
  20 C20           -1.4734    -3.3453    -1.5709 C.ar    
  21 C21           -0.4561    -2.6312    -0.9726 C.ar    
  22 C22           -0.7127    -2.8622    -5.2411 C.3     
  23 F23           -1.8184    -3.6433    -5.5940 F       
  24 F24           -0.8602    -1.5773    -5.7743 F       
  25 F25            0.4524    -3.4469    -5.7489 F       
  26 Cl26           1.5745    -1.2409    -4.1458 Cl      
  27 H27           -0.3078    -0.6343     1.2250 H       
  28 H28           -0.7786    -0.4117    -0.4832 H       
  29 H29            2.3062     0.1175     1.6706 H       
  30 H30            3.3443     0.0034     0.2283 H       
  31 H31            2.5614     2.1038    -0.6232 H       
  32 H32            2.8634     2.3812     1.1100 H       
  33 H33            1.3834     4.9820    -1.1875 H       
  34 H34            2.5678     5.8638    -0.1935 H       
  35 H35            2.6956     4.0975    -0.3725 H       
  36 H36           -0.4925     5.7897     1.9248 H       
  37 H37            0.7060     6.8520     1.1481 H       
  38 H38           -0.4783     5.9701     0.1541 H       
  39 H39            2.6196     3.7984     2.1495 H       
  40 H40            2.6071     5.5755     2.2491 H       
  41 H41            1.3462     4.6289     3.0751 H       
  42 H42           -2.3487    -3.9850    -3.4130 H       
  43 H43           -2.2074    -3.8510    -0.9610 H       
  44 H44           -0.3930    -2.5782     0.1042 H       
@<TRIPOS>BOND
   1    1    2 1
   2    1    3 1
   3    1    8 2
   4    2    4 1
   5    2   27 1
   6    2   28 1
   7    3    6 1
   8    3    9 1
   9    4    5 1
  10    4   14 am
  11    5    6 1
  12    5   29 1
  13    5   30 1
  14    6   31 1
  15    6   32 1
  16    7    8 1
  17    7    9 2
  18    9   10 1
  19   10   11 1
  20   10   12 1
  21   10   13 1
  22   11   33 1
  23   11   34 1
  24   11   35 1
  25   12   36 1
  26   12   37 1
  27   12   38 1
  28   13   39 1
  29   13   40 1
  30   13   41 1
  31   14   15 2
  32   14   16 1
  33   16   17 ar
  34   16   21 ar
  35   17   18 ar
  36   17   26 1
  37   18   19 ar
  38   18   22 1
  39   19   20 ar
  40   19   42 1
  41   20   21 ar
  42   20   43 1
  43   21   44 1
  44   22   23 1
  45   22   24 1
  46   22   25 1

#	End of record

