#	Name: ASD03430133
#	Creating user name:	WinNT
#	Creation time:	15. 06. 2019 20:40

#	Modifying user name:	WinNT
#	Modification time:	15. 06. 2019 20:40

#	Program:	/corina/corina34_cracker 3.40 0067  02.08.2006

@<TRIPOS>MOLECULE
ASD03430133
  67   75    0    0    0
SMALL
NO_CHARGES


@<TRIPOS>ATOM
   1 C1             1.5318     0.4322    -1.4715 C.ar    
   2 C2             1.3555    -0.8784    -1.0860 C.ar    
   3 C3             2.3818    -1.5616    -0.4683 C.ar    
   4 C4             3.5986    -0.9316    -0.2202 C.ar    
   5 C5             3.7707     0.3885    -0.6190 C.ar    
   6 C6             2.7421     1.0784    -1.2499 C.ar    
   7 O7             4.4630    -1.7677     0.4223 O.3     
   8 C8             2.5152    -2.9715     0.0399 C.3     
   9 C9             4.0281    -3.1295     0.2453 C.3     
  10 C10            0.8701    -4.2406     1.0395 C.ar    
  11 C11            1.7509    -3.1987     1.3098 C.ar    
  12 C12            1.9759    -3.9791    -0.9348 C.2     
  13 N13            1.0240    -4.6735    -0.2802 N.am    
  14 O14            2.3278    -4.1368    -2.0847 O.2     
  15 C15            1.7774    -2.6069     2.5652 C.ar    
  16 C16            0.9157    -3.0608     3.5645 C.ar    
  17 C17            0.0419    -4.0951     3.2961 C.ar    
  18 C18            0.0155    -4.6827     2.0474 C.ar    
  19 C19            2.7191    -1.4958     2.8436 C.ar    
  20 C20            0.6093     1.4308    -2.1425 C.3     
  21 C21            1.3443     2.7676    -1.8859 C.3     
  22 O22            2.7121     2.3535    -1.7279 O.3     
  23 C23            0.2417    -5.7559    -0.8823 C.3     
  24 C24           -1.0226    -5.1774    -1.5209 C.3     
  25 C25           -1.8530    -6.3087    -2.1574 C.3     
  26 C26           -3.2229    -6.2229    -1.4413 C.3     
  27 C27           -3.2163    -4.7703    -0.9009 C.3     
  28 O28           -1.8415    -4.5615    -0.5127 O.3     
  29 C29            2.2797    -0.1823     2.7737 C.ar    
  30 C30            3.1576     0.8559     3.0329 C.ar    
  31 C31            4.4662     0.5938     3.3606 C.ar    
  32 C32            4.9348    -0.7328     3.4381 C.ar    
  33 C33            4.0596    -1.7773     3.1849 C.ar    
  34 C34            6.2945    -1.1957     3.7729 C.ar    
  35 C35            6.4100    -2.5781     3.7582 C.ar    
  36 S36            4.8751    -3.3247     3.3437 S.3     
  37 C37            7.4229    -0.4142     4.0883 C.ar    
  38 C38            8.6236    -1.0144     4.3778 C.ar    
  39 C39            8.7350    -2.3966     4.3615 C.ar    
  40 C40            7.6426    -3.1738     4.0565 C.ar    
  41 H41            0.4119    -1.3716    -1.2674 H       
  42 H42            4.7131     0.8835    -0.4366 H       
  43 H43            4.4939    -3.5732    -0.6346 H       
  44 H44            4.2381    -3.7217     1.1359 H       
  45 H45            0.9326    -2.6052     4.5436 H       
  46 H46           -0.6255    -4.4473     4.0687 H       
  47 H47           -0.6734    -5.4907     1.8498 H       
  48 H48            0.5283     1.2296    -3.2107 H       
  49 H49           -0.3739     1.4302    -1.6719 H       
  50 H50            1.2395     3.4361    -2.7405 H       
  51 H51            0.9768     3.2418    -0.9759 H       
  52 H52            0.8388    -6.2546    -1.6457 H       
  53 H53           -0.0368    -6.4749    -0.1118 H       
  54 H54           -0.7517    -4.4440    -2.2804 H       
  55 H55           -1.9707    -6.1397    -3.2277 H       
  56 H56           -1.3855    -7.2758    -1.9720 H       
  57 H57           -4.0404    -6.3719    -2.1467 H       
  58 H58           -3.2802    -6.9418    -0.6240 H       
  59 H59           -3.5051    -4.0684    -1.6832 H       
  60 H60           -3.8768    -4.6786    -0.0386 H       
  61 H61            1.2526     0.0306     2.5167 H       
  62 H62            2.8123     1.8777     2.9769 H       
  63 H63            5.1418     1.4123     3.5604 H       
  64 H64            7.3435     0.6628     4.1021 H       
  65 H65            9.4842    -0.4079     4.6187 H       
  66 H66            9.6818    -2.8636     4.5893 H       
  67 H67            7.7355    -4.2497     4.0454 H       
@<TRIPOS>BOND
   1    1    2 ar
   2    1    6 ar
   3    1   20 1
   4    2    3 ar
   5    2   41 1
   6    3    4 ar
   7    3    8 1
   8    4    5 ar
   9    4    7 1
  10    5    6 ar
  11    5   42 1
  12    6   22 1
  13    7    9 1
  14    8    9 1
  15    8   11 1
  16    8   12 1
  17    9   43 1
  18    9   44 1
  19   10   11 ar
  20   10   13 1
  21   10   18 ar
  22   11   15 ar
  23   12   13 am
  24   12   14 2
  25   13   23 1
  26   15   16 ar
  27   15   19 1
  28   16   17 ar
  29   16   45 1
  30   17   18 ar
  31   17   46 1
  32   18   47 1
  33   19   29 ar
  34   19   33 ar
  35   20   21 1
  36   20   48 1
  37   20   49 1
  38   21   22 1
  39   21   50 1
  40   21   51 1
  41   23   24 1
  42   23   52 1
  43   23   53 1
  44   24   25 1
  45   24   28 1
  46   24   54 1
  47   25   26 1
  48   25   55 1
  49   25   56 1
  50   26   27 1
  51   26   57 1
  52   26   58 1
  53   27   28 1
  54   27   59 1
  55   27   60 1
  56   29   30 ar
  57   29   61 1
  58   30   31 ar
  59   30   62 1
  60   31   32 ar
  61   31   63 1
  62   32   33 ar
  63   32   34 1
  64   33   36 1
  65   34   35 ar
  66   34   37 ar
  67   35   36 1
  68   35   40 ar
  69   37   38 ar
  70   37   64 1
  71   38   39 ar
  72   38   65 1
  73   39   40 ar
  74   39   66 1
  75   40   67 1

#	End of record

