#	Name: ASD01208598
#	Creating user name:	WinNT
#	Creation time:	15. 06. 2019 19:10

#	Modifying user name:	WinNT
#	Modification time:	15. 06. 2019 19:10

#	Program:	/corina/corina34_cracker 3.40 0067  02.08.2006

@<TRIPOS>MOLECULE
ASD01208598
  16   16    0    0    0
SMALL
NO_CHARGES


@<TRIPOS>ATOM
   1 C1            -0.0167     1.3810     0.0096 C.ar    
   2 C2             0.0021    -0.0041     0.0020 C.ar    
   3 N3             1.1194     2.0569     0.0024 N.ar    
   4 N4             1.1550    -0.6486    -0.0125 N.ar    
   5 C5             2.2905     0.0279    -0.0197 C.ar    
   6 C6             2.2723     1.4109    -0.0121 C.ar    
   7 S7             3.8280    -0.8325    -0.0384 S.o2    
   8 O8             4.7435     0.0728     0.5629 O.2     
   9 O9             3.5354    -2.0861     0.5633 O.2     
  10 C10            4.2066    -1.0447    -1.7997 C.3     
  11 Br11          -1.6668     2.3046     0.0225 Br      
  12 H12           -0.9257    -0.5569     0.0083 H       
  13 H13            3.2005     1.9631    -0.0180 H       
  14 H14            4.2816    -0.0669    -2.2756 H       
  15 H15            5.1532    -1.5744    -1.9066 H       
  16 H16            3.4124    -1.6202    -2.2753 H       
@<TRIPOS>BOND
   1    1    2 ar
   2    1    3 ar
   3    1   11 1
   4    2    4 ar
   5    2   12 1
   6    3    6 ar
   7    4    5 ar
   8    5    6 ar
   9    5    7 1
  10    6   13 1
  11    7    8 2
  12    7    9 2
  13    7   10 1
  14   10   14 1
  15   10   15 1
  16   10   16 1

#	End of record

