#	Name: ASD00842577
#	Creating user name:	WinNT
#	Creation time:	15. 06. 2019 18:44

#	Modifying user name:	WinNT
#	Modification time:	15. 06. 2019 18:44

#	Program:	/corina/corina34_cracker 3.40 0067  02.08.2006

@<TRIPOS>MOLECULE
ASD00842577
  93   98    0    0    0
SMALL
NO_CHARGES


@<TRIPOS>ATOM
   1 F1            -0.0934    -3.1266     4.7188 F       
   2 C2            -0.0167     1.3829     0.0096 C.ar    
   3 C3             0.0021    -0.0041     0.0020 C.ar    
   4 C4             1.2143    -0.6791    -0.0132 C.ar    
   5 C5             2.3989     0.0312    -0.0207 C.ar    
   6 C6             2.3774     1.4139    -0.0126 C.ar    
   7 C7             1.1710     2.0888     0.0021 C.ar    
   8 C8             1.2384    -2.1858    -0.0210 C.3     
   9 C9             0.4953    -2.7219    -1.2261 C.2     
  10 O10            2.6067    -2.6715    -0.0097 O.3     
  11 C11            3.3980    -2.2932    -1.0313 C.2     
  12 N12            4.6790    -2.7090    -1.0811 N.am    
  13 O13            2.9572    -1.5768    -1.9082 O.2     
  14 C14            5.5547    -2.3046    -2.1894 C.3     
  15 C15            6.1662    -3.5606    -2.8182 C.3     
  16 C16            6.8654    -4.3813    -1.7320 C.3     
  17 C17            5.8417    -4.8168    -0.6810 C.3     
  18 C18            5.2281    -3.5704    -0.0251 C.3     
  19 C19            7.5070    -5.6191    -2.3621 C.3     
  20 C20            8.5328    -5.1851    -3.4128 C.3     
  21 C21            9.2145    -6.4250    -3.9958 C.3     
  22 N22            9.8763    -7.1730    -2.9193 N.3     
  23 C23            8.9046    -7.6409    -1.9227 C.3     
  24 C24            8.2137    -6.4373    -1.2778 C.3     
  25 C25           10.6570    -8.2938    -3.4600 C.3     
  26 O26            0.7742    -2.5259    -2.3901 O.2     
  27 N27           -0.5308    -3.4561    -0.7641 N.am    
  28 C28            0.4693    -2.7338     1.1591 C.ar    
  29 C29           -0.5745    -3.4835     0.6314 C.ar    
  30 C30            0.6333    -2.6124     2.5205 C.ar    
  31 C31           -0.2502    -3.2433     3.3820 C.ar    
  32 C32           -1.2951    -3.9938     2.8675 C.ar    
  33 C33           -1.4596    -4.1155     1.5019 C.ar    
  34 Cl34          -2.4029    -4.7849     3.9448 Cl      
  35 C35           -0.9816    -5.8522    -2.0406 C.ar    
  36 C36            0.1966    -6.0106    -2.7553 C.ar    
  37 C37           -1.6521    -6.9613    -1.5618 C.ar    
  38 C38           -1.1494    -8.2280    -1.7940 C.ar    
  39 C39            0.0250    -8.3885    -2.5062 C.ar    
  40 C40            0.6988    -7.2830    -2.9874 C.ar    
  41 H41            0.4157    -9.3792    -2.6863 H       
  42 O42            0.8577    -4.9213    -3.2278 O.3     
  43 C43            2.0644    -5.1597    -3.9551 C.3     
  44 C44           11.5244    -8.8929    -2.3512 C.3     
  45 C45           12.3376   -10.0602    -2.9143 C.3     
  46 S46           -1.6188    -4.2377    -1.7375 S.o2    
  47 O47           -2.7979    -4.4105    -0.9634 O.2     
  48 O48           -1.6010    -3.5584    -2.9855 O.2     
  49 O49           -1.1648    -0.7006     0.0099 O.3     
  50 C50           -3.5740    -0.8895     0.0328 C.3     
  51 C51           -2.3744     0.0601     0.0260 C.3     
  52 H52           -0.9590     1.9106     0.0170 H       
  53 H53            3.3426    -0.4937    -0.0325 H       
  54 H54            3.3047     1.9675    -0.0178 H       
  55 H55            1.1569     3.1687     0.0084 H       
  56 H56            4.9723    -1.7677    -2.9382 H       
  57 H57            6.3493    -1.6614    -1.8113 H       
  58 H58            5.3783    -4.1589    -3.2757 H       
  59 H59            6.8915    -3.2706    -3.5785 H       
  60 H60            7.6366    -3.7742    -1.2580 H       
  61 H61            5.0568    -5.4032    -1.1587 H       
  62 H62            6.3359    -5.4208     0.0799 H       
  63 H63            5.9975    -3.0329     0.5291 H       
  64 H64            4.4288    -3.8702     0.6527 H       
  65 H65            6.7365    -6.2280    -2.8351 H       
  66 H66            8.0285    -4.6385    -4.2096 H       
  67 H67            9.2810    -4.5433    -2.9475 H       
  68 H68            8.4676    -7.0595    -4.4730 H       
  69 H69            9.9556    -6.1186    -4.7340 H       
  70 H70            8.1592    -8.2697    -2.4096 H       
  71 H71            9.4207    -8.2176    -1.1552 H       
  72 H72            8.9569    -5.8152    -0.7789 H       
  73 H73            7.4814    -6.7853    -0.5492 H       
  74 H74            9.9797    -9.0567    -3.8437 H       
  75 H75           11.2957    -7.9356    -4.2674 H       
  76 H76            1.4496    -2.0266     2.9167 H       
  77 H77           -2.2763    -4.7021     1.1078 H       
  78 H78           -2.5695    -6.8386    -1.0052 H       
  79 H79           -1.6746    -9.0937    -1.4182 H       
  80 H80            1.6156    -7.4089    -3.5442 H       
  81 H81            2.4902    -4.2085    -4.2745 H       
  82 H82            2.7773    -5.6804    -3.3156 H       
  83 H83            1.8464    -5.7722    -4.8300 H       
  84 H84           12.2018    -8.1300    -1.9675 H       
  85 H85           10.8858    -9.2511    -1.5438 H       
  86 H86           11.6602   -10.8232    -3.2980 H       
  87 H87           12.9762    -9.7021    -3.7217 H       
  88 H88           12.9555   -10.4871    -2.1243 H       
  89 H89           -4.4966    -0.3093     0.0451 H       
  90 H90           -3.5489    -1.5131    -0.8609 H       
  91 H91           -3.5312    -1.5227     0.9190 H       
  92 H92           -2.3995     0.6837     0.9196 H       
  93 H93           -2.4172     0.6932    -0.8603 H       
@<TRIPOS>BOND
   1    1   31 1
   2    2    3 ar
   3    2    7 ar
   4    2   52 1
   5    3    4 ar
   6    3   49 1
   7    4    5 ar
   8    4    8 1
   9    5    6 ar
  10    5   53 1
  11    6    7 ar
  12    6   54 1
  13    7   55 1
  14    8    9 1
  15    8   10 1
  16    8   28 1
  17    9   26 2
  18    9   27 am
  19   10   11 1
  20   11   12 am
  21   11   13 2
  22   12   14 1
  23   12   18 1
  24   14   15 1
  25   14   56 1
  26   14   57 1
  27   15   16 1
  28   15   58 1
  29   15   59 1
  30   16   17 1
  31   16   19 1
  32   16   60 1
  33   17   18 1
  34   17   61 1
  35   17   62 1
  36   18   63 1
  37   18   64 1
  38   19   20 1
  39   19   24 1
  40   19   65 1
  41   20   21 1
  42   20   66 1
  43   20   67 1
  44   21   22 1
  45   21   68 1
  46   21   69 1
  47   22   23 1
  48   22   25 1
  49   23   24 1
  50   23   70 1
  51   23   71 1
  52   24   72 1
  53   24   73 1
  54   25   44 1
  55   25   74 1
  56   25   75 1
  57   27   46 am
  58   27   29 1
  59   28   29 ar
  60   28   30 ar
  61   29   33 ar
  62   30   31 ar
  63   30   76 1
  64   31   32 ar
  65   32   33 ar
  66   32   34 1
  67   33   77 1
  68   35   36 ar
  69   35   37 ar
  70   35   46 1
  71   36   42 1
  72   36   40 ar
  73   37   38 ar
  74   37   78 1
  75   38   39 ar
  76   38   79 1
  77   39   40 ar
  78   39   41 1
  79   40   80 1
  80   42   43 1
  81   43   81 1
  82   43   82 1
  83   43   83 1
  84   44   45 1
  85   44   84 1
  86   44   85 1
  87   45   86 1
  88   45   87 1
  89   45   88 1
  90   46   47 2
  91   46   48 2
  92   49   51 1
  93   50   51 1
  94   50   89 1
  95   50   90 1
  96   50   91 1
  97   51   92 1
  98   51   93 1

#	End of record

