#	Name: ASD05170117
#	Creating user name:	WinNT
#	Creation time:	15. 06. 2019 20:57

#	Modifying user name:	WinNT
#	Modification time:	15. 06. 2019 20:57

#	Program:	/corina/corina34_cracker 3.40 0067  02.08.2006

@<TRIPOS>MOLECULE
ASD05170117
  43   46    0    0    0
SMALL
NO_CHARGES


@<TRIPOS>ATOM
   1 C1            -0.0542     1.3827    -0.1308 C.ar    
   2 C2            -0.0407    -0.0007    -0.1565 C.ar    
   3 C3             1.1868    -0.6513    -0.1522 C.ar    
   4 C4             2.3477     0.0971    -0.1226 C.ar    
   5 N5             2.3015     1.4157    -0.0986 N.ar    
   6 C6             1.1525     2.0702    -0.1018 C.ar    
   7 O7             1.1522     3.4270    -0.0764 O.3     
   8 C8             2.4251     4.0756    -0.0472 C.3     
   9 C9             2.2273     5.5693    -0.0220 C.2     
  10 C10            0.9957     6.2377    -0.0204 C.2     
  11 N11            3.1783     6.4737     0.0082 N.2     
  12 C12            1.3132     7.5662     0.0041 C.2     
  13 C13            0.4724     8.7725     0.0220 C.2     
  14 N14            2.6880     7.6509     0.0324 N.pl3   
  15 C15            3.3675     8.9503     0.0990 C.3     
  16 C16            2.5071    10.0049    -0.5956 C.3     
  17 N17            1.1095     9.9525    -0.1731 N.am    
  18 O18           -0.7291     8.7142     0.2016 O.2     
  19 C19            3.5752     9.3437     1.5629 C.3     
  20 Cl20           1.2611    -2.3854    -0.1830 Cl      
  21 C21            0.4200    11.1384     0.0378 C.ar    
  22 N22            0.3764    11.6675     1.2499 N.ar    
  23 C23           -0.2667    12.7925     1.4941 C.ar    
  24 C24           -0.9285    13.4730     0.4876 C.ar    
  25 C25           -0.9162    12.9656    -0.7997 C.ar    
  26 C26           -0.2227    11.7733    -1.0377 C.ar    
  27 C27           -0.1738    11.2082    -2.3526 C.1     
  28 N28           -0.1350    10.7600    -3.3957 N.1     
  29 H29           -0.9905     1.9209    -0.1377 H       
  30 H30           -0.9632    -0.5619    -0.1790 H       
  31 H31            3.3048    -0.4032    -0.1187 H       
  32 H32            2.9702     3.7661     0.8445 H       
  33 H33            2.9941     3.7994    -0.9350 H       
  34 H34            0.0093     5.7980    -0.0352 H       
  35 H35            4.3337     8.8819    -0.4008 H       
  36 H36            2.9072    10.9927    -0.3668 H       
  37 H37            2.5576     9.8472    -1.6729 H       
  38 H38            4.1856     8.5890     2.0589 H       
  39 H39            4.0798    10.3086     1.6117 H       
  40 H40            2.6082     9.4137     2.0611 H       
  41 H41           -0.2773    13.1899     2.4983 H       
  42 H42           -1.4510    14.3928     0.7050 H       
  43 H43           -1.4256    13.4790    -1.6018 H       
@<TRIPOS>BOND
   1    1    2 ar
   2    1    6 ar
   3    1   29 1
   4    2    3 ar
   5    2   30 1
   6    3    4 ar
   7    3   20 1
   8    4    5 ar
   9    4   31 1
  10    5    6 ar
  11    6    7 1
  12    7    8 1
  13    8    9 1
  14    8   32 1
  15    8   33 1
  16    9   11 2
  17    9   10 1
  18   10   12 2
  19   10   34 1
  20   11   14 1
  21   12   14 1
  22   12   13 1
  23   13   17 am
  24   13   18 2
  25   14   15 1
  26   15   16 1
  27   15   19 1
  28   15   35 1
  29   16   17 1
  30   16   36 1
  31   16   37 1
  32   17   21 1
  33   19   38 1
  34   19   39 1
  35   19   40 1
  36   21   22 ar
  37   21   26 ar
  38   22   23 ar
  39   23   24 ar
  40   23   41 1
  41   24   25 ar
  42   24   42 1
  43   25   26 ar
  44   25   43 1
  45   26   27 1
  46   27   28 3

#	End of record

