#	Name: ASD01915943
#	Creating user name:	WinNT
#	Creation time:	15. 06. 2019 20:06

#	Modifying user name:	WinNT
#	Modification time:	15. 06. 2019 20:06

#	Program:	/corina/corina34_cracker 3.40 0067  02.08.2006

@<TRIPOS>MOLECULE
ASD01915943
  40   43    0    0    0
SMALL
NO_CHARGES


@<TRIPOS>ATOM
   1 C1            -0.0165     1.3682     0.0096 C.2     
   2 C2             0.0021    -0.0041     0.0020 C.2     
   3 C3            -1.3075    -0.7746     0.0118 C.3     
   4 C4            -2.3563     0.0470     0.7582 C.3     
   5 N5            -2.3977     1.4368     0.3216 N.am    
   6 C6            -1.2721     2.1286     0.0202 C.2     
   7 O7            -1.3005     3.3207    -0.2220 O.2     
   8 S8             1.6342     1.9488    -0.0031 S.3     
   9 C9             2.2070     0.3364    -0.0181 C.2     
  10 N10            1.2149    -0.4958    -0.0130 N.2     
  11 O11            4.1065    -0.1763    -1.3884 O.3     
  12 C12            5.4050    -0.5291    -1.5822 C.ar    
  13 C13            5.9038    -0.6608    -2.8697 C.ar    
  14 C14            6.2338    -0.7522    -0.4925 C.ar    
  15 C15            7.5531    -1.1108    -0.6909 C.ar    
  16 C16            8.0483    -1.2470    -1.9766 C.ar    
  17 C17            7.2236    -1.0195    -3.0652 C.ar    
  18 C18            3.6610    -0.0593    -0.0356 C.3     
  19 C19           -3.6956     2.1053     0.2002 C.3     
  20 C20           -4.0524     2.7720     1.5303 C.3     
  21 C21           -5.3218     3.6249     1.5749 C.3     
  22 C22           -5.2921     2.2605     2.2667 C.3     
  23 F23            9.3390    -1.5968    -2.1692 F       
  24 H24           -1.6385    -0.9456    -1.0126 H       
  25 H25           -1.1653    -1.7304     0.5162 H       
  26 H26           -3.3361    -0.4021     0.5959 H       
  27 H27           -2.1313     0.0197     1.8244 H       
  28 H28            5.2607    -0.4834    -3.7190 H       
  29 H29            5.8480    -0.6453     0.5106 H       
  30 H30            8.1986    -1.2845     0.1574 H       
  31 H31            7.6111    -1.1261    -4.0676 H       
  32 H32            4.2507     0.7010     0.4766 H       
  33 H33            3.7832    -1.0165     0.4712 H       
  34 H34           -3.6428     2.8618    -0.5828 H       
  35 H35           -4.4599     1.3712    -0.0548 H       
  36 H36           -3.2059     3.0973     2.1350 H       
  37 H37           -5.3106     4.5112     2.2093 H       
  38 H38           -5.9028     3.7111     0.6567 H       
  39 H39           -5.8536     1.4491     1.8036 H       
  40 H40           -5.2614     2.2492     3.3562 H       
@<TRIPOS>BOND
   1    1    2 2
   2    1    8 1
   3    1    6 1
   4    2    3 1
   5    2   10 1
   6    3    4 1
   7    3   24 1
   8    3   25 1
   9    4    5 1
  10    4   26 1
  11    4   27 1
  12    5    6 am
  13    5   19 1
  14    6    7 2
  15    8    9 1
  16    9   10 2
  17    9   18 1
  18   11   12 1
  19   11   18 1
  20   12   13 ar
  21   12   14 ar
  22   13   17 ar
  23   13   28 1
  24   14   15 ar
  25   14   29 1
  26   15   16 ar
  27   15   30 1
  28   16   17 ar
  29   16   23 1
  30   17   31 1
  31   18   32 1
  32   18   33 1
  33   19   20 1
  34   19   34 1
  35   19   35 1
  36   20   21 1
  37   20   22 1
  38   20   36 1
  39   21   22 1
  40   21   37 1
  41   21   38 1
  42   22   39 1
  43   22   40 1

#	End of record

