#	Name: ASD02038846
#	Creating user name:	WinNT
#	Creation time:	15. 06. 2019 20:17

#	Modifying user name:	WinNT
#	Modification time:	15. 06. 2019 20:17

#	Program:	/corina/corina34_cracker 3.40 0067  02.08.2006

@<TRIPOS>MOLECULE
ASD02038846
  54   57    0    0    0
SMALL
NO_CHARGES


@<TRIPOS>ATOM
   1 C1            -1.2600    -1.2311     0.2339 C.2     
   2 C2            -0.0549    -0.3866     0.1622 C.2     
   3 N3             1.1599    -0.9555     0.0321 N.am    
   4 C4             1.2922    -2.4143     0.0579 C.3     
   5 C5             1.3306    -2.9403    -1.3538 C.ar    
   6 C6             2.3482    -0.1152    -0.1351 C.3     
   7 O7            -0.1564     0.8240     0.2206 O.2     
   8 N8            -1.2925    -2.5878     0.1961 N.2     
   9 C9            -2.5301    -2.9817     0.2837 C.2     
  10 N10           -3.3354    -1.8920     0.3808 N.pl3   
  11 C11           -2.5459    -0.7925     0.3561 C.2     
  12 C12            2.5453    -3.2094    -1.9571 C.ar    
  13 C13            2.1690     0.7880    -1.3593 C.3     
  14 C14            3.3799     1.7168    -1.4802 C.3     
  15 O15            3.5155     2.4793    -0.2792 O.3     
  16 C16            3.7329     1.6897     0.8919 C.3     
  17 C17            2.5362     0.7598     1.1080 C.3     
  18 C18            0.1510    -3.1583    -2.0414 C.ar    
  19 C19            0.1834    -3.6403    -3.3355 C.ar    
  20 C20            1.4012    -3.9058    -3.9453 C.ar    
  21 C21            2.5833    -3.6916    -3.2511 C.ar    
  22 C22           -4.7957    -1.9046     0.4976 C.3     
  23 O23            1.4358    -4.3801    -5.2183 O.3     
  24 C24            0.2540    -4.6663    -5.8248 C.ar    
  25 C25           -0.5423    -3.6407    -6.3142 C.ar    
  26 C26           -0.1559    -5.9849    -5.9610 C.ar    
  27 C27           -1.3577    -6.2731    -6.5780 C.ar    
  28 C28           -2.1520    -5.2489    -7.0596 C.ar    
  29 C29           -1.7432    -3.9344    -6.9303 C.ar    
  30 H30            2.2138    -2.6866     0.5723 H       
  31 H31            0.4411    -2.8470     0.5838 H       
  32 H32            3.2253    -0.7473    -0.2737 H       
  33 H33           -2.8630    -4.0091     0.2795 H       
  34 H34           -2.8723     0.2354     0.4145 H       
  35 H35            3.4651    -3.0421    -1.4165 H       
  36 H36            2.0898     0.1740    -2.2564 H       
  37 H37            1.2634     1.3834    -1.2432 H       
  38 H38            4.2799     1.1222    -1.6368 H       
  39 H39            3.2380     2.3910    -2.3248 H       
  40 H40            4.6375     1.0947     0.7663 H       
  41 H41            3.8453     2.3445     1.7560 H       
  42 H42            1.6380     1.3546     1.2740 H       
  43 H43            2.7196     0.1257     1.9754 H       
  44 H44           -0.7966    -2.9518    -1.5661 H       
  45 H45           -0.7383    -3.8108    -3.8720 H       
  46 H46            3.5325    -3.8974    -3.7235 H       
  47 H47           -5.0756    -1.9377     1.5505 H       
  48 H48           -5.2045    -1.0031     0.0412 H       
  49 H49           -5.1934    -2.7822    -0.0119 H       
  50 H50           -0.2236    -2.6138    -6.2131 H       
  51 H51            0.4644    -6.7852    -5.5853 H       
  52 H52           -1.6770    -7.2993    -6.6845 H       
  53 H53           -3.0913    -5.4764    -7.5417 H       
  54 H54           -2.3657    -3.1362    -7.3071 H       
@<TRIPOS>BOND
   1    1    2 1
   2    1    8 1
   3    1   11 2
   4    2    3 am
   5    2    7 2
   6    3    4 1
   7    3    6 1
   8    4    5 1
   9    4   30 1
  10    4   31 1
  11    5   12 ar
  12    5   18 ar
  13    6   13 1
  14    6   17 1
  15    6   32 1
  16    8    9 2
  17    9   10 1
  18    9   33 1
  19   10   11 1
  20   10   22 1
  21   11   34 1
  22   12   21 ar
  23   12   35 1
  24   13   14 1
  25   13   36 1
  26   13   37 1
  27   14   15 1
  28   14   38 1
  29   14   39 1
  30   15   16 1
  31   16   17 1
  32   16   40 1
  33   16   41 1
  34   17   42 1
  35   17   43 1
  36   18   19 ar
  37   18   44 1
  38   19   20 ar
  39   19   45 1
  40   20   21 ar
  41   20   23 1
  42   21   46 1
  43   22   47 1
  44   22   48 1
  45   22   49 1
  46   23   24 1
  47   24   25 ar
  48   24   26 ar
  49   25   29 ar
  50   25   50 1
  51   26   27 ar
  52   26   51 1
  53   27   28 ar
  54   27   52 1
  55   28   29 ar
  56   28   53 1
  57   29   54 1

#	End of record

