#	Name: ASD03731736
#	Creating user name:	WinNT
#	Creation time:	15. 06. 2019 20:46

#	Modifying user name:	WinNT
#	Modification time:	15. 06. 2019 20:46

#	Program:	/corina/corina34_cracker 3.40 0067  02.08.2006

@<TRIPOS>MOLECULE
ASD03731736
  43   45    0    0    0
SMALL
NO_CHARGES


@<TRIPOS>ATOM
   1 C1             0.1036     1.3987     0.8835 C.2     
   2 C2             0.0918    -0.0579     0.6452 C.ar    
   3 C3            -0.1040    -0.5549    -0.6461 C.ar    
   4 C4            -0.1144    -1.9143    -0.8645 C.ar    
   5 C5             0.0694    -2.7922     0.1978 C.ar    
   6 C6             0.2645    -2.3017     1.4839 C.ar    
   7 C7             0.2820    -0.9434     1.7093 C.ar    
   8 O8            -0.0571     2.1678    -0.0443 O.2     
   9 N9             0.2870     1.8760     2.1305 N.am    
  10 S10            0.3003     3.5102     2.3979 S.o2    
  11 O11            0.5385     3.6350     3.7932 O.2     
  12 O12            1.2299     4.0132     1.4481 O.2     
  13 C13           -1.3826     4.0495     1.9887 C.3     
  14 O14            0.0580    -4.1313    -0.0213 O.3     
  15 C15           -1.1270    -4.7858     0.0910 C.ar    
  16 C16           -1.1711    -6.1798    -0.0111 C.ar    
  17 C17           -2.3904    -6.8418     0.1053 C.ar    
  18 C18           -3.5480    -6.1209     0.3206 C.ar    
  19 C19           -3.5014    -4.7419     0.4213 C.ar    
  20 C20           -2.2955    -4.0751     0.3129 C.ar    
  21 N21            2.1787    -7.5044    -0.5761 N.pl3   
  22 N22            1.2851    -6.4456    -0.3703 N.2     
  23 C23            0.0758    -6.9498    -0.2430 C.2     
  24 C24            0.1747    -8.3496    -0.3659 C.2     
  25 C25            1.4744    -8.6565    -0.5690 C.2     
  26 C26            3.6255    -7.3825    -0.7715 C.3     
  27 H27           -0.2472     0.1265    -1.4718 H       
  28 H28           -0.2660    -2.2992    -1.8621 H       
  29 H29            0.4066    -2.9868     2.3066 H       
  30 H30            0.4383    -0.5630     2.7080 H       
  31 H31            0.4112     1.2623     2.8713 H       
  32 H32           -2.0955     3.5372     2.6348 H       
  33 H33           -1.4655     5.1261     2.1379 H       
  34 H34           -1.5981     3.8093     0.9476 H       
  35 H35           -2.4307    -7.9182     0.0269 H       
  36 H36           -4.4934    -6.6353     0.4104 H       
  37 H37           -4.4109    -4.1842     0.5894 H       
  38 H38           -2.2646    -2.9988     0.3972 H       
  39 H39           -0.6433    -9.0524    -0.3081 H       
  40 H40            1.8791    -9.6489    -0.7025 H       
  41 H41            4.1278    -7.4288     0.1948 H       
  42 H42            3.9768    -8.1984    -1.4031 H       
  43 H43            3.8483    -6.4296    -1.2515 H       
@<TRIPOS>BOND
   1    1    2 1
   2    1    8 2
   3    1    9 am
   4    2    3 ar
   5    2    7 ar
   6    3    4 ar
   7    3   27 1
   8    4    5 ar
   9    4   28 1
  10    5    6 ar
  11    5   14 1
  12    6    7 ar
  13    6   29 1
  14    7   30 1
  15    9   10 am
  16    9   31 1
  17   10   11 2
  18   10   12 2
  19   10   13 1
  20   13   32 1
  21   13   33 1
  22   13   34 1
  23   14   15 1
  24   15   16 ar
  25   15   20 ar
  26   16   17 ar
  27   16   23 1
  28   17   18 ar
  29   17   35 1
  30   18   19 ar
  31   18   36 1
  32   19   20 ar
  33   19   37 1
  34   20   38 1
  35   21   22 1
  36   21   25 1
  37   21   26 1
  38   22   23 2
  39   23   24 1
  40   24   25 2
  41   24   39 1
  42   25   40 1
  43   26   41 1
  44   26   42 1
  45   26   43 1

#	End of record

