#	Name: ASD03330073
#	Creating user name:	WinNT
#	Creation time:	15. 06. 2019 20:36

#	Modifying user name:	WinNT
#	Modification time:	15. 06. 2019 20:36

#	Program:	/corina/corina34_cracker 3.40 0067  02.08.2006

@<TRIPOS>MOLECULE
ASD03330073
  72   75    0    0    0
SMALL
NO_CHARGES


@<TRIPOS>ATOM
   1 C1             1.4496     1.1999     0.0314 C.2     
   2 C2             1.1346    -0.0181     0.5553 C.2     
   3 C3             2.7653     1.5775     0.2011 C.2     
   4 C4             3.5366     0.6563     0.8727 C.2     
   5 S5             2.5540    -0.7367     1.3022 S.3     
   6 C6             4.9702     0.8136     1.1838 C.ar    
   7 C7             5.4356     0.5878     2.4830 C.ar    
   8 C8             5.8691     1.1831     0.1805 C.ar    
   9 C9             7.2079     1.3281     0.4770 C.ar    
  10 C10            7.6631     1.1082     1.7677 C.ar    
  11 C11            6.7777     0.7362     2.7671 C.ar    
  12 C12            3.3031     2.8658    -0.2978 C.ar    
  13 C13            3.1738     3.2022    -1.6447 C.ar    
  14 C14            3.9342     3.7463     0.5800 C.ar    
  15 C15            4.4335     4.9440     0.1126 C.ar    
  16 C16            4.3077     5.2735    -1.2300 C.ar    
  17 C17            3.6752     4.4015    -2.1056 C.ar    
  18 C18           -0.1924    -0.6371     0.5042 C.2     
  19 O19           -1.1863     0.0365     0.7044 O.2     
  20 O20            4.8004     6.4548    -1.6873 O.3     
  21 N21           -0.3126    -1.9523     0.2355 N.am    
  22 C22           -1.6382    -2.5666     0.0803 C.3     
  23 C23            0.8797    -2.7979     0.0863 C.3     
  24 C24            0.7986    -3.5321    -1.2557 C.3     
  25 C25           -0.5263    -4.2939    -1.3367 C.3     
  26 C26           -1.6858    -3.3039    -1.2617 C.3     
  27 N27           -0.5929    -5.0260    -2.6085 N.3     
  28 F28           -4.2377    -6.2732    -4.3060 F       
  29 C29           -3.2331    -7.2405    -4.1958 C.3     
  30 C30           -1.8772    -6.5512    -4.0304 C.3     
  31 Cl31           4.3274     0.1224     3.7357 Cl      
  32 C32            4.6367     6.7303    -3.0799 C.3     
  33 C33            5.2493     8.0940    -3.4054 C.3     
  34 C34            5.0742     8.3890    -4.8964 C.3     
  35 O35            5.6463     9.6627    -5.2004 O.3     
  36 F36            8.9761     1.2516     2.0514 F       
  37 C37           -0.6156    -5.2689    -0.1911 C.2     
  38 N38           -0.0283    -6.4781    -0.2880 N.am    
  39 O39           -1.2160    -4.9655     0.8180 O.2     
  40 F40           -3.4842    -8.0488    -3.0819 F       
  41 F41           -3.2171    -8.0299    -5.3507 F       
  42 C42           -1.8947    -5.6879    -2.7673 C.3     
  43 H43            0.7272     1.8185    -0.4803 H       
  44 H44            5.5162     1.3545    -0.8257 H       
  45 H45            7.9035     1.6134    -0.2983 H       
  46 H46            7.1382     0.5663     3.7708 H       
  47 H47            2.6818     2.5242    -2.3264 H       
  48 H48            4.0318     3.4908     1.6248 H       
  49 H49            4.9225     5.6264     0.7919 H       
  50 H50            3.5790     4.6609    -3.1495 H       
  51 H51           -1.8107    -3.2735     0.8919 H       
  52 H52           -2.4045    -1.7917     0.0988 H       
  53 H53            1.7742    -2.1755     0.1088 H       
  54 H54            0.9167    -3.5240     0.8984 H       
  55 H55            0.8530    -2.8093    -2.0698 H       
  56 H56            1.6279    -4.2349    -1.3366 H       
  57 H57           -2.6299    -3.8427    -1.3427 H       
  58 H58           -1.6048    -2.5862    -2.0780 H       
  59 H59           -0.4005    -4.4149    -3.3880 H       
  60 H60           -1.0945    -7.3049    -3.9444 H       
  61 H61           -1.6815    -5.9214    -4.8982 H       
  62 H62            5.1374     5.9583    -3.6643 H       
  63 H63            3.5749     6.7410    -3.3259 H       
  64 H64            4.7487     8.8660    -2.8210 H       
  65 H65            6.3112     8.0834    -3.1594 H       
  66 H66            5.5748     7.6171    -5.4808 H       
  67 H67            4.0123     8.3997    -5.1424 H       
  68 H68            5.5715     9.9156    -6.1308 H       
  69 H69            0.5138    -6.6933    -1.0631 H       
  70 H70           -0.1477    -7.1332     0.4173 H       
  71 H71           -2.0904    -6.3176    -1.8994 H       
  72 H72           -2.6775    -4.9342    -2.8532 H       
@<TRIPOS>BOND
   1    1    2 2
   2    1    3 1
   3    1   43 1
   4    2   18 1
   5    2    5 1
   6    3    4 2
   7    3   12 1
   8    4    5 1
   9    4    6 1
  10    6    7 ar
  11    6    8 ar
  12    7   31 1
  13    7   11 ar
  14    8    9 ar
  15    8   44 1
  16    9   10 ar
  17    9   45 1
  18   10   11 ar
  19   10   36 1
  20   11   46 1
  21   12   13 ar
  22   12   14 ar
  23   13   17 ar
  24   13   47 1
  25   14   15 ar
  26   14   48 1
  27   15   16 ar
  28   15   49 1
  29   16   17 ar
  30   16   20 1
  31   17   50 1
  32   18   19 2
  33   18   21 am
  34   20   32 1
  35   21   22 1
  36   21   23 1
  37   22   26 1
  38   22   51 1
  39   22   52 1
  40   23   24 1
  41   23   53 1
  42   23   54 1
  43   24   25 1
  44   24   55 1
  45   24   56 1
  46   25   26 1
  47   25   27 1
  48   25   37 1
  49   26   57 1
  50   26   58 1
  51   27   42 1
  52   27   59 1
  53   28   29 1
  54   29   30 1
  55   29   40 1
  56   29   41 1
  57   30   42 1
  58   30   60 1
  59   30   61 1
  60   32   33 1
  61   32   62 1
  62   32   63 1
  63   33   34 1
  64   33   64 1
  65   33   65 1
  66   34   35 1
  67   34   66 1
  68   34   67 1
  69   35   68 1
  70   37   38 am
  71   37   39 2
  72   38   69 1
  73   38   70 1
  74   42   71 1
  75   42   72 1

#	End of record

