#	Name: ASD01150261
#	Creating user name:	WinNT
#	Creation time:	15. 06. 2019 19:03

#	Modifying user name:	WinNT
#	Modification time:	15. 06. 2019 19:03

#	Program:	/corina/corina34_cracker 3.40 0067  02.08.2006

@<TRIPOS>MOLECULE
ASD01150261
  48   49    0    0    0
SMALL
NO_CHARGES


@<TRIPOS>ATOM
   1 C1            -0.0232     1.3074     0.1605 C.2     
   2 N2            -0.0026    -0.0076     0.1029 N.2     
   3 C3            -1.2405    -0.4790    -0.0718 C.2     
   4 C4            -2.1047     0.6090    -0.1290 C.2     
   5 N5            -1.3037     1.7448     0.0272 N.pl3   
   6 N6             1.0782     2.1131     0.3344 N.3     
   7 C7             1.6884     1.8933     1.6524 C.3     
   8 C8             2.0576     1.9050    -0.7405 C.3     
   9 C9            -1.7365     3.0771     0.0372 C.ar    
  10 N10           -1.5991    -1.8136    -0.1777 N.pl3   
  11 C11           -3.5007     0.5741    -0.3033 C.2     
  12 O12           -4.2060     1.7255    -0.3384 O.3     
  13 O13           -4.0730    -0.4945    -0.4226 O.2     
  14 C14           -5.6193     1.6154    -0.5183 C.3     
  15 C15           -6.2421     3.0129    -0.5320 C.3     
  16 C16           -5.9113     0.9139    -1.8463 C.3     
  17 C17           -6.2178     0.8016     0.6308 C.3     
  18 O18           -7.6554     2.9028    -0.7119 O.3     
  19 C19           -8.3374     4.1582    -0.7394 C.3     
  20 C20           -2.5168     3.5473     1.0852 C.ar    
  21 C21           -2.9416     4.8615     1.0924 C.ar    
  22 C22           -2.5909     5.7086     0.0572 C.ar    
  23 C23           -1.8143     5.2433    -0.9880 C.ar    
  24 C24           -1.3813     3.9318    -0.9979 C.ar    
  25 H25            1.9996     0.8524     1.7397 H       
  26 H26            2.5568     2.5427     1.7636 H       
  27 H27            0.9616     2.1219     2.4320 H       
  28 H28            1.5751     2.0566    -1.7061 H       
  29 H29            2.8768     2.6153    -0.6282 H       
  30 H30            2.4477     0.8887    -0.6848 H       
  31 H31           -0.9198    -2.5040    -0.1252 H       
  32 H32           -2.5295    -2.0573    -0.3043 H       
  33 H33           -6.0341     3.5126     0.4140 H       
  34 H34           -5.8157     3.5926    -1.3507 H       
  35 H35           -5.4676    -0.0817    -1.8365 H       
  36 H36           -6.9893     0.8299    -1.9835 H       
  37 H37           -5.4849     1.4937    -2.6649 H       
  38 H38           -6.0098     1.3014     1.5768 H       
  39 H39           -7.2959     0.7176     0.4935 H       
  40 H40           -5.7741    -0.1940     0.6405 H       
  41 H41           -9.4050     3.9888    -0.8792 H       
  42 H42           -8.1729     4.6818     0.2024 H       
  43 H43           -7.9545     4.7618    -1.5623 H       
  44 H44           -2.7916     2.8859     1.8935 H       
  45 H45           -3.5485     5.2277     1.9072 H       
  46 H46           -2.9246     6.7358     0.0650 H       
  47 H47           -1.5423     5.9073    -1.7952 H       
  48 H48           -0.7745     3.5690    -1.8143 H       
@<TRIPOS>BOND
   1    1    2 2
   2    1    6 1
   3    1    5 1
   4    2    3 1
   5    3    4 2
   6    3   10 1
   7    4    5 1
   8    4   11 1
   9    5    9 1
  10    6    7 1
  11    6    8 1
  12    7   25 1
  13    7   26 1
  14    7   27 1
  15    8   28 1
  16    8   29 1
  17    8   30 1
  18    9   20 ar
  19    9   24 ar
  20   10   31 1
  21   10   32 1
  22   11   12 1
  23   11   13 2
  24   12   14 1
  25   14   15 1
  26   14   16 1
  27   14   17 1
  28   15   18 1
  29   15   33 1
  30   15   34 1
  31   16   35 1
  32   16   36 1
  33   16   37 1
  34   17   38 1
  35   17   39 1
  36   17   40 1
  37   18   19 1
  38   19   41 1
  39   19   42 1
  40   19   43 1
  41   20   21 ar
  42   20   44 1
  43   21   22 ar
  44   21   45 1
  45   22   23 ar
  46   22   46 1
  47   23   24 ar
  48   23   47 1
  49   24   48 1

#	End of record

