#	Name: ASD01150618
#	Creating user name:	WinNT
#	Creation time:	15. 06. 2019 19:04

#	Modifying user name:	WinNT
#	Modification time:	15. 06. 2019 19:04

#	Program:	/corina/corina34_cracker 3.40 0067  02.08.2006

@<TRIPOS>MOLECULE
ASD01150618
  49   51    0    0    0
SMALL
NO_CHARGES


@<TRIPOS>ATOM
   1 C1             0.4940     1.3929    -0.9443 C.ar    
   2 C2             0.4600     0.0122    -0.9190 C.ar    
   3 C3             1.9461     0.0071     0.9681 C.ar    
   4 C4             1.9822     1.3937     0.9445 C.ar    
   5 C5             1.2553     2.0879    -0.0124 C.ar    
   6 N6             1.2894     3.4867    -0.0392 N.am    
   7 C7             0.1379     4.1762    -0.1202 C.2     
   8 N8             0.1338     5.5220    -0.1481 N.am    
   9 C9             1.2975     6.2026    -0.0941 C.2     
  10 C10            2.5604     5.4544    -0.0048 C.2     
  11 N11            2.5215     4.1482     0.0246 N.2     
  12 O12            1.3020     7.4193    -0.1192 O.2     
  13 C13           -1.1354     6.2483    -0.2378 C.3     
  14 O14           -0.9175     3.5739    -0.1696 O.2     
  15 C15           -1.6540     6.5264     1.1496 C.ar    
  16 O16            3.7486     6.1106     0.0512 O.3     
  17 C17            4.9288     5.3094     0.1367 C.3     
  18 C18            1.1830    -0.6827     0.0331 C.ar    
  19 N19            2.6783    -0.6967     1.9314 N.am    
  20 C20            2.9412    -0.1292     3.1253 C.2     
  21 O21            2.6195     1.0215     3.3338 O.2     
  22 C22            3.6350    -0.9245     4.2011 C.3     
  23 C23           -1.2975     7.6936     1.7984 C.ar    
  24 C24           -1.7710     7.9523     3.0718 C.ar    
  25 C25           -2.6033     7.0431     3.6987 C.ar    
  26 C26           -2.9629     5.8695     3.0474 C.ar    
  27 C27           -2.4901     5.6167     1.7690 C.ar    
  28 Cl28           1.1373    -2.4178     0.0610 Cl      
  29 F29           -3.0657     7.2952     4.9428 F       
  30 O30           -3.7806     4.9732     3.6608 O.3     
  31 C31           -4.1083     3.7889     2.9314 C.3     
  32 H32           -0.0682     1.9327    -1.6919 H       
  33 H33           -0.1328    -0.5257    -1.6441 H       
  34 H34            2.5746     1.9319     1.6697 H       
  35 H35           -0.9785     7.1906    -0.7627 H       
  36 H36           -1.8614     5.6452    -0.7829 H       
  37 H37            4.9926     4.6621    -0.7380 H       
  38 H38            5.8052     5.9564     0.1746 H       
  39 H39            4.8887     4.6986     1.0385 H       
  40 H40            2.9963    -1.5928     1.7398 H       
  41 H41            4.6123    -1.2466     3.8416 H       
  42 H42            3.7607    -0.3035     5.0880 H       
  43 H43            3.0339    -1.7985     4.4517 H       
  44 H44           -0.6476     8.4047     1.3103 H       
  45 H45           -1.4904     8.8647     3.5770 H       
  46 H46           -2.7682     4.7053     1.2607 H       
  47 H47           -4.6144     4.0610     2.0052 H       
  48 H48           -3.1951     3.2410     2.6990 H       
  49 H49           -4.7652     3.1613     3.5337 H       
@<TRIPOS>BOND
   1    1    2 ar
   2    1    5 ar
   3    1   32 1
   4    2   18 ar
   5    2   33 1
   6    3    4 ar
   7    3   19 1
   8    3   18 ar
   9    4    5 ar
  10    4   34 1
  11    5    6 1
  12    6    7 am
  13    6   11 1
  14    7    8 am
  15    7   14 2
  16    8    9 am
  17    8   13 1
  18    9   10 1
  19    9   12 2
  20   10   11 2
  21   10   16 1
  22   13   15 1
  23   13   35 1
  24   13   36 1
  25   15   23 ar
  26   15   27 ar
  27   16   17 1
  28   17   37 1
  29   17   38 1
  30   17   39 1
  31   18   28 1
  32   19   20 am
  33   19   40 1
  34   20   21 2
  35   20   22 1
  36   22   41 1
  37   22   42 1
  38   22   43 1
  39   23   24 ar
  40   23   44 1
  41   24   25 ar
  42   24   45 1
  43   25   26 ar
  44   25   29 1
  45   26   27 ar
  46   26   30 1
  47   27   46 1
  48   30   31 1
  49   31   47 1
  50   31   48 1
  51   31   49 1

#	End of record

