#	Name: ASD03740218
#	Creating user name:	WinNT
#	Creation time:	15. 06. 2019 20:46

#	Modifying user name:	WinNT
#	Modification time:	15. 06. 2019 20:46

#	Program:	/corina/corina34_cracker 3.40 0067  02.08.2006

@<TRIPOS>MOLECULE
ASD03740218
  40   42    0    0    0
SMALL
NO_CHARGES


@<TRIPOS>ATOM
   1 N1            -0.0204     1.6518     0.0111 N.am    
   2 C2             5.3174     5.7359     3.3366 C.2     
   3 O3             3.5741     6.4663     2.2492 O.3     
   4 C4             5.3206     5.1780     2.0375 C.2     
   5 N5             2.3658     1.8675    -0.0109 N.2     
   6 O6             0.9002    -0.3875    -1.0303 O.2     
   7 S7             0.0021    -0.0041     0.0020 S.o2    
   8 C8             4.2325     5.6541     1.4061 C.2     
   9 O9             4.5097     2.4661    -0.0297 O.2     
  10 C10            4.2274     6.5196     3.4214 C.2     
  11 C11            3.8098     7.3209     4.6274 C.3     
  12 C12            2.9268     4.1179    -0.0049 C.2     
  13 C13            1.1463     2.3467     0.0037 C.2     
  14 C14            0.7349    -0.5241     1.5177 C.ar    
  15 C15           -0.0577    -0.7456     2.6284 C.ar    
  16 C16            0.5173    -1.1535     3.8175 C.ar    
  17 C17            1.8847    -1.3404     3.8957 C.ar    
  18 C18            2.6771    -1.1198     2.7847 C.ar    
  19 C19            2.1017    -0.7160     1.5945 C.ar    
  20 C20            2.5116    -1.7842     5.1923 C.3     
  21 O21           -1.3547    -0.4240     0.0475 O.2     
  22 C22            3.3295     2.7801    -0.0159 C.2     
  23 C23            3.8215     5.3305    -0.0072 C.3     
  24 S24            1.3621     4.1069     0.0107 S.o     
  25 H25           -0.8669     2.1253     0.0177 H       
  26 H26            6.0473     5.5624     4.1134 H       
  27 H27            6.0559     4.4999     1.6301 H       
  28 H28            4.2574     8.3135     4.5769 H       
  29 H29            2.7238     7.4125     4.6445 H       
  30 H30            4.1461     6.8163     5.5331 H       
  31 H31           -1.1260    -0.5995     2.5673 H       
  32 H32           -0.1018    -1.3258     4.6855 H       
  33 H33            3.7455    -1.2655     2.8460 H       
  34 H34            2.7204    -0.5473     0.7255 H       
  35 H35            2.5445    -2.8731     5.2260 H       
  36 H36            3.5247    -1.3878     5.2604 H       
  37 H37            1.9190    -1.4125     6.0283 H       
  38 H38            3.2837     6.1780    -0.4322 H       
  39 H39            4.7091     5.1261    -0.6059 H       
  40 H40            1.0698     4.4425     1.2799 H       
@<TRIPOS>BOND
   1    1    7 am
   2    1   13 1
   3    1   25 1
   4    2    4 1
   5    2   10 2
   6    2   26 1
   7    3    8 1
   8    3   10 1
   9    4    8 2
  10    4   27 1
  11    5   13 2
  12    5   22 1
  13    6    7 2
  14    7   14 1
  15    7   21 2
  16    8   23 1
  17    9   22 2
  18   10   11 1
  19   11   28 1
  20   11   29 1
  21   11   30 1
  22   12   22 1
  23   12   23 1
  24   12   24 2
  25   13   24 1
  26   14   15 ar
  27   14   19 ar
  28   15   16 ar
  29   15   31 1
  30   16   17 ar
  31   16   32 1
  32   17   18 ar
  33   17   20 1
  34   18   19 ar
  35   18   33 1
  36   19   34 1
  37   20   35 1
  38   20   36 1
  39   20   37 1
  40   23   38 1
  41   23   39 1
  42   24   40 1

#	End of record

