#	Name: ASD08178352
#	Creating user name:	WinNT
#	Creation time:	15. 06. 2019 21:18

#	Modifying user name:	WinNT
#	Modification time:	15. 06. 2019 21:18

#	Program:	/corina/corina34_cracker 3.40 0067  02.08.2006

@<TRIPOS>MOLECULE
ASD08178352
  80   84    0    0    0
SMALL
NO_CHARGES


@<TRIPOS>ATOM
   1 N1             0.0347     0.8009    -0.3718 N.am    
   2 C2            -0.0297    -0.5912    -0.3228 C.ar    
   3 C3             1.1369    -1.3491    -0.4021 C.ar    
   4 N4            -1.1998    -1.1990    -0.1951 N.ar    
   5 N5            -1.3020    -2.4775    -0.1456 N.ar    
   6 C6            -0.2515    -3.2711    -0.2184 C.ar    
   7 C7             1.0192    -2.7296    -0.3483 C.ar    
   8 C8            -0.4306    -4.7660    -0.1545 C.3     
   9 C9            -1.1996    -5.1337     1.1161 C.3     
  10 C10           -1.3814    -6.6514     1.1810 C.3     
  11 C11           -2.1504    -7.0191     2.4516 C.3     
  12 C12           -2.3296    -8.5140     2.5155 C.2     
  13 N13           -1.5180    -9.3577     3.0697 N.2     
  14 N14           -1.8469   -10.5755     3.0178 N.2     
  15 C15           -2.9601   -10.8744     2.4189 C.2     
  16 S16           -3.6859    -9.4285     1.8556 S.3     
  17 N17           -3.4794   -12.1554     2.2655 N.am    
  18 C18           -2.8130   -13.2166     2.7615 C.2     
  19 C19           -3.3757   -14.6047     2.5953 C.3     
  20 O20           -1.7603   -13.0545     3.3417 O.2     
  21 C21           -2.4457   -15.6036     3.2342 C.ar    
  22 C22           -2.6082   -15.9465     4.5623 C.ar    
  23 C23           -1.7519   -16.8667     5.1498 C.ar    
  24 C24           -0.7344   -17.4400     4.4013 C.ar    
  25 C25           -0.5760   -17.0936     3.0732 C.ar    
  26 C26           -1.4338   -16.1805     2.4887 C.ar    
  27 C27           -1.1001     1.5273    -0.4046 C.2     
  28 C28           -1.0344     3.0312    -0.3347 C.3     
  29 O29           -2.1742     0.9706    -0.4903 O.2     
  30 C30           -2.4296     3.5981    -0.3894 C.ar    
  31 C31           -3.1376     3.8056     0.7796 C.ar    
  32 C32           -2.9993     3.9159    -1.6081 C.ar    
  33 C33           -4.2791     4.4359    -1.6583 C.ar    
  34 C34           -4.9895     4.6377    -0.4897 C.ar    
  35 C35           -4.4175     4.3256     0.7295 C.ar    
  36 O36           -1.9094   -17.2054     6.4564 O.3     
  37 C37           -1.0498   -18.2245     6.9707 C.3     
  38 C38           -0.9353   -18.0785     8.4906 C.3     
  39 C39           -1.6336   -19.6010     6.6405 C.3     
  40 C40           -0.7411   -20.6868     7.2460 C.3     
  41 N41           -0.6643   -20.5040     8.7010 N.3     
  42 C42           -0.0631   -19.2085     9.0424 C.3     
  43 C43            0.0707   -21.6082     9.3323 C.3     
  44 H44            0.8962     1.2466    -0.3783 H       
  45 H45            2.1026    -0.8760    -0.5028 H       
  46 H46            1.8905    -3.3647    -0.4096 H       
  47 H47           -0.9895    -5.1026    -1.0277 H       
  48 H48            0.5466    -5.2487    -0.1403 H       
  49 H49           -0.6407    -4.7970     1.9893 H       
  50 H50           -2.1768    -4.6509     1.1019 H       
  51 H51           -1.9403    -6.9881     0.3078 H       
  52 H52           -0.4043    -7.1342     1.1952 H       
  53 H53           -1.5916    -6.6824     3.3247 H       
  54 H54           -3.1276    -6.5363     2.4373 H       
  55 H55           -4.3213   -12.2850     1.8015 H       
  56 H56           -4.3532   -14.6602     3.0744 H       
  57 H57           -3.4779   -14.8306     1.5339 H       
  58 H58           -3.4010   -15.4985     5.1430 H       
  59 H59           -0.0663   -18.1562     4.8565 H       
  60 H60            0.2160   -17.5397     2.4900 H       
  61 H61           -1.3084   -15.9111     1.4504 H       
  62 H62           -0.5566     3.3311     0.5980 H       
  63 H63           -0.4554     3.4091    -1.1774 H       
  64 H64           -2.6910     3.5611     1.7321 H       
  65 H65           -2.4443     3.7582    -2.5211 H       
  66 H66           -4.7239     4.6848    -2.6104 H       
  67 H67           -5.9892     5.0443    -0.5288 H       
  68 H68           -4.9724     4.4832     1.6425 H       
  69 H69           -0.0618   -18.1293     6.5202 H       
  70 H70           -0.4807   -17.1174     8.7306 H       
  71 H71           -1.9281   -18.1338     8.9373 H       
  72 H72           -2.6373   -19.6803     7.0581 H       
  73 H73           -1.6778   -19.7277     5.5588 H       
  74 H74           -1.1618   -21.6678     7.0250 H       
  75 H75            0.2587   -20.6157     6.8178 H       
  76 H76            0.9335   -19.1443     8.6058 H       
  77 H77            0.0087   -19.1157    10.1261 H       
  78 H78            1.0834   -21.6468     8.9310 H       
  79 H79            0.1127   -21.4477    10.4096 H       
  80 H80           -0.4386   -22.5492     9.1247 H       
@<TRIPOS>BOND
   1    1    2 1
   2    1   27 am
   3    1   44 1
   4    2    3 ar
   5    2    4 ar
   6    3    7 ar
   7    3   45 1
   8    4    5 ar
   9    5    6 ar
  10    6    7 ar
  11    6    8 1
  12    7   46 1
  13    8    9 1
  14    8   47 1
  15    8   48 1
  16    9   10 1
  17    9   49 1
  18    9   50 1
  19   10   11 1
  20   10   51 1
  21   10   52 1
  22   11   12 1
  23   11   53 1
  24   11   54 1
  25   12   13 2
  26   12   16 1
  27   13   14 1
  28   14   15 2
  29   15   16 1
  30   15   17 1
  31   17   18 am
  32   17   55 1
  33   18   19 1
  34   18   20 2
  35   19   21 1
  36   19   56 1
  37   19   57 1
  38   21   22 ar
  39   21   26 ar
  40   22   23 ar
  41   22   58 1
  42   23   24 ar
  43   23   36 1
  44   24   25 ar
  45   24   59 1
  46   25   26 ar
  47   25   60 1
  48   26   61 1
  49   27   28 1
  50   27   29 2
  51   28   30 1
  52   28   62 1
  53   28   63 1
  54   30   31 ar
  55   30   32 ar
  56   31   35 ar
  57   31   64 1
  58   32   33 ar
  59   32   65 1
  60   33   34 ar
  61   33   66 1
  62   34   35 ar
  63   34   67 1
  64   35   68 1
  65   36   37 1
  66   37   38 1
  67   37   39 1
  68   37   69 1
  69   38   42 1
  70   38   70 1
  71   38   71 1
  72   39   40 1
  73   39   72 1
  74   39   73 1
  75   40   41 1
  76   40   74 1
  77   40   75 1
  78   41   42 1
  79   41   43 1
  80   42   76 1
  81   42   77 1
  82   43   78 1
  83   43   79 1
  84   43   80 1

#	End of record

