#	Name: ASD08150009
#	Creating user name:	WinNT
#	Creation time:	15. 06. 2019 21:15

#	Modifying user name:	WinNT
#	Modification time:	15. 06. 2019 21:15

#	Program:	/corina/corina34_cracker 3.40 0067  02.08.2006

@<TRIPOS>MOLECULE
ASD08150009
  45   49    0    0    0
SMALL
NO_CHARGES


@<TRIPOS>ATOM
   1 N1            -0.0157     1.2952    -0.0517 N.2     
   2 C2             0.0018    -0.0026    -0.0878 C.2     
   3 N3             1.1483    -0.7345    -0.1047 N.am    
   4 C4             2.3558    -0.1234    -0.0845 C.2     
   5 C5             2.3701     1.3460    -0.0441 C.ar    
   6 C6             3.5601     2.0708    -0.0203 C.ar    
   7 C7             3.5159     3.4471     0.0178 C.ar    
   8 C8             2.2979     4.1146     0.0328 C.ar    
   9 C9             1.1111     3.4174     0.0098 C.ar    
  10 C10            1.1296     2.0215    -0.0285 C.ar    
  11 O11            3.3898    -0.7657    -0.0989 O.2     
  12 C12           -1.3149    -0.7353    -0.1116 C.3     
  13 S13           -2.6721     0.4618    -0.0818 S.3     
  14 N14           -5.9169     1.0956    -0.0727 N.2     
  15 C15           -7.2142     0.9914    -0.0789 C.2     
  16 N16           -7.5755    -0.3226    -0.1158 N.pl3   
  17 C17           -6.4224    -1.0657    -0.1332 C.ar    
  18 N18           -6.1436    -2.3649    -0.1684 N.ar    
  19 C19           -4.8954    -2.7836    -0.1770 C.ar    
  20 N20           -3.8691    -1.9535    -0.1522 N.ar    
  21 C21           -4.0496    -0.6364    -0.1160 C.ar    
  22 C22           -5.3651    -0.1409    -0.1051 C.ar    
  23 C23            4.8858     1.3542    -0.0358 C.3     
  24 C24            1.0786    -2.1336    -0.1430 C.ar    
  25 C25            1.0471    -2.7961    -1.3638 C.ar    
  26 C26            0.9782    -4.1763    -1.3977 C.ar    
  27 C27            0.9408    -4.8975    -0.2185 C.ar    
  28 C28            0.9720    -4.2415     0.9983 C.ar    
  29 C29            1.0466    -2.8618     1.0398 C.ar    
  30 Cl30           1.0929    -2.0396     2.5681 Cl      
  31 Cl31           1.0935    -1.8916    -2.8448 Cl      
  32 H32            4.4362     4.0120     0.0367 H       
  33 H33            2.2818     5.1940     0.0631 H       
  34 H34            0.1702     3.9474     0.0221 H       
  35 H35           -1.3801    -1.3360    -1.0188 H       
  36 H36           -1.3847    -1.3855     0.7604 H       
  37 H37           -7.9029     1.8231    -0.0580 H       
  38 H38           -8.4816    -0.6686    -0.1277 H       
  39 H39           -4.7038    -3.8461    -0.2055 H       
  40 H40            5.1536     1.1078    -1.0632 H       
  41 H41            5.6522     1.9985     0.3949 H       
  42 H42            4.8103     0.4379     0.5497 H       
  43 H43            0.9533    -4.6919    -2.3463 H       
  44 H44            0.8867    -5.9757    -0.2480 H       
  45 H45            0.9422    -4.8079     1.9173 H       
@<TRIPOS>BOND
   1    1    2 2
   2    1   10 1
   3    2    3 1
   4    2   12 1
   5    3    4 am
   6    3   24 1
   7    4    5 1
   8    4   11 2
   9    5    6 ar
  10    5   10 ar
  11    6    7 ar
  12    6   23 1
  13    7    8 ar
  14    7   32 1
  15    8    9 ar
  16    8   33 1
  17    9   10 ar
  18    9   34 1
  19   12   13 1
  20   12   35 1
  21   12   36 1
  22   13   21 1
  23   14   15 2
  24   14   22 1
  25   15   16 1
  26   15   37 1
  27   16   17 1
  28   16   38 1
  29   17   18 ar
  30   17   22 ar
  31   18   19 ar
  32   19   20 ar
  33   19   39 1
  34   20   21 ar
  35   21   22 ar
  36   23   40 1
  37   23   41 1
  38   23   42 1
  39   24   25 ar
  40   24   29 ar
  41   25   26 ar
  42   25   31 1
  43   26   27 ar
  44   26   43 1
  45   27   28 ar
  46   27   44 1
  47   28   29 ar
  48   28   45 1
  49   29   30 1

#	End of record

