#	Name: ASD01912525
#	Creating user name:	WinNT
#	Creation time:	15. 06. 2019 19:59

#	Modifying user name:	WinNT
#	Modification time:	15. 06. 2019 19:59

#	Program:	/corina/corina34_cracker 3.40 0067  02.08.2006

@<TRIPOS>MOLECULE
ASD01912525
  61   64    0    0    0
SMALL
NO_CHARGES


@<TRIPOS>ATOM
   1 C1             0.7477     0.9488    -0.1087 C.ar    
   2 C2             0.5641    -0.4188    -0.1275 C.ar    
   3 C3            -0.7197    -0.9488    -0.0187 C.ar    
   4 C4            -1.8133    -0.0947     0.1087 C.ar    
   5 C5            -1.6208     1.2713     0.1266 C.ar    
   6 C6            -0.3417     1.7941     0.0234 C.ar    
   7 C7            -0.9220    -2.4190    -0.0390 C.2     
   8 N8             0.0220    -3.3291    -0.1535 N.2     
   9 C9            -2.1575    -3.0870     0.0671 C.2     
  10 C10           -1.9168    -4.4149     0.0061 C.2     
  11 N11           -0.5849    -4.5913    -0.1296 N.pl3   
  12 C12           -2.9522    -5.5073     0.0808 C.3     
  13 C13            0.1055    -5.8792    -0.2333 C.3     
  14 C14            0.1029    -6.3364    -1.6693 C.2     
  15 N15            0.5939    -7.5496    -1.9911 N.am    
  16 O16           -0.3410    -5.6126    -2.5353 O.2     
  17 C17            0.6009    -8.0152    -3.3862 C.3     
  18 C18            1.1425    -8.4404    -0.9574 C.3     
  19 C19            2.5332    -8.9048    -1.4031 C.3     
  20 N20            2.4423    -9.4935    -2.7459 N.3     
  21 C21            2.0140    -8.4973    -3.7314 C.3     
  22 C22            3.6456   -10.0708    -3.1174 C.ar    
  23 N23            3.7445   -10.6514    -4.3038 N.ar    
  24 N24            4.6704   -10.0239    -2.2796 N.ar    
  25 C25            5.8337   -10.5650    -2.6024 C.ar    
  26 C26            5.9716   -11.1867    -3.8355 C.ar    
  27 C27            4.8786   -11.2122    -4.6904 C.ar    
  28 C28           -3.2370    -5.8408     1.5466 C.3     
  29 F29           -0.1576     3.1324     0.0418 F       
  30 C30           -3.9034    -4.6408     2.2225 C.3     
  31 C31           -4.1694    -7.0515     1.6223 C.3     
  32 C32            2.1359     1.5233    -0.2258 C.3     
  33 F33            7.1452   -11.7493    -4.1980 F       
  34 H34            1.4144    -1.0773    -0.2268 H       
  35 H35           -2.8103    -0.5015     0.1929 H       
  36 H36           -2.4679     1.9340     0.2249 H       
  37 H37           -3.1252    -2.6205     0.1781 H       
  38 H38           -3.8706    -5.1709    -0.4004 H       
  39 H39           -2.5798    -6.3962    -0.4283 H       
  40 H40            1.1338    -5.7690     0.1111 H       
  41 H41           -0.4072    -6.6170     0.3838 H       
  42 H42           -0.1049    -8.8379    -3.5012 H       
  43 H43            0.3222    -7.1948    -4.0475 H       
  44 H44            1.2217    -7.9009    -0.0136 H       
  45 H45            0.4897    -9.3046    -0.8347 H       
  46 H46            3.2118    -8.0521    -1.4250 H       
  47 H47            2.9089    -9.6514    -0.7034 H       
  48 H48            2.0079    -8.9470    -4.7243 H       
  49 H49            2.7032    -7.6530    -3.7183 H       
  50 H50            6.6657   -10.5232    -1.9151 H       
  51 H51            4.9517   -11.6878    -5.6573 H       
  52 H52           -2.3009    -6.0707     2.0554 H       
  53 H53           -4.0377    -4.8499     3.2837 H       
  54 H54           -3.2727    -3.7598     2.1027 H       
  55 H55           -4.8745    -4.4577     1.7624 H       
  56 H56           -3.6946    -7.9064     1.1408 H       
  57 H57           -4.3723    -7.2890     2.6666 H       
  58 H58           -5.1055    -6.8215     1.1135 H       
  59 H59            2.3732     1.6890    -1.2767 H       
  60 H60            2.1836     2.4707     0.3112 H       
  61 H61            2.8552     0.8258     0.2035 H       
@<TRIPOS>BOND
   1    1    2 ar
   2    1   32 1
   3    1    6 ar
   4    2    3 ar
   5    2   34 1
   6    3    4 ar
   7    3    7 1
   8    4    5 ar
   9    4   35 1
  10    5    6 ar
  11    5   36 1
  12    6   29 1
  13    7    8 2
  14    7    9 1
  15    8   11 1
  16    9   10 2
  17    9   37 1
  18   10   11 1
  19   10   12 1
  20   11   13 1
  21   12   28 1
  22   12   38 1
  23   12   39 1
  24   13   14 1
  25   13   40 1
  26   13   41 1
  27   14   15 am
  28   14   16 2
  29   15   17 1
  30   15   18 1
  31   17   21 1
  32   17   42 1
  33   17   43 1
  34   18   19 1
  35   18   44 1
  36   18   45 1
  37   19   20 1
  38   19   46 1
  39   19   47 1
  40   20   21 1
  41   20   22 1
  42   21   48 1
  43   21   49 1
  44   22   23 ar
  45   22   24 ar
  46   23   27 ar
  47   24   25 ar
  48   25   26 ar
  49   25   50 1
  50   26   27 ar
  51   26   33 1
  52   27   51 1
  53   28   30 1
  54   28   31 1
  55   28   52 1
  56   30   53 1
  57   30   54 1
  58   30   55 1
  59   31   56 1
  60   31   57 1
  61   31   58 1
  62   32   59 1
  63   32   60 1
  64   32   61 1

#	End of record

