#	Name: ASD01001029
#	Creating user name:	WinNT
#	Creation time:	15. 06. 2019 18:54

#	Modifying user name:	WinNT
#	Modification time:	15. 06. 2019 18:54

#	Program:	/corina/corina34_cracker 3.40 0067  02.08.2006

@<TRIPOS>MOLECULE
ASD01001029
  48   50    0    0    0
SMALL
NO_CHARGES


@<TRIPOS>ATOM
   1 C1            -0.0071     1.3353    -0.0563 C.ar    
   2 C2             0.0280    -0.0465    -0.0710 C.ar    
   3 C3             1.1722     2.0564    -0.0403 C.ar    
   4 C4             1.2422    -0.7072    -0.0696 C.ar    
   5 C5             2.3864     1.3957    -0.0389 C.ar    
   6 C6             2.4214     0.0139    -0.0540 C.ar    
   7 C7             3.6720     2.1819    -0.0223 C.3     
   8 C8             4.7072     1.4352     0.7788 C.ar    
   9 C9             4.1662     2.3663    -1.4340 C.ar    
  10 N10            3.4343     3.4964     0.5889 N.3     
  11 C11            6.0342     1.4657     0.3928 C.ar    
  12 C12            4.3306     0.7244     1.9030 C.ar    
  13 C13            3.8813     1.4152    -2.3958 C.ar    
  14 C14            4.8997     3.4893    -1.7684 C.ar    
  15 C15            2.9505     3.3556     1.9688 C.3     
  16 C16            6.9846     0.7854     1.1309 C.ar    
  17 C17            5.2801     0.0394     2.6379 C.ar    
  18 C18            4.3299     1.5871    -3.6920 C.ar    
  19 C19            5.3531     3.6584    -3.0632 C.ar    
  20 C20            2.7148     4.7424     2.5706 C.3     
  21 C21            6.6080     0.0750     2.2553 C.ar    
  22 C22            5.0629     2.7103    -4.0265 C.ar    
  23 N23            1.8038     5.5034     1.7052 N.3     
  24 C24            2.1034     4.5983     3.9404 C.2     
  25 O25            0.9130     4.7428     4.0888 O.2     
  26 O26            2.8811     4.3094     4.9955 O.3     
  27 H27           -0.9557     1.8515    -0.0620 H       
  28 H28           -0.8934    -0.6100    -0.0832 H       
  29 H29            1.1448     3.1360    -0.0291 H       
  30 H30            1.2695    -1.7868    -0.0803 H       
  31 H31            3.3701    -0.5023    -0.0522 H       
  32 H32            4.2655     4.0672     0.5536 H       
  33 H33            6.3283     2.0208    -0.4857 H       
  34 H34            3.2946     0.7045     2.2074 H       
  35 H35            3.3086     0.5376    -2.1345 H       
  36 H36            5.1182     4.2347    -1.0180 H       
  37 H37            2.0156     2.7951     1.9706 H       
  38 H38            3.6942     2.8237     2.5620 H       
  39 H39            8.0212     0.8087     0.8289 H       
  40 H40            4.9860    -0.5157     3.5164 H       
  41 H41            4.1079     0.8437    -4.4433 H       
  42 H42            5.9258     4.5360    -3.3246 H       
  43 H43            3.6653     5.2700     2.6507 H       
  44 H44            7.3505    -0.4568     2.8318 H       
  45 H45            5.4172     2.8424    -5.0382 H       
  46 H46            0.9149     5.0346     1.6150 H       
  47 H47            1.6829     6.4451     2.0468 H       
  48 H48            2.4435     4.2268     5.8539 H       
@<TRIPOS>BOND
   1    1    2 ar
   2    1    3 ar
   3    1   27 1
   4    2    4 ar
   5    2   28 1
   6    3    5 ar
   7    3   29 1
   8    4    6 ar
   9    4   30 1
  10    5    6 ar
  11    5    7 1
  12    6   31 1
  13    7   10 1
  14    7    8 1
  15    7    9 1
  16    8   12 ar
  17    8   11 ar
  18    9   14 ar
  19    9   13 ar
  20   10   15 1
  21   10   32 1
  22   11   16 ar
  23   11   33 1
  24   12   17 ar
  25   12   34 1
  26   13   18 ar
  27   13   35 1
  28   14   19 ar
  29   14   36 1
  30   15   20 1
  31   15   37 1
  32   15   38 1
  33   16   21 ar
  34   16   39 1
  35   17   21 ar
  36   17   40 1
  37   18   22 ar
  38   18   41 1
  39   19   22 ar
  40   19   42 1
  41   20   23 1
  42   20   24 1
  43   20   43 1
  44   21   44 1
  45   22   45 1
  46   23   46 1
  47   23   47 1
  48   24   25 2
  49   24   26 1
  50   26   48 1

#	End of record

