#	Name: ASD01209059
#	Creating user name:	WinNT
#	Creation time:	15. 06. 2019 19:10

#	Modifying user name:	WinNT
#	Modification time:	15. 06. 2019 19:10

#	Program:	/corina/corina34_cracker 3.40 0067  02.08.2006

@<TRIPOS>MOLECULE
ASD01209059
  53   55    0    0    0
SMALL
NO_CHARGES


@<TRIPOS>ATOM
   1 C1            -0.1098     1.5452    -0.6127 C.ar    
   2 C2            -0.1547     0.1640    -0.5770 C.ar    
   3 C3             1.0046    -0.5602    -0.3711 C.ar    
   4 C4             2.2090     0.0968    -0.2013 C.ar    
   5 C5             2.2541     1.4779    -0.2378 C.ar    
   6 C6             1.0945     2.2021    -0.4423 C.ar    
   7 S7            -1.6898    -0.6734    -0.7935 S.o2    
   8 O8            -1.5137    -1.9092    -0.1145 O.2     
   9 O9            -2.6652     0.2662    -0.3635 O.2     
  10 C10           -1.8103    -0.9422    -2.5834 C.3     
  11 C11            3.5669     2.1942    -0.0522 C.3     
  12 C12            3.4813     3.0960     1.1521 C.2     
  13 C13            4.7279     3.4404     1.9257 C.3     
  14 O14            2.4137     3.5426     1.4973 O.2     
  15 C15            4.5479     4.8001     2.6038 C.3     
  16 C16            4.9804     2.3697     2.9890 C.3     
  17 C17            3.8713     3.0317    -1.2959 C.3     
  18 C18            4.0763     2.1059    -2.4966 C.3     
  19 C19           -3.1055    -1.5547    -3.1202 C.3     
  20 C20           -2.8011    -0.0751    -3.3628 C.3     
  21 C21            4.2385     2.9443    -3.7683 C.3     
  22 C22            4.5215     2.0141    -4.9508 C.3     
  23 O23            5.6918     1.2410    -4.6776 O.3     
  24 C24            5.5810     0.4015    -3.5265 C.3     
  25 C25            5.3406     1.2669    -2.2867 C.3     
  26 H26           -1.0148     2.1108    -0.7780 H       
  27 H27            0.9694    -1.6392    -0.3426 H       
  28 H28            3.1146    -0.4690    -0.0397 H       
  29 H29            1.1298     3.2812    -0.4712 H       
  30 H30           -0.8801    -1.2156    -3.0814 H       
  31 H31            4.3617     1.4632     0.0970 H       
  32 H32            5.5778     3.4837     1.2447 H       
  33 H33            3.6980     4.7568     3.2849 H       
  34 H34            5.4496     5.0492     3.1633 H       
  35 H35            4.3680     5.5629     1.8463 H       
  36 H36            5.1086     1.4010     2.5059 H       
  37 H37            5.8821     2.6188     3.5486 H       
  38 H38            4.1305     2.3264     3.6701 H       
  39 H39            3.0368     3.7044    -1.4941 H       
  40 H40            4.7765     3.6153    -1.1283 H       
  41 H41            3.2137     1.4479    -2.6012 H       
  42 H42           -3.0275    -2.2309    -3.9716 H       
  43 H43           -3.8852    -1.7962    -2.3978 H       
  44 H44           -3.3805     0.6568    -2.8001 H       
  45 H45           -2.5227     0.2222    -4.3739 H       
  46 H46            3.3216     3.5030    -3.9556 H       
  47 H47            5.0699     3.6381    -3.6436 H       
  48 H48            3.6721     1.3474    -5.1002 H       
  49 H49            4.6802     2.6082    -5.8508 H       
  50 H50            4.7455    -0.2863    -3.6572 H       
  51 H51            6.5029    -0.1661    -3.4003 H       
  52 H52            6.1942     1.9268    -2.1321 H       
  53 H53            5.2118     0.6260    -1.4145 H       
@<TRIPOS>BOND
   1    1    2 ar
   2    1    6 ar
   3    1   26 1
   4    2    3 ar
   5    2    7 1
   6    3    4 ar
   7    3   27 1
   8    4    5 ar
   9    4   28 1
  10    5    6 ar
  11    5   11 1
  12    6   29 1
  13    7    8 2
  14    7    9 2
  15    7   10 1
  16   10   19 1
  17   10   20 1
  18   10   30 1
  19   11   12 1
  20   11   17 1
  21   11   31 1
  22   12   13 1
  23   12   14 2
  24   13   15 1
  25   13   16 1
  26   13   32 1
  27   15   33 1
  28   15   34 1
  29   15   35 1
  30   16   36 1
  31   16   37 1
  32   16   38 1
  33   17   18 1
  34   17   39 1
  35   17   40 1
  36   18   21 1
  37   18   25 1
  38   18   41 1
  39   19   20 1
  40   19   42 1
  41   19   43 1
  42   20   44 1
  43   20   45 1
  44   21   22 1
  45   21   46 1
  46   21   47 1
  47   22   23 1
  48   22   48 1
  49   22   49 1
  50   23   24 1
  51   24   25 1
  52   24   50 1
  53   24   51 1
  54   25   52 1
  55   25   53 1

#	End of record

