#	Name: ASD02190016
#	Creating user name:	WinNT
#	Creation time:	15. 06. 2019 20:18

#	Modifying user name:	WinNT
#	Modification time:	15. 06. 2019 20:18

#	Program:	/corina/corina34_cracker 3.40 0067  02.08.2006

@<TRIPOS>MOLECULE
ASD02190016
  48   50    0    0    0
SMALL
NO_CHARGES


@<TRIPOS>ATOM
   1 C1            -0.0168     1.3327    -0.1027 C.ar    
   2 N2             0.0047     0.0100    -0.1382 N.ar    
   3 C3            -1.1247    -0.6923    -0.1138 C.ar    
   4 N4            -2.3125    -0.0972    -0.0536 N.ar    
   5 C5            -2.4031     1.2273    -0.0155 C.ar    
   6 C6            -1.2318     1.9890    -0.0341 C.ar    
   7 N7            -3.6427     1.8454     0.0473 N.pl3   
   8 C8            -4.8099     1.0825    -0.0511 C.ar    
   9 C9            -5.9526     1.4663     0.6392 C.ar    
  10 C10           -7.1041     0.7104     0.5399 C.ar    
  11 C11           -7.1204    -0.4275    -0.2458 C.ar    
  12 C12           -5.9844    -0.8127    -0.9340 C.ar    
  13 C13           -4.8314    -0.0578    -0.8439 C.ar    
  14 C14           -8.3787    -1.2500    -0.3518 C.3     
  15 C15           -1.0584    -2.1621    -0.1549 C.2     
  16 C16            0.0783    -2.8888    -0.2171 C.2     
  17 C17           -0.1080    -4.2508    -0.2458 C.2     
  18 C18           -1.3956    -4.6484    -0.2074 C.2     
  19 S19           -2.4469    -3.2411    -0.1229 S.3     
  20 C20           -9.2115    -0.7478    -1.5030 C.2     
  21 O21           -8.8231     0.1825    -2.1690 O.2     
  22 O22          -10.3848    -1.3340    -1.7885 O.3     
  23 C23            1.2705     2.1157    -0.1305 C.3     
  24 C24           -1.2643     3.9649     1.4639 C.3     
  25 C25           -1.2921     3.4942     0.0083 C.3     
  26 S26           -1.9419    -6.3234    -0.2315 S.3     
  27 C27           -3.7475    -6.1649    -0.1585 C.3     
  28 H28           -3.6999     2.8072     0.1596 H       
  29 H29           -5.9404     2.3547     1.2533 H       
  30 H30           -7.9927     1.0080     1.0766 H       
  31 H31           -6.0004    -1.7021    -1.5464 H       
  32 H32           -3.9447    -0.3590    -1.3819 H       
  33 H33           -8.1169    -2.2944    -0.5212 H       
  34 H34           -8.9483    -1.1636     0.5735 H       
  35 H35            1.0581    -2.4351    -0.2427 H       
  36 H36            0.7145    -4.9489    -0.2956 H       
  37 H37          -10.8835    -0.9769    -2.5361 H       
  38 H38            1.5423     2.3315    -1.1638 H       
  39 H39            1.1386     3.0511     0.4134 H       
  40 H40            2.0616     1.5310     0.3389 H       
  41 H41           -0.3438     3.6246     1.9383 H       
  42 H42           -1.3078     5.0536     1.4946 H       
  43 H43           -2.1214     3.5518     1.9957 H       
  44 H44           -0.4349     3.9073    -0.5235 H       
  45 H45           -2.2125     3.8346    -0.4661 H       
  46 H46           -4.1999    -7.1566    -0.1678 H       
  47 H47           -4.0298    -5.6453     0.7572 H       
  48 H48           -4.0976    -5.5977    -1.0209 H       
@<TRIPOS>BOND
   1    1    2 ar
   2    1   23 1
   3    1    6 ar
   4    2    3 ar
   5    3    4 ar
   6    3   15 1
   7    4    5 ar
   8    5    6 ar
   9    5    7 1
  10    6   25 1
  11    7    8 1
  12    7   28 1
  13    8    9 ar
  14    8   13 ar
  15    9   10 ar
  16    9   29 1
  17   10   11 ar
  18   10   30 1
  19   11   12 ar
  20   11   14 1
  21   12   13 ar
  22   12   31 1
  23   13   32 1
  24   14   20 1
  25   14   33 1
  26   14   34 1
  27   15   16 2
  28   15   19 1
  29   16   17 1
  30   16   35 1
  31   17   18 2
  32   17   36 1
  33   18   19 1
  34   18   26 1
  35   20   21 2
  36   20   22 1
  37   22   37 1
  38   23   38 1
  39   23   39 1
  40   23   40 1
  41   24   25 1
  42   24   41 1
  43   24   42 1
  44   24   43 1
  45   25   44 1
  46   25   45 1
  47   26   27 1
  48   27   46 1
  49   27   47 1
  50   27   48 1

#	End of record

