#	Name: ASD03320087
#	Creating user name:	WinNT
#	Creation time:	15. 06. 2019 20:36

#	Modifying user name:	WinNT
#	Modification time:	15. 06. 2019 20:36

#	Program:	/corina/corina34_cracker 3.40 0067  02.08.2006

@<TRIPOS>MOLECULE
ASD03320087
  52   55    0    0    0
SMALL
NO_CHARGES


@<TRIPOS>ATOM
   1 C1            -0.0181     1.4708     0.0148 C.2     
   2 C2             0.0015    -0.0045     0.0117 C.ar    
   3 C3             1.2199    -0.6985     0.0012 C.ar    
   4 C4             1.1859    -2.0873    -0.0007 C.ar    
   5 C5            -0.0581    -2.7384     0.0078 C.ar    
   6 N6            -1.1859    -2.0441     0.0172 N.ar    
   7 C7            -1.1925    -0.7273     0.0251 C.ar    
   8 O8             1.0268     2.0927     0.0082 O.2     
   9 N9            -1.1942     2.1291     0.0193 N.am    
  10 C10           -1.2149     3.5248     0.1327 C.ar    
  11 C11           -2.1832     4.2618    -0.5363 C.ar    
  12 C12           -2.2030     5.6379    -0.4240 C.ar    
  13 C13           -1.2559     6.2842     0.3568 C.ar    
  14 C14           -0.2882     5.5486     1.0254 C.ar    
  15 C15           -0.2706     4.1720     0.9187 C.ar    
  16 O16           -1.2757     7.6393     0.4665 O.3     
  17 C17           -0.2708     8.2386     1.2869 C.3     
  18 F18            0.9944     7.9208     0.7815 F       
  19 F19           -0.4371     9.6276     1.2882 F       
  20 F20           -0.3860     7.7539     2.5942 F       
  21 N21            4.4399    -3.6061    -0.5426 N.pl3   
  22 N22            3.9643    -4.3670     0.5322 N.2     
  23 C23            2.7742    -3.9331     0.8536 C.2     
  24 C24            2.4466    -2.8717    -0.0122 C.2     
  25 C25            3.4981    -2.6951    -0.8632 C.2     
  26 C26            5.7386    -3.7674    -1.2010 C.3     
  27 N27           -0.1063    -4.1216     0.0059 N.3     
  28 C28           -1.5003    -4.6017     0.0159 C.3     
  29 C29           -1.6789    -5.5128    -1.2167 C.3     
  30 C30           -0.2265    -5.9521    -1.5400 C.3     
  31 C31            0.5733    -4.6738    -1.1853 C.3     
  32 O32           -2.4894    -6.6449    -0.8951 O.3     
  33 H33            2.1601    -0.1673    -0.0055 H       
  34 H34           -2.1346    -0.1994     0.0378 H       
  35 H35           -2.0262     1.6362    -0.0560 H       
  36 H36           -2.9205     3.7588    -1.1445 H       
  37 H37           -2.9559     6.2112    -0.9445 H       
  38 H38            0.4489     6.0524     1.6330 H       
  39 H39            0.4801     3.5991     1.4428 H       
  40 H40            2.1501    -4.3214     1.6449 H       
  41 H41            3.5644    -1.9593    -1.6510 H       
  42 H42            5.6435    -4.4766    -2.0232 H       
  43 H43            6.0716    -2.8045    -1.5885 H       
  44 H44            6.4670    -4.1410    -0.4813 H       
  45 H45           -1.6906    -5.1689     0.9270 H       
  46 H46           -2.1844    -3.7554    -0.0463 H       
  47 H47           -2.1071    -4.9550    -2.0495 H       
  48 H48            0.0771    -6.7895    -0.9117 H       
  49 H49           -0.1192    -6.1994    -2.5961 H       
  50 H50            0.5343    -3.9610    -2.0090 H       
  51 H51            1.6071    -4.9262    -0.9494 H       
  52 H52           -2.6324    -7.2495    -1.6361 H       
@<TRIPOS>BOND
   1    1    2 1
   2    1    8 2
   3    1    9 am
   4    2    3 ar
   5    2    7 ar
   6    3    4 ar
   7    3   33 1
   8    4    5 ar
   9    4   24 1
  10    5    6 ar
  11    5   27 1
  12    6    7 ar
  13    7   34 1
  14    9   10 1
  15    9   35 1
  16   10   11 ar
  17   10   15 ar
  18   11   12 ar
  19   11   36 1
  20   12   13 ar
  21   12   37 1
  22   13   14 ar
  23   13   16 1
  24   14   15 ar
  25   14   38 1
  26   15   39 1
  27   16   17 1
  28   17   18 1
  29   17   19 1
  30   17   20 1
  31   21   22 1
  32   21   25 1
  33   21   26 1
  34   22   23 2
  35   23   24 1
  36   23   40 1
  37   24   25 2
  38   25   41 1
  39   26   42 1
  40   26   43 1
  41   26   44 1
  42   27   28 1
  43   27   31 1
  44   28   29 1
  45   28   45 1
  46   28   46 1
  47   29   30 1
  48   29   32 1
  49   29   47 1
  50   30   31 1
  51   30   48 1
  52   30   49 1
  53   31   50 1
  54   31   51 1
  55   32   52 1

#	End of record

