#	Name: ASD02408091
#	Creating user name:	WinNT
#	Creation time:	15. 06. 2019 20:21

#	Modifying user name:	WinNT
#	Modification time:	15. 06. 2019 20:21

#	Program:	/corina/corina34_cracker 3.40 0067  02.08.2006

@<TRIPOS>MOLECULE
ASD02408091
  37   39    0    0    0
SMALL
NO_CHARGES


@<TRIPOS>ATOM
   1 C1            -0.0167     1.3779     0.0096 C.ar    
   2 C2             0.0021    -0.0041     0.0020 C.ar    
   3 C3             1.2780     2.1491     0.0014 C.3     
   4 C4             1.6598     2.5049     1.4152 C.2     
   5 N5             2.7937     3.2003     1.6280 N.am    
   6 N6             0.8779     2.1337     2.3923 N.2     
   7 C7             1.1662     2.4222     3.6678 C.2     
   8 C8             2.3367     3.1408     3.9621 C.2     
   9 C9             3.1658     3.5364     2.8811 C.2     
  10 N10            0.3263     2.0202     4.6772 N.pl3   
  11 C11           -0.8927     1.2715     4.3614 C.3     
  12 O12            4.1930     4.1617     3.0798 O.2     
  13 C13           -1.1857    -0.7116     0.0096 C.ar    
  14 C14           -2.3919    -0.0369     0.0253 C.ar    
  15 C15           -2.4106     1.3455     0.0338 C.ar    
  16 C16           -1.2233     2.0528     0.0190 C.ar    
  17 C17           -1.2437     3.5597     0.0283 C.3     
  18 C18           -1.4677     0.3653     5.4518 C.3     
  19 C19           -2.1767     1.6721     5.0906 C.3     
  20 C20            2.6802     3.4689     5.3130 C.1     
  21 N21            2.9528     3.7292     6.3847 N.1     
  22 H22            0.9446    -0.5313    -0.0102 H       
  23 H23            2.0626     1.5372    -0.4437 H       
  24 H24            1.1538     3.0614    -0.5820 H       
  25 H25            3.3470     3.4612     0.8753 H       
  26 H26            0.5401     2.2319     5.5994 H       
  27 H27           -0.9840     0.9361     3.3283 H       
  28 H28           -1.1711    -1.7915     0.0029 H       
  29 H29           -3.3198    -0.5895     0.0305 H       
  30 H30           -3.3531     1.8727     0.0456 H       
  31 H31           -1.2322     3.9169     1.0580 H       
  32 H32           -0.3670     3.9382    -0.4974 H       
  33 H33           -2.1466     3.9139    -0.4691 H       
  34 H34           -1.9377    -0.5661     5.1361 H       
  35 H35           -0.9390     0.3261     6.4042 H       
  36 H36           -2.1145     2.4927     5.8054 H       
  37 H37           -3.1131     1.6004     4.5373 H       
@<TRIPOS>BOND
   1    1    2 ar
   2    1    3 1
   3    1   16 ar
   4    2   13 ar
   5    2   22 1
   6    3    4 1
   7    3   23 1
   8    3   24 1
   9    4    5 1
  10    4    6 2
  11    5    9 am
  12    5   25 1
  13    6    7 1
  14    7    8 2
  15    7   10 1
  16    8    9 1
  17    8   20 1
  18    9   12 2
  19   10   11 1
  20   10   26 1
  21   11   18 1
  22   11   19 1
  23   11   27 1
  24   13   14 ar
  25   13   28 1
  26   14   15 ar
  27   14   29 1
  28   15   16 ar
  29   15   30 1
  30   16   17 1
  31   17   31 1
  32   17   32 1
  33   17   33 1
  34   18   19 1
  35   18   34 1
  36   18   35 1
  37   19   36 1
  38   19   37 1
  39   20   21 3

#	End of record

