#	Name: ASD03091844
#	Creating user name:	WinNT
#	Creation time:	15. 06. 2019 20:31

#	Modifying user name:	WinNT
#	Modification time:	15. 06. 2019 20:31

#	Program:	/corina/corina34_cracker 3.40 0067  02.08.2006

@<TRIPOS>MOLECULE
ASD03091844
  49   53    0    0    0
SMALL
NO_CHARGES


@<TRIPOS>ATOM
   1 C1            -0.0188     1.5329     0.0105 C.3     
   2 C2             0.0021    -0.0041     0.0020 C.3     
   3 C3             0.9954    -0.4922     1.0603 C.3     
   4 C4             0.6526     0.1298     2.4170 C.3     
   5 C5             0.5877     1.6576     2.2618 C.3     
   6 C6             1.8474     2.1081     1.4868 C.3     
   7 C7             1.4466     2.0257    -0.0009 C.3     
   8 N8            -0.5375     1.9593     1.3374 N.3     
   9 N9             0.9221    -1.9519     1.1610 N.pl3   
  10 C10           -0.8531     3.3940     1.3429 C.3     
  11 C11            3.1910    -2.0210     1.9974 C.ar    
  12 C12            2.0224    -2.6762     1.6269 C.ar    
  13 C13            1.9625    -4.0620     1.7265 C.ar    
  14 C14            3.0884    -4.7401     2.1982 C.ar    
  15 C15            4.2207    -4.0075     2.5486 C.ar    
  16 N16            4.2346    -2.6947     2.4386 N.ar    
  17 N17            3.2946   -10.3216     2.7666 N.pl3   
  18 C18            4.5678   -10.4698     3.2454 C.2     
  19 C19            5.1583    -9.2695     3.3553 C.2     
  20 C20            4.1831    -8.2706     2.9103 C.ar    
  21 C21            4.2042    -6.8807     2.7951 C.ar    
  22 C22            3.0789    -6.2186     2.3250 C.ar    
  23 C23            1.9356    -6.9425     1.9708 C.ar    
  24 C24            1.9099    -8.3026     2.0816 C.ar    
  25 C25            3.0270    -8.9883     2.5508 C.ar    
  26 H26           -0.5970     1.9402    -0.8189 H       
  27 H27           -0.9932    -0.3839     0.2327 H       
  28 H28            0.3116    -0.3596    -0.9808 H       
  29 H29            2.0051    -0.1997     0.7721 H       
  30 H30           -0.3134    -0.2441     2.7564 H       
  31 H31            1.4225    -0.1310     3.1432 H       
  32 H32            0.4916     2.1641     3.2222 H       
  33 H33            2.1103     3.1320     1.7526 H       
  34 H34            2.6803     1.4359     1.6930 H       
  35 H35            2.0825     1.3130    -0.5261 H       
  36 H36            1.5125     3.0091    -0.4665 H       
  37 H37            0.1097    -2.4156     0.9041 H       
  38 H38           -1.6113     3.6021     0.5880 H       
  39 H39           -1.2304     3.6792     2.3250 H       
  40 H40            0.0481     3.9652     1.1200 H       
  41 H41            3.2463    -0.9453     1.9184 H       
  42 H42            1.0686    -4.5997     1.4467 H       
  43 H43            5.0969    -4.5217     2.9150 H       
  44 H44            2.6741   -11.0484     2.6000 H       
  45 H45            5.0292   -11.4131     3.4979 H       
  46 H46            6.1615    -9.0766     3.7057 H       
  47 H47            5.0883    -6.3247     3.0701 H       
  48 H48            1.0638    -6.4196     1.6061 H       
  49 H49            1.0203    -8.8486     1.8045 H       
@<TRIPOS>BOND
   1    1    2 1
   2    1    7 1
   3    1    8 1
   4    1   26 1
   5    2    3 1
   6    2   27 1
   7    2   28 1
   8    3    4 1
   9    3    9 1
  10    3   29 1
  11    4    5 1
  12    4   30 1
  13    4   31 1
  14    5    6 1
  15    5    8 1
  16    5   32 1
  17    6    7 1
  18    6   33 1
  19    6   34 1
  20    7   35 1
  21    7   36 1
  22    8   10 1
  23    9   12 1
  24    9   37 1
  25   10   38 1
  26   10   39 1
  27   10   40 1
  28   11   12 ar
  29   11   16 ar
  30   11   41 1
  31   12   13 ar
  32   13   14 ar
  33   13   42 1
  34   14   15 ar
  35   14   22 1
  36   15   16 ar
  37   15   43 1
  38   17   18 1
  39   17   25 1
  40   17   44 1
  41   18   19 2
  42   18   45 1
  43   19   20 1
  44   19   46 1
  45   20   21 ar
  46   20   25 ar
  47   21   22 ar
  48   21   47 1
  49   22   23 ar
  50   23   24 ar
  51   23   48 1
  52   24   25 ar
  53   24   49 1

#	End of record

