#	Name: ASD01410495
#	Creating user name:	WinNT
#	Creation time:	15. 06. 2019 19:17

#	Modifying user name:	WinNT
#	Modification time:	15. 06. 2019 19:17

#	Program:	/corina/corina34_cracker 3.40 0067  02.08.2006

@<TRIPOS>MOLECULE
ASD01410495
  77   80    0    0    0
SMALL
NO_CHARGES


@<TRIPOS>ATOM
   1 C1             6.3131     8.1261     1.3486 C.ar    
   2 C2             6.7424     7.6540     2.5811 C.ar    
   3 C3             7.0871     6.3231     2.7120 C.ar    
   4 N4             7.0129     5.5010     1.6830 N.ar    
   5 C5             6.6086     5.9134     0.4927 C.ar    
   6 C6             6.2461     7.2386     0.2885 C.ar    
   7 O7             6.5473     5.0336    -0.5382 O.3     
   8 C8             6.9914     3.7666    -0.3233 C.ar    
   9 C9             6.2470     2.8960     0.4639 C.ar    
  10 C10            6.6886     1.6078     0.6884 C.ar    
  11 C11            7.8817     1.1726     0.1287 C.ar    
  12 C12            8.6380     2.0466    -0.6670 C.ar    
  13 C13            8.1794     3.3466    -0.8933 C.ar    
  14 N14            8.3276    -0.1285     0.3567 N.am    
  15 C15            8.0001    -1.1134    -0.5030 C.2     
  16 C16            9.1522    -0.4251     1.5307 C.3     
  17 O17            8.3275    -2.2573    -0.2679 O.2     
  18 C18            7.2271    -0.7934    -1.7564 C.3     
  19 C19            7.5479    -1.8324    -2.8327 C.3     
  20 C20            6.7631    -1.5075    -4.1053 C.3     
  21 C21            5.2639    -1.5348    -3.8009 C.3     
  22 C22            4.9431    -0.4958    -2.7246 C.3     
  23 C23            5.7279    -0.8207    -1.4520 C.3     
  24 C24           10.4630    -1.0744     1.0824 C.3     
  25 C25            6.8317     8.5837     3.7637 C.3     
  26 C26            4.4791    -1.2099    -5.0734 C.3     
  27 N27            5.5564     8.5808     4.4847 N.pl3   
  28 C28            5.3982     9.3646     5.6144 C.ar    
  29 O29            7.2340    -0.7330     2.9682 O.3     
  30 C30            8.3981    -1.3835     2.4546 C.3     
  31 C31            6.4541    -1.5460     3.8473 C.3     
  32 N32            4.2382     9.3501     6.2544 N.ar    
  33 C33            4.0541    10.0874     7.3371 C.ar    
  34 C34            5.0923    10.8807     7.7995 C.ar    
  35 C35            6.2924    10.8721     7.1060 C.ar    
  36 N36            6.4122    10.1076     6.0332 N.ar    
  37 C37            9.9066     1.5938    -1.2653 C.2     
  38 O38           10.2496     0.4332    -1.1565 O.2     
  39 O39           10.6862     2.4670    -1.9330 O.3     
  40 C40            5.7861     7.7039    -1.0690 C.3     
  41 F41            5.4812     9.0683    -1.0157 F       
  42 F42            6.8037     7.4898    -2.0049 F       
  43 F43            4.6465     6.9858    -1.4467 F       
  44 H44            6.0334     9.1614     1.2207 H       
  45 H45            7.4221     5.9508     3.6689 H       
  46 H46            5.3182     3.2295     0.9025 H       
  47 H47            6.1046     0.9371     1.3013 H       
  48 H48            8.7559     4.0251    -1.5046 H       
  49 H49            9.3690     0.4997     2.0654 H       
  50 H50            7.5074     0.1977    -2.1131 H       
  51 H51            8.6159    -1.8130    -3.0496 H       
  52 H52            7.2676    -2.8235    -2.4760 H       
  53 H53            7.0434    -0.5164    -4.4620 H       
  54 H54            6.9917    -2.2477    -4.8721 H       
  55 H55            4.9836    -2.5259    -3.4442 H       
  56 H56            5.2235     0.4953    -3.0813 H       
  57 H57            3.8751    -0.5152    -2.5077 H       
  58 H58            5.4476    -1.8118    -1.0953 H       
  59 H59            5.4993    -0.0805    -0.6852 H       
  60 H60           11.0663    -0.3421     0.5458 H       
  61 H61           11.0114    -1.4267     1.9561 H       
  62 H62           10.2453    -1.9169     0.4260 H       
  63 H63            7.6265     8.2486     4.4301 H       
  64 H64            7.0504     9.5935     3.4163 H       
  65 H65            4.7077    -1.9501    -5.8402 H       
  66 H66            3.4111    -1.2293    -4.8566 H       
  67 H67            4.7595    -0.2188    -5.4301 H       
  68 H68            4.8228     8.0295     4.1703 H       
  69 H69            8.1015    -2.2702     1.8943 H       
  70 H70            9.0455    -1.6759     3.2814 H       
  71 H71            6.1171    -2.4360     3.3159 H       
  72 H72            7.0611    -1.8417     4.7029 H       
  73 H73            5.5891    -0.9803     4.1936 H       
  74 H74            3.1061    10.0716     7.8543 H       
  75 H75            4.9688    11.4926     8.6808 H       
  76 H76            7.1209    11.4792     7.4397 H       
  77 H77           11.5087     2.1234    -2.3079 H       
@<TRIPOS>BOND
   1    1    2 ar
   2    1    6 ar
   3    1   44 1
   4    2    3 ar
   5    2   25 1
   6    3    4 ar
   7    3   45 1
   8    4    5 ar
   9    5    6 ar
  10    5    7 1
  11    6   40 1
  12    7    8 1
  13    8    9 ar
  14    8   13 ar
  15    9   10 ar
  16    9   46 1
  17   10   11 ar
  18   10   47 1
  19   11   12 ar
  20   11   14 1
  21   12   13 ar
  22   12   37 1
  23   13   48 1
  24   14   15 am
  25   14   16 1
  26   15   17 2
  27   15   18 1
  28   16   24 1
  29   16   30 1
  30   16   49 1
  31   18   19 1
  32   18   23 1
  33   18   50 1
  34   19   20 1
  35   19   51 1
  36   19   52 1
  37   20   21 1
  38   20   53 1
  39   20   54 1
  40   21   22 1
  41   21   26 1
  42   21   55 1
  43   22   23 1
  44   22   56 1
  45   22   57 1
  46   23   58 1
  47   23   59 1
  48   24   60 1
  49   24   61 1
  50   24   62 1
  51   25   27 1
  52   25   63 1
  53   25   64 1
  54   26   65 1
  55   26   66 1
  56   26   67 1
  57   27   28 1
  58   27   68 1
  59   28   32 ar
  60   28   36 ar
  61   29   30 1
  62   29   31 1
  63   30   69 1
  64   30   70 1
  65   31   71 1
  66   31   72 1
  67   31   73 1
  68   32   33 ar
  69   33   34 ar
  70   33   74 1
  71   34   35 ar
  72   34   75 1
  73   35   36 ar
  74   35   76 1
  75   37   38 2
  76   37   39 1
  77   39   77 1
  78   40   41 1
  79   40   42 1
  80   40   43 1

#	End of record

