#	Name: ASD01913969
#	Creating user name:	WinNT
#	Creation time:	15. 06. 2019 20:02

#	Modifying user name:	WinNT
#	Modification time:	15. 06. 2019 20:02

#	Program:	/corina/corina34_cracker 3.40 0067  02.08.2006

@<TRIPOS>MOLECULE
ASD01913969
  39   42    0    0    0
SMALL
NO_CHARGES


@<TRIPOS>ATOM
   1 C1            -0.0868     1.1553    -0.9008 C.ar    
   2 C2            -0.0363    -0.1947    -0.6008 C.ar    
   3 C3             1.1830    -0.8218    -0.4200 C.ar    
   4 C4             2.3528    -0.0897    -0.5417 C.ar    
   5 C5             2.3059     1.2822    -0.8600 C.ar    
   6 C6             1.0750     1.8935    -1.0309 C.ar    
   7 C7             3.6888    -0.6783    -0.3332 C.2     
   8 C8             4.7963     0.1345    -0.2094 C.2     
   9 C9             4.7055     1.6333    -0.2688 C.3     
  10 N10            3.4919     1.9989    -1.0159 N.pl3   
  11 N11            4.1203    -1.9495    -0.2261 N.pl3   
  12 N12            5.3998    -1.9625    -0.0539 N.2     
  13 C13            5.8790    -0.7277    -0.0340 C.2     
  14 C14            7.2929    -0.3373     0.1403 C.2     
  15 C15            3.2667    -3.1381    -0.2942 C.3     
  16 N16            8.2386    -1.2842     0.3004 N.am    
  17 C17            9.5874    -0.9210     0.3680 C.ar    
  18 C18            9.9584     0.2644     0.9886 C.ar    
  19 C19           11.2926     0.6204     1.0536 C.ar    
  20 C20           12.2573    -0.2035     0.5008 C.ar    
  21 C21           11.8899    -1.3843    -0.1181 C.ar    
  22 C22           10.5593    -1.7482    -0.1807 C.ar    
  23 O23            7.6036     0.8381     0.1395 O.2     
  24 Cl24          11.7581     2.1024     1.8286 Cl      
  25 H25           -1.0438     1.6365    -1.0392 H       
  26 H26           -0.9517    -0.7601    -0.5073 H       
  27 H27            1.2229    -1.8752    -0.1851 H       
  28 H28            1.0227     2.9464    -1.2655 H       
  29 H29            4.6485     2.0370     0.7421 H       
  30 H30            5.5829     2.0334    -0.7769 H       
  31 H31            3.5174     2.7511    -1.6277 H       
  32 H32            3.0928    -3.4013    -1.3376 H       
  33 H33            3.7586    -3.9682     0.2127 H       
  34 H34            2.3135    -2.9292     0.1915 H       
  35 H35            7.9837    -2.2176     0.3688 H       
  36 H36            9.2055     0.9076     1.4197 H       
  37 H37           13.2991     0.0764     0.5526 H       
  38 H38           12.6451    -2.0250    -0.5489 H       
  39 H39           10.2735    -2.6706    -0.6643 H       
@<TRIPOS>BOND
   1    1    2 ar
   2    1    6 ar
   3    1   25 1
   4    2    3 ar
   5    2   26 1
   6    3    4 ar
   7    3   27 1
   8    4    5 ar
   9    4    7 1
  10    5    6 ar
  11    5   10 1
  12    6   28 1
  13    7    8 2
  14    7   11 1
  15    8    9 1
  16    8   13 1
  17    9   10 1
  18    9   29 1
  19    9   30 1
  20   10   31 1
  21   11   12 1
  22   11   15 1
  23   12   13 2
  24   13   14 1
  25   14   16 am
  26   14   23 2
  27   15   32 1
  28   15   33 1
  29   15   34 1
  30   16   17 1
  31   16   35 1
  32   17   18 ar
  33   17   22 ar
  34   18   19 ar
  35   18   36 1
  36   19   20 ar
  37   19   24 1
  38   20   21 ar
  39   20   37 1
  40   21   22 ar
  41   21   38 1
  42   22   39 1

#	End of record

