#	Name: ASD00310072
#	Creating user name:	WinNT
#	Creation time:	15. 06. 2019 18:33

#	Modifying user name:	WinNT
#	Modification time:	15. 06. 2019 18:33

#	Program:	/corina/corina34_cracker 3.40 0067  02.08.2006

@<TRIPOS>MOLECULE
ASD00310072
  41   44    0    0    0
SMALL
NO_CHARGES


@<TRIPOS>ATOM
   1 N1             0.2743     4.2062    -2.7827 N.pl3   
   2 C2            -0.0296     2.9166    -3.0559 C.2     
   3 C3             1.0625     2.1266    -2.8359 C.2     
   4 C4             2.1419     3.0226    -2.3830 C.ar    
   5 C5             3.4680     2.8188    -2.0102 C.ar    
   6 C6             4.2476     3.8973    -1.6228 C.ar    
   7 C7             3.6941     5.1959    -1.6081 C.ar    
   8 C8             2.3684     5.3952    -1.9815 C.ar    
   9 C9             1.5874     4.3154    -2.3694 C.ar    
  10 C10            1.1451     0.6722    -3.0148 C.2     
  11 O11            2.1860     0.0890    -2.7808 O.2     
  12 O12            0.0665    -0.0172    -3.4385 O.3     
  13 C13            5.6595     3.6876    -1.2243 C.ar    
  14 C14            6.6682     4.4717    -1.7827 C.ar    
  15 C15            7.9811     4.2718    -1.4078 C.ar    
  16 C16            8.2974     3.2954    -0.4803 C.ar    
  17 C17            7.3010     2.5141     0.0768 C.ar    
  18 C18            5.9838     2.7093    -0.2853 C.ar    
  19 C19            9.7332     3.0818    -0.0754 C.3     
  20 C20           10.4786     4.2691     0.5374 C.3     
  21 C21           10.0548     3.0936     1.4203 C.3     
  22 C22           10.5340     2.1270    -0.9631 C.3     
  23 O23            9.9886     0.8102    -0.8598 O.3     
  24 C24            4.4987     6.3107    -1.2076 C.1     
  25 N25            5.1370     7.1951    -0.8899 N.1     
  26 H26           -0.3422     4.9501    -2.8689 H       
  27 H27           -0.9920     2.5645    -3.3967 H       
  28 H28            3.8875     1.8237    -2.0224 H       
  29 H29            1.9474     6.3897    -1.9690 H       
  30 H30            0.1692    -0.9732    -3.5414 H       
  31 H31            6.4225     5.2338    -2.5075 H       
  32 H32            8.7633     4.8785    -1.8397 H       
  33 H33            7.5540     1.7528     0.8000 H       
  34 H34            5.2062     2.1019     0.1538 H       
  35 H35           11.5395     4.3698     0.3086 H       
  36 H36            9.9304     5.2048     0.6479 H       
  37 H37            9.2278     3.2559     2.1116 H       
  38 H38           10.8369     2.4210     1.7723 H       
  39 H39           10.4801     2.4624    -1.9988 H       
  40 H40           11.5745     2.1157    -0.6385 H       
  41 H41           10.4481     0.1508    -1.3975 H       
@<TRIPOS>BOND
   1    1    2 1
   2    1    9 1
   3    1   26 1
   4    2    3 2
   5    2   27 1
   6    3    4 1
   7    3   10 1
   8    4    5 ar
   9    4    9 ar
  10    5    6 ar
  11    5   28 1
  12    6    7 ar
  13    6   13 1
  14    7    8 ar
  15    7   24 1
  16    8    9 ar
  17    8   29 1
  18   10   11 2
  19   10   12 1
  20   12   30 1
  21   13   14 ar
  22   13   18 ar
  23   14   15 ar
  24   14   31 1
  25   15   16 ar
  26   15   32 1
  27   16   17 ar
  28   16   19 1
  29   17   18 ar
  30   17   33 1
  31   18   34 1
  32   19   20 1
  33   19   21 1
  34   19   22 1
  35   20   21 1
  36   20   35 1
  37   20   36 1
  38   21   37 1
  39   21   38 1
  40   22   23 1
  41   22   39 1
  42   22   40 1
  43   23   41 1
  44   24   25 3

#	End of record

