#	Name: ASD05490025
#	Creating user name:	WinNT
#	Creation time:	15. 06. 2019 21:00

#	Modifying user name:	WinNT
#	Modification time:	15. 06. 2019 21:00

#	Program:	/corina/corina34_cracker 3.40 0067  02.08.2006

@<TRIPOS>MOLECULE
ASD05490025
  69   73    0    0    0
SMALL
NO_CHARGES


@<TRIPOS>ATOM
   1 O1            -0.0173     1.4248     0.0099 O.3     
   2 N2             2.7241     5.3595     0.0030 N.pl3   
   3 N3             2.2883     1.3280    -0.0127 N.ar    
   4 C4             3.4877     1.9005    -0.0215 C.ar    
   5 C5             1.1818     2.0565     0.0018 C.ar    
   6 N6             1.2068     3.3779     0.0082 N.ar    
   7 C7             2.3634     4.0326     0.0003 C.ar    
   8 C8             3.5624     3.3026    -0.0151 C.ar    
   9 N9             4.6391     1.1308    -0.0361 N.pl3   
  10 C10            4.0899     5.4129    -0.0163 C.2     
  11 N11            4.5806     4.2015    -0.0210 N.2     
  12 C12            1.8119     6.5058     0.0175 C.3     
  13 C13            1.5133     6.8921     1.4432 C.ar    
  14 C14            2.3057     7.8164     2.1085 C.ar    
  15 C15            2.0054     8.1504     3.4165 C.ar    
  16 N16            0.9796     7.6032     4.0358 N.ar    
  17 C17            0.1974     6.7155     3.4353 C.ar    
  18 C18            0.4386     6.3369     2.1166 C.ar    
  19 C19            0.0021    -0.0041     0.0020 C.3     
  20 C20           -1.4333    -0.5336     0.0129 C.3     
  21 C21           -1.4126    -2.0635     0.0045 C.3     
  22 C22           -2.8479    -2.5931     0.0153 C.3     
  23 C23           -0.9468     6.1255     4.1724 C.ar    
  24 C24           -1.1988     6.5024     5.4902 C.ar    
  25 C25           -2.2650     5.9506     6.1711 C.ar    
  26 C26           -3.0825     5.0249     5.5480 C.ar    
  27 C27           -2.8370     4.6472     4.2401 C.ar    
  28 C28           -1.7770     5.1967     3.5478 C.ar    
  29 C29           -4.2445     4.4252     6.2970 C.3     
  30 N30           -5.4397     5.2542     6.0917 N.3     
  31 C31           -6.6454     4.5800     6.6070 C.3     
  32 C32           -5.3027     6.5592     6.7728 C.3     
  33 C33           -6.7378     6.9181     7.2325 C.3     
  34 C34           -7.2939     5.5277     7.6378 C.3     
  35 O35            4.8243     6.5500    -0.0203 O.3     
  36 C36            6.2458     6.4042    -0.0300 C.3     
  37 H37            4.5753     0.1629    -0.0401 H       
  38 H38            5.5091     1.5596    -0.0425 H       
  39 H39            2.2770     7.3467    -0.4969 H       
  40 H40            0.8842     6.2383    -0.4884 H       
  41 H41            3.1493     8.2705     1.6098 H       
  42 H42            2.6205     8.8693     3.9373 H       
  43 H43           -0.1990     5.6144     1.6290 H       
  44 H44            0.5123    -0.3556    -0.8948 H       
  45 H45            0.5293    -0.3651     0.8851 H       
  46 H46           -1.9435    -0.1821     0.9097 H       
  47 H47           -1.9605    -0.1726    -0.8702 H       
  48 H48           -0.9024    -2.4150    -0.8923 H       
  49 H49           -0.8854    -2.4246     0.8875 H       
  50 H50           -3.3581    -2.2415     0.9121 H       
  51 H51           -3.3751    -2.2320    -0.8677 H       
  52 H52           -2.8332    -3.6829     0.0093 H       
  53 H53           -0.5608     7.2245     5.9779 H       
  54 H54           -2.4613     6.2419     7.1923 H       
  55 H55           -3.4784     3.9240     3.7585 H       
  56 H56           -1.5862     4.9011     2.5267 H       
  57 H57           -4.4337     3.4173     5.9276 H       
  58 H58           -4.0091     4.3842     7.3605 H       
  59 H59           -7.3411     4.3887     5.7900 H       
  60 H60           -6.3686     3.6420     7.0884 H       
  61 H61           -4.6396     6.4704     7.6334 H       
  62 H62           -4.9270     7.3117     6.0794 H       
  63 H63           -6.7164     7.5944     8.0872 H       
  64 H64           -7.3149     7.3457     6.4127 H       
  65 H65           -8.3802     5.5068     7.5506 H       
  66 H66           -6.9824     5.2680     8.6496 H       
  67 H67            6.7121     7.3894    -0.0323 H       
  68 H68            6.5608     5.8553     0.8575 H       
  69 H69            6.5488     5.8567    -0.9224 H       
@<TRIPOS>BOND
   1    1   19 1
   2    1    5 1
   3    2   12 1
   4    2    7 1
   5    2   10 1
   6    3    4 ar
   7    3    5 ar
   8    4    9 1
   9    4    8 ar
  10    5    6 ar
  11    6    7 ar
  12    7    8 ar
  13    8   11 1
  14    9   37 1
  15    9   38 1
  16   10   11 2
  17   10   35 1
  18   12   13 1
  19   12   39 1
  20   12   40 1
  21   13   14 ar
  22   13   18 ar
  23   14   15 ar
  24   14   41 1
  25   15   16 ar
  26   15   42 1
  27   16   17 ar
  28   17   18 ar
  29   17   23 1
  30   18   43 1
  31   19   20 1
  32   19   44 1
  33   19   45 1
  34   20   21 1
  35   20   46 1
  36   20   47 1
  37   21   22 1
  38   21   48 1
  39   21   49 1
  40   22   50 1
  41   22   51 1
  42   22   52 1
  43   23   24 ar
  44   23   28 ar
  45   24   25 ar
  46   24   53 1
  47   25   26 ar
  48   25   54 1
  49   26   27 ar
  50   26   29 1
  51   27   28 ar
  52   27   55 1
  53   28   56 1
  54   29   30 1
  55   29   57 1
  56   29   58 1
  57   30   31 1
  58   30   32 1
  59   31   34 1
  60   31   59 1
  61   31   60 1
  62   32   33 1
  63   32   61 1
  64   32   62 1
  65   33   34 1
  66   33   63 1
  67   33   64 1
  68   34   65 1
  69   34   66 1
  70   35   36 1
  71   36   67 1
  72   36   68 1
  73   36   69 1

#	End of record

