#	Name: ASD04880338
#	Creating user name:	WinNT
#	Creation time:	15. 06. 2019 20:53

#	Modifying user name:	WinNT
#	Modification time:	15. 06. 2019 20:53

#	Program:	/corina/corina34_cracker 3.40 0067  02.08.2006

@<TRIPOS>MOLECULE
ASD04880338
  37   39    0    0    0
SMALL
NO_CHARGES


@<TRIPOS>ATOM
   1 C1            -0.0143     1.3817     0.0537 C.ar    
   2 C2             0.0028     0.0001    -0.0071 C.ar    
   3 C3             1.2040    -0.6781    -0.0363 C.ar    
   4 C4             2.4051     0.0324    -0.0050 C.ar    
   5 C5             2.3833     1.4268     0.0558 C.ar    
   6 C6             1.1740     2.0944     0.0851 C.ar    
   7 C7             3.6948    -0.6888    -0.0356 C.2     
   8 O8             3.7146    -1.9024     0.0376 O.2     
   9 N9             4.8489    -0.0014    -0.1447 N.am    
  10 C10            6.2000    -0.5795    -0.0686 C.3     
  11 N11            4.9576     1.3719    -0.3540 N.2     
  12 C12            6.1709     1.7993    -0.4238 C.2     
  13 C13            7.1257     0.6391    -0.2545 C.3     
  14 C14            6.5675     3.2034    -0.6389 C.ar    
  15 C15            7.9197     3.5490    -0.6973 C.ar    
  16 C16            5.5928     4.1916    -0.7907 C.ar    
  17 C17            5.9731     5.5071    -0.9927 C.ar    
  18 C18            7.3200     5.8415    -1.0439 C.ar    
  19 C19            8.2867     4.8637    -0.8991 C.ar    
  20 F20            1.1498     3.4439     0.1440 F       
  21 O21            5.0277     6.4721    -1.1414 O.3     
  22 C22            5.4911     7.8082    -1.3465 C.3     
  23 F23            6.2667     7.8594    -2.5097 F       
  24 F24            4.3946     8.6670    -1.4789 F       
  25 F25            6.2657     8.2064    -0.2516 F       
  26 H26           -0.9574     1.9076     0.0722 H       
  27 H27           -0.9267    -0.5494    -0.0313 H       
  28 H28            1.2149    -1.7570    -0.0830 H       
  29 H29            3.3091     1.9823     0.0807 H       
  30 H30            6.3652    -1.0417     0.9046 H       
  31 H31            6.3533    -1.3032    -0.8691 H       
  32 H32            7.7503     0.7836     0.6270 H       
  33 H33            7.7420     0.5180    -1.1453 H       
  34 H34            8.6774     2.7877    -0.5842 H       
  35 H35            4.5456     3.9304    -0.7510 H       
  36 H36            7.6135     6.8688    -1.2017 H       
  37 H37            9.3324     5.1305    -0.9400 H       
@<TRIPOS>BOND
   1    1    2 ar
   2    1    6 ar
   3    1   26 1
   4    2    3 ar
   5    2   27 1
   6    3    4 ar
   7    3   28 1
   8    4    5 ar
   9    4    7 1
  10    5    6 ar
  11    5   29 1
  12    6   20 1
  13    7    8 2
  14    7    9 am
  15    9   10 1
  16    9   11 1
  17   10   13 1
  18   10   30 1
  19   10   31 1
  20   11   12 2
  21   12   13 1
  22   12   14 1
  23   13   32 1
  24   13   33 1
  25   14   15 ar
  26   14   16 ar
  27   15   19 ar
  28   15   34 1
  29   16   17 ar
  30   16   35 1
  31   17   18 ar
  32   17   21 1
  33   18   19 ar
  34   18   36 1
  35   19   37 1
  36   21   22 1
  37   22   23 1
  38   22   24 1
  39   22   25 1

#	End of record

