#	Name: ASD01910712
#	Creating user name:	WinNT
#	Creation time:	15. 06. 2019 19:56

#	Modifying user name:	WinNT
#	Modification time:	15. 06. 2019 19:56

#	Program:	/corina/corina34_cracker 3.40 0067  02.08.2006

@<TRIPOS>MOLECULE
ASD01910712
  54   57    0    0    0
SMALL
NO_CHARGES


@<TRIPOS>ATOM
   1 C1            12.4818    -1.9049     4.2714 C.ar    
   2 C2            13.1016    -2.0686     3.0399 C.ar    
   3 C3            12.3921    -1.7492     1.8960 C.ar    
   4 C4            11.0892    -1.2775     2.0178 C.ar    
   5 N5            10.5330    -1.1347     3.2110 N.ar    
   6 C6            11.1856    -1.4318     4.3186 C.ar    
   7 N7            10.3648    -0.9528     0.8767 N.3     
   8 C8             9.0193    -0.4771     1.2251 C.3     
   9 C9             8.3208     0.0390    -0.0375 C.3     
  10 N10            8.3616    -1.0181    -1.0593 N.am    
  11 C11            9.6586    -1.6408    -1.3649 C.3     
  12 C12           10.3043    -2.0908    -0.0501 C.3     
  13 C13            7.2404    -1.4055    -1.6989 C.2     
  14 C14            7.3210    -2.3785    -2.8064 C.ar    
  15 O15            6.1624    -0.9538    -1.3639 O.2     
  16 C16            6.3464    -3.3726    -2.9362 C.ar    
  17 C17            6.4169    -4.2834    -3.9682 C.ar    
  18 C18            7.4549    -4.2207    -4.8863 C.ar    
  19 C19            8.4395    -3.2264    -4.7664 C.ar    
  20 C20            8.3661    -2.3027    -3.7265 C.ar    
  21 C21            9.5121    -3.1594    -5.7128 C.1     
  22 C22           10.3915    -3.1045    -6.4886 C.1     
  23 C23           11.4642    -3.0375    -7.4350 C.ar    
  24 O24            7.5192    -5.1201    -5.8995 O.3     
  25 C25           12.4433    -2.0489    -7.3160 C.ar    
  26 C26           13.4770    -1.9909    -8.2351 C.ar    
  27 C27           13.5386    -2.9130    -9.2714 C.ar    
  28 C28           12.5697    -3.8927    -9.3914 C.ar    
  29 C29           11.5386    -3.9649    -8.4782 C.ar    
  30 O30           14.4320    -1.0305    -8.1232 O.3     
  31 C31            6.4848    -6.1041    -5.9603 C.3     
  32 H32           13.0068    -2.1493     5.1830 H       
  33 H33           14.1150    -2.4367     2.9763 H       
  34 H34           12.8438    -1.8642     0.9218 H       
  35 H35           10.6998    -1.3026     5.2745 H       
  36 H36            8.4420    -1.2982     1.6502 H       
  37 H37            9.0960     0.3297     1.9539 H       
  38 H38            7.2844     0.2862     0.1925 H       
  39 H39            8.8383     0.9247    -0.4061 H       
  40 H40            9.5066    -2.5043    -2.0126 H       
  41 H41           10.3046    -0.9166    -1.8611 H       
  42 H42           11.3131    -2.4543    -0.2461 H       
  43 H43            9.7092    -2.8894     0.3928 H       
  44 H44            5.5355    -3.4272    -2.2250 H       
  45 H45            5.6611    -5.0492    -4.0623 H       
  46 H46            9.1198    -1.5353    -3.6289 H       
  47 H47           12.3940    -1.3318    -6.5100 H       
  48 H48           14.3461    -2.8648    -9.9869 H       
  49 H49           12.6234    -4.6065   -10.2000 H       
  50 H50           10.7837    -4.7312    -8.5749 H       
  51 H51           15.1904    -1.2910    -7.5826 H       
  52 H52            6.6555    -6.7585    -6.8151 H       
  53 H53            6.4905    -6.6943    -5.0439 H       
  54 H54            5.5192    -5.6100    -6.0681 H       
@<TRIPOS>BOND
   1    1    2 ar
   2    1    6 ar
   3    1   32 1
   4    2    3 ar
   5    2   33 1
   6    3    4 ar
   7    3   34 1
   8    4    5 ar
   9    4    7 1
  10    5    6 ar
  11    6   35 1
  12    7    8 1
  13    7   12 1
  14    8    9 1
  15    8   36 1
  16    8   37 1
  17    9   10 1
  18    9   38 1
  19    9   39 1
  20   10   11 1
  21   10   13 am
  22   11   12 1
  23   11   40 1
  24   11   41 1
  25   12   42 1
  26   12   43 1
  27   13   14 1
  28   13   15 2
  29   14   16 ar
  30   14   20 ar
  31   16   17 ar
  32   16   44 1
  33   17   18 ar
  34   17   45 1
  35   18   19 ar
  36   18   24 1
  37   19   20 ar
  38   19   21 1
  39   20   46 1
  40   21   22 3
  41   22   23 1
  42   23   25 ar
  43   23   29 ar
  44   24   31 1
  45   25   26 ar
  46   25   47 1
  47   26   27 ar
  48   26   30 1
  49   27   28 ar
  50   27   48 1
  51   28   29 ar
  52   28   49 1
  53   29   50 1
  54   30   51 1
  55   31   52 1
  56   31   53 1
  57   31   54 1

#	End of record

