#	Name: ASD03740209
#	Creating user name:	WinNT
#	Creation time:	15. 06. 2019 20:46

#	Modifying user name:	WinNT
#	Modification time:	15. 06. 2019 20:46

#	Program:	/corina/corina34_cracker 3.40 0067  02.08.2006

@<TRIPOS>MOLECULE
ASD03740209
  56   62    0    0    0
SMALL
NO_CHARGES


@<TRIPOS>ATOM
   1 C1            -0.0167     1.3775     0.0096 C.ar    
   2 C2             0.0021    -0.0041     0.0020 C.ar    
   3 C3             1.2125    -0.6826    -0.0128 C.ar    
   4 C4             2.4035     0.0268    -0.0204 C.ar    
   5 C5             2.3821     1.4130    -0.0132 C.ar    
   6 C6             1.1691     2.0869     0.0021 C.ar    
   7 O7             3.5479     2.1112    -0.0202 O.3     
   8 C8             3.4504     3.5368    -0.0121 C.3     
   9 C9             4.8335     4.1350    -0.0215 C.2     
  10 O10            1.2303    -2.0415    -0.0193 O.3     
  11 C11           -0.0343    -2.7069    -0.0104 C.3     
  12 C12            0.1827    -4.1982    -0.0195 C.2     
  13 N13            5.5293     4.4458    -1.0792 N.2     
  14 N14            6.6671     4.9346    -0.7311 N.2     
  15 C15            6.7491     4.9577     0.5751 C.2     
  16 N16            5.5209     4.4235     2.4719 N.2     
  17 N17            5.5873     4.4571     1.0869 N.pl3   
  18 S18            7.7428     5.3748     1.9764 S.3     
  19 C19            6.5370     4.8424     3.1617 C.2     
  20 C20            0.4735    -6.2550    -0.6417 C.2     
  21 N21            0.4778    -6.1852     0.6654 N.2     
  22 N22            0.3030    -4.9637     1.0288 N.2     
  23 N23            0.2551    -4.9098    -2.5217 N.2     
  24 C24            0.4055    -5.9897    -3.2251 C.2     
  25 S25            0.6113    -7.3064    -2.0562 S.3     
  26 N26            0.2836    -4.9980    -1.1378 N.pl3   
  27 C27            0.4043    -6.0998    -4.7009 C.ar    
  28 C28            0.5797    -7.3422    -5.3103 C.ar    
  29 C29            0.5773    -7.4390    -6.6864 C.ar    
  30 C30            0.4012    -6.3059    -7.4625 C.ar    
  31 C31            0.2266    -5.0701    -6.8629 C.ar    
  32 C32            0.2220    -4.9623    -5.4875 C.ar    
  33 C33            6.6565     4.8861     4.6362 C.ar    
  34 C34            7.8232     5.3678     5.2299 C.ar    
  35 C35            7.9290     5.4067     6.6048 C.ar    
  36 C36            6.8798     4.9687     7.3952 C.ar    
  37 C37            5.7194     4.4895     6.8111 C.ar    
  38 C38            5.6007     4.4510     5.4373 C.ar    
  39 Cl39           7.0200     5.0200     9.1248 Cl      
  40 Cl40           0.3997    -6.4350    -9.1937 Cl      
  41 H41           -0.9597     1.9039     0.0169 H       
  42 H42           -0.9260    -0.5563     0.0079 H       
  43 H43            3.3465    -0.4995    -0.0315 H       
  44 H44            1.1518     3.1668     0.0081 H       
  45 H45            2.9050     3.8687    -0.8955 H       
  46 H46            2.9210     3.8597     0.8843 H       
  47 H47           -0.5865    -2.4256     0.8863 H       
  48 H48           -0.6036    -2.4172    -0.8936 H       
  49 H49            0.7176    -8.2266    -4.7060 H       
  50 H50            0.7134    -8.4004    -7.1594 H       
  51 H51            0.0900    -4.1894    -7.4730 H       
  52 H52            0.0817    -3.9985    -5.0208 H       
  53 H53            8.6423     5.7094     4.6144 H       
  54 H54            8.8320     5.7792     7.0656 H       
  55 H55            4.9043     4.1488     7.4324 H       
  56 H56            4.6936     4.0809     4.9828 H       
@<TRIPOS>BOND
   1    1    2 ar
   2    1    6 ar
   3    1   41 1
   4    2    3 ar
   5    2   42 1
   6    3    4 ar
   7    3   10 1
   8    4    5 ar
   9    4   43 1
  10    5    6 ar
  11    5    7 1
  12    6   44 1
  13    7    8 1
  14    8    9 1
  15    8   45 1
  16    8   46 1
  17    9   13 2
  18    9   17 1
  19   10   11 1
  20   11   12 1
  21   11   47 1
  22   11   48 1
  23   12   22 2
  24   12   26 1
  25   13   14 1
  26   14   15 2
  27   15   18 1
  28   15   17 1
  29   16   17 1
  30   16   19 2
  31   18   19 1
  32   19   33 1
  33   20   21 2
  34   20   26 1
  35   20   25 1
  36   21   22 1
  37   23   24 2
  38   23   26 1
  39   24   25 1
  40   24   27 1
  41   27   28 ar
  42   27   32 ar
  43   28   29 ar
  44   28   49 1
  45   29   30 ar
  46   29   50 1
  47   30   31 ar
  48   30   40 1
  49   31   32 ar
  50   31   51 1
  51   32   52 1
  52   33   34 ar
  53   33   38 ar
  54   34   35 ar
  55   34   53 1
  56   35   36 ar
  57   35   54 1
  58   36   37 ar
  59   36   39 1
  60   37   38 ar
  61   37   55 1
  62   38   56 1

#	End of record

