#	Name: ASD08150959
#	Creating user name:	WinNT
#	Creation time:	15. 06. 2019 21:16

#	Modifying user name:	WinNT
#	Modification time:	15. 06. 2019 21:16

#	Program:	/corina/corina34_cracker 3.40 0067  02.08.2006

@<TRIPOS>MOLECULE
ASD08150959
  56   60    0    0    0
SMALL
NO_CHARGES


@<TRIPOS>ATOM
   1 N1             1.6541     2.1896     1.9726 N.am    
   2 C2             2.5790     1.1263     1.5517 C.3     
   3 C3             1.9841     0.4196     0.3291 C.3     
   4 N4             1.6714     1.4158    -0.7043 N.3     
   5 C5             0.6466     2.3607    -0.2407 C.3     
   6 C6             1.1866     3.1469     0.9586 C.3     
   7 C7             1.2415     2.2810     3.2524 C.2     
   8 O8             1.6339     1.4784     4.0761 O.2     
   9 O9             0.3945     3.2616     3.6183 O.3     
  10 N10           -0.5823    -0.2492    -0.8173 N.ar    
  11 C11           -1.6413    -1.0215    -0.8361 C.ar    
  12 C12           -2.0638    -1.6573    -2.0017 C.ar    
  13 C13           -1.3684    -1.4819    -3.1639 C.ar    
  14 C14           -0.2320    -0.6513    -3.1394 C.ar    
  15 C15            0.5316    -0.4246    -4.2968 C.ar    
  16 C16            1.6264     0.3854    -4.2404 C.ar    
  17 C17            2.0041     0.9964    -3.0485 C.ar    
  18 C18            1.2808     0.7977    -1.8926 C.ar    
  19 C19            0.1417    -0.0362    -1.9195 C.ar    
  20 C20            3.2204     1.8856    -3.0213 C.3     
  21 C21            4.4121     1.1029    -2.4662 C.3     
  22 N22            3.5244     2.3390    -4.3808 N.pl3   
  23 N23            3.9904     3.4911    -7.1926 N.2     
  24 C24            3.8712     4.2897    -8.2132 C.2     
  25 N25            2.9819     5.2823    -7.9264 N.pl3   
  26 C26            2.5309     5.0736    -6.6476 C.ar    
  27 N27            1.6760     5.6938    -5.8410 N.ar    
  28 C28            1.4448     5.2362    -4.6286 C.ar    
  29 N29            2.0381     4.1564    -4.1535 N.ar    
  30 C30            2.9082     3.4699    -4.8871 C.ar    
  31 C31            3.1877     3.9191    -6.1888 C.ar    
  32 Cl32           0.0818    -1.1753    -5.7960 Cl      
  33 C33           -0.0076     3.2990     5.0130 C.3     
  34 H34            3.5431     1.5622     1.2897 H       
  35 H35            2.7063     0.4095     2.3630 H       
  36 H36            2.7054    -0.2973    -0.0633 H       
  37 H37            1.0723    -0.1026     0.6187 H       
  38 H38            0.3978     3.0515    -1.0463 H       
  39 H39           -0.2467     1.8114     0.0568 H       
  40 H40            0.3934     3.7661     1.3777 H       
  41 H41            2.0168     3.7770     0.6395 H       
  42 H42           -2.2008    -1.1692     0.0759 H       
  43 H43           -2.9401    -2.2883    -1.9860 H       
  44 H44           -1.6814    -1.9672    -4.0766 H       
  45 H45            2.2090     0.5556    -5.1336 H       
  46 H46            3.0250     2.7492    -2.3855 H       
  47 H47            5.3033     1.7300    -2.4938 H       
  48 H48            4.2062     0.8092    -1.4369 H       
  49 H49            4.5758     0.2120    -3.0725 H       
  50 H50            4.1576     1.8464    -4.9261 H       
  51 H51            4.3992     4.1822    -9.1491 H       
  52 H52            2.7169     6.0040    -8.5178 H       
  53 H53            0.7442     5.7640    -3.9986 H       
  54 H54           -0.5097     2.3667     5.2715 H       
  55 H55            0.8738     3.4234     5.6421 H       
  56 H56           -0.6887     4.1349     5.1725 H       
@<TRIPOS>BOND
   1    1    2 1
   2    1    6 1
   3    1    7 am
   4    2    3 1
   5    2   34 1
   6    2   35 1
   7    3    4 1
   8    3   36 1
   9    3   37 1
  10    4    5 1
  11    4   18 1
  12    5    6 1
  13    5   38 1
  14    5   39 1
  15    6   40 1
  16    6   41 1
  17    7    8 2
  18    7    9 1
  19    9   33 1
  20   10   11 ar
  21   10   19 ar
  22   11   12 ar
  23   11   42 1
  24   12   13 ar
  25   12   43 1
  26   13   14 ar
  27   13   44 1
  28   14   15 ar
  29   14   19 ar
  30   15   16 ar
  31   15   32 1
  32   16   17 ar
  33   16   45 1
  34   17   18 ar
  35   17   20 1
  36   18   19 ar
  37   20   21 1
  38   20   22 1
  39   20   46 1
  40   21   47 1
  41   21   48 1
  42   21   49 1
  43   22   30 1
  44   22   50 1
  45   23   24 2
  46   23   31 1
  47   24   25 1
  48   24   51 1
  49   25   26 1
  50   25   52 1
  51   26   27 ar
  52   26   31 ar
  53   27   28 ar
  54   28   29 ar
  55   28   53 1
  56   29   30 ar
  57   30   31 ar
  58   33   54 1
  59   33   55 1
  60   33   56 1

#	End of record

