#	Name: ASD03330372
#	Creating user name:	WinNT
#	Creation time:	15. 06. 2019 20:37

#	Modifying user name:	WinNT
#	Modification time:	15. 06. 2019 20:37

#	Program:	/corina/corina34_cracker 3.40 0067  02.08.2006

@<TRIPOS>MOLECULE
ASD03330372
  63   65    0    0    0
SMALL
NO_CHARGES


@<TRIPOS>ATOM
   1 C1             1.0524     1.4107    -0.5863 C.3     
   2 N2             0.7484     0.0501    -0.1216 N.3     
   3 C3             0.7226    -0.9038    -1.2453 C.3     
   4 C4             1.9838    -0.7118    -2.0472 C.2     
   5 N5             2.7926     0.3812    -1.9338 N.pl3   
   6 C6             2.5210     1.4958    -1.0219 C.3     
   7 C7             2.5382    -1.5252    -2.9799 C.2     
   8 N8             3.6704    -0.9314    -3.4223 N.2     
   9 C9             3.8287     0.2136    -2.7967 C.2     
  10 C10            4.9470     1.1608    -2.9982 C.ar    
  11 C11            5.7748     1.0396    -4.1148 C.ar    
  12 C12            2.0035    -2.8224    -3.4305 C.2     
  13 O13            0.9704    -3.2527    -2.9545 O.2     
  14 C14            2.1280    -4.8215    -4.8180 C.3     
  15 N15            2.6595    -3.5319    -4.3701 N.am    
  16 C16           -0.5166     0.0189     0.6246 C.3     
  17 C17            6.8162     1.9256    -4.2975 C.ar    
  18 C18            7.0407     2.9339    -3.3753 C.ar    
  19 C19            6.2224     3.0591    -2.2653 C.ar    
  20 C20            5.1745     2.1823    -2.0753 C.ar    
  21 C21            2.6328    -5.1178    -6.2316 C.3     
  22 C22           -1.6661     0.4164    -0.3037 C.3     
  23 C23           -2.9770    -0.1645     0.2303 C.3     
  24 C24           -1.7705     1.9417    -0.3620 C.3     
  25 Cl25           8.3535     4.0450    -3.6115 Cl      
  26 C26            2.5972    -5.9245    -3.8672 C.3     
  27 O27            4.0235    -6.0055    -3.8986 O.3     
  28 C28            4.1599    -5.0278    -6.2571 C.3     
  29 C29            2.1979    -6.5257    -6.6437 C.3     
  30 C30            2.0453    -4.0964    -7.2076 C.3     
  31 H31            0.4091     1.6572    -1.4310 H       
  32 H32            0.8729     2.1185     0.2230 H       
  33 H33            0.6810    -1.9234    -0.8623 H       
  34 H34           -0.1467    -0.7096    -1.8735 H       
  35 H35            2.6985     2.4416    -1.5339 H       
  36 H36            3.1686     1.4226    -0.1482 H       
  37 H37            5.6008     0.2533    -4.8345 H       
  38 H38            1.0386    -4.7840    -4.8217 H       
  39 H39            3.4835    -3.1886    -4.7497 H       
  40 H40           -0.6889    -0.9876     1.0058 H       
  41 H41           -0.4641     0.7192     1.4582 H       
  42 H42            7.4578     1.8325    -5.1613 H       
  43 H43            6.4021     3.8474    -1.5493 H       
  44 H44            4.5369     2.2808    -1.2092 H       
  45 H45           -1.4768     0.0267    -1.3039 H       
  46 H46           -3.1663     0.2252     1.2305 H       
  47 H47           -3.7959     0.1186    -0.4310 H       
  48 H48           -2.9026    -1.2512     0.2718 H       
  49 H49           -1.9866     2.3294     0.6336 H       
  50 H50           -0.8274     2.3571    -0.7169 H       
  51 H51           -2.5720     2.2252    -1.0441 H       
  52 H52            2.2685    -5.6946    -2.8537 H       
  53 H53            2.1721    -6.8784    -4.1794 H       
  54 H54            4.3917    -6.6856    -3.3181 H       
  55 H55            4.5827    -5.8692    -5.7082 H       
  56 H56            4.5083    -5.0557    -7.2896 H       
  57 H57            4.4767    -4.0944    -5.7918 H       
  58 H58            1.1100    -6.5898    -6.6256 H       
  59 H59            2.5576    -6.7368    -7.6508 H       
  60 H60            2.6165    -7.2533    -5.9484 H       
  61 H61            2.3551    -3.0935    -6.9140 H       
  62 H62            2.4050    -4.3076    -8.2147 H       
  63 H63            0.9574    -4.1606    -7.1894 H       
@<TRIPOS>BOND
   1    1    2 1
   2    1    6 1
   3    1   31 1
   4    1   32 1
   5    2    3 1
   6    2   16 1
   7    3    4 1
   8    3   33 1
   9    3   34 1
  10    4    5 1
  11    4    7 2
  12    5    6 1
  13    5    9 1
  14    6   35 1
  15    6   36 1
  16    7    8 1
  17    7   12 1
  18    8    9 2
  19    9   10 1
  20   10   11 ar
  21   10   20 ar
  22   11   17 ar
  23   11   37 1
  24   12   13 2
  25   12   15 am
  26   14   15 1
  27   14   26 1
  28   14   21 1
  29   14   38 1
  30   15   39 1
  31   16   22 1
  32   16   40 1
  33   16   41 1
  34   17   18 ar
  35   17   42 1
  36   18   19 ar
  37   18   25 1
  38   19   20 ar
  39   19   43 1
  40   20   44 1
  41   21   28 1
  42   21   29 1
  43   21   30 1
  44   22   23 1
  45   22   24 1
  46   22   45 1
  47   23   46 1
  48   23   47 1
  49   23   48 1
  50   24   49 1
  51   24   50 1
  52   24   51 1
  53   26   27 1
  54   26   52 1
  55   26   53 1
  56   27   54 1
  57   28   55 1
  58   28   56 1
  59   28   57 1
  60   29   58 1
  61   29   59 1
  62   29   60 1
  63   30   61 1
  64   30   62 1
  65   30   63 1

#	End of record

