#	Name: ASD01901426
#	Creating user name:	WinNT
#	Creation time:	15. 06. 2019 19:53

#	Modifying user name:	WinNT
#	Modification time:	15. 06. 2019 19:53

#	Program:	/corina/corina34_cracker 3.40 0067  02.08.2006

@<TRIPOS>MOLECULE
ASD01901426
  41   44    0    0    0
SMALL
NO_CHARGES


@<TRIPOS>ATOM
   1 C1            -0.0169     1.3930     0.0097 C.ar    
   2 C2             1.1779     2.0978     0.0021 C.ar    
   3 C3             2.3832     1.4174    -0.0135 C.ar    
   4 C4             2.4031     0.0342    -0.0212 C.ar    
   5 C5             1.2207    -0.6783    -0.0137 C.ar    
   6 C6             0.0021    -0.0041     0.0020 C.ar    
   7 C7            -1.2710    -0.7664     0.0106 C.2     
   8 N8            -3.1797    -1.5366    -1.1465 N.2     
   9 C9            -2.0558    -0.8626    -1.1592 C.2     
  10 C10           -1.6977    -1.3902     1.1495 C.2     
  11 N11           -2.8724    -2.0824     1.1229 N.pl3   
  12 C12           -3.6088    -2.1474    -0.0319 C.2     
  13 C13           -3.5495    -2.7955     2.0751 C.2     
  14 C14           -4.6685    -3.2742     1.4911 C.2     
  15 N15           -4.6907    -2.8717     0.2171 N.2     
  16 C16           -5.7185    -4.1200     2.1642 C.3     
  17 O17           -5.3496    -4.3424     3.5268 O.3     
  18 C18           -6.1943    -5.0914     4.2793 C.ar    
  19 C19           -5.8929    -5.3372     5.6113 C.ar    
  20 N20           -7.3000    -5.5756     3.7372 N.ar    
  21 C21           -8.1499    -6.3084     4.4318 C.ar    
  22 C22           -7.9135    -6.5982     5.7599 C.ar    
  23 C23           -6.7653    -6.1041     6.3695 C.ar    
  24 O24           -1.2016     2.0591     0.0303 O.3     
  25 F25           -6.5054    -6.3652     7.6693 F       
  26 C26           -1.7488     2.3702     1.3132 C.3     
  27 F27            1.1651     3.4487     0.0095 F       
  28 H28            3.3118     1.9687    -0.0202 H       
  29 H29            3.3471    -0.4901    -0.0334 H       
  30 H30            1.2407    -1.7581    -0.0201 H       
  31 H31           -1.7290    -0.3786    -2.0677 H       
  32 H32           -1.1135    -1.3360     2.0562 H       
  33 H33           -3.2455    -2.9470     3.1003 H       
  34 H34           -6.6785    -3.6051     2.1272 H       
  35 H35           -5.7994    -5.0771     1.6489 H       
  36 H36           -4.9915    -4.9372     6.0515 H       
  37 H37           -9.0421    -6.6858     3.9545 H       
  38 H38           -8.6145    -7.1984     6.3210 H       
  39 H39           -1.9216     1.4479     1.8678 H       
  40 H40           -1.0494     2.9995     1.8635 H       
  41 H41           -2.6927     2.9004     1.1867 H       
@<TRIPOS>BOND
   1    1    6 ar
   2    1    2 ar
   3    1   24 1
   4    2    3 ar
   5    2   27 1
   6    3    4 ar
   7    3   28 1
   8    4    5 ar
   9    4   29 1
  10    5    6 ar
  11    5   30 1
  12    6    7 1
  13    7   10 2
  14    7    9 1
  15    8    9 2
  16    8   12 1
  17    9   31 1
  18   10   11 1
  19   10   32 1
  20   11   13 1
  21   11   12 1
  22   12   15 2
  23   13   14 2
  24   13   33 1
  25   14   15 1
  26   14   16 1
  27   16   17 1
  28   16   34 1
  29   16   35 1
  30   17   18 1
  31   18   20 ar
  32   18   19 ar
  33   19   23 ar
  34   19   36 1
  35   20   21 ar
  36   21   22 ar
  37   21   37 1
  38   22   23 ar
  39   22   38 1
  40   23   25 1
  41   24   26 1
  42   26   39 1
  43   26   40 1
  44   26   41 1

#	End of record

