#	Name: ASD07930659
#	Creating user name:	WinNT
#	Creation time:	15. 06. 2019 21:12

#	Modifying user name:	WinNT
#	Modification time:	15. 06. 2019 21:12

#	Program:	/corina/corina34_cracker 3.40 0067  02.08.2006

@<TRIPOS>MOLECULE
ASD07930659
  49   51    0    0    0
SMALL
NO_CHARGES


@<TRIPOS>ATOM
   1 C1            -0.1434     1.4650     0.3074 C.3     
   2 N2             0.5906    -0.2186    -2.0458 N.2     
   3 N3            -0.9971    -1.6996    -1.1813 N.pl3   
   4 C4            -0.9255    -2.8147    -0.2313 C.3     
   5 C5            -1.1669    -2.2856     1.1892 C.3     
   6 S6             0.0525    -0.9765     1.5261 S.o2    
   7 N7            -0.0847     0.0061     0.1873 N.am    
   8 C8            -0.1411    -0.6257    -1.0468 C.2     
   9 C9             0.4587    -3.4623    -0.3069 C.3     
  10 C10           -1.9793    -3.8361    -0.5738 C.ar    
  11 C11           -2.8117    -3.6317    -1.6567 C.ar    
  12 C12           -3.7833    -4.5728    -1.9729 C.ar    
  13 C13           -3.9157    -5.7178    -1.1991 C.ar    
  14 C14           -3.0799    -5.9185    -0.1153 C.ar    
  15 C15           -2.1080    -4.9800     0.1937 C.ar    
  16 O16           -0.3685    -0.1623     2.6118 O.2     
  17 O17            1.3757    -1.4903     1.4583 O.2     
  18 N18           -4.6273    -4.3668    -3.0692 N.am    
  19 C19           -5.0475    -5.4165    -3.8027 C.2     
  20 O20           -4.6188    -6.5302    -3.5713 O.2     
  21 C21           -6.0301    -5.2133    -4.8892 C.ar    
  22 N22           -6.4939    -3.9937    -5.1362 N.ar    
  23 Cl23          -1.0599    -5.2334     1.5542 Cl      
  24 C24           -7.3671    -3.7676    -6.0916 C.ar    
  25 C25           -7.8411    -4.8087    -6.8853 C.ar    
  26 C26           -7.3789    -6.1022    -6.6577 C.ar    
  27 C27           -6.4557    -6.3038    -5.6477 C.ar    
  28 O28           -8.7438    -4.5655    -7.8693 O.3     
  29 F29           -3.2074    -7.0322     0.6388 F       
  30 C30           -9.1691    -3.2119    -8.0394 C.3     
  31 H31           -9.6363    -2.8595    -7.1197 H       
  32 H32           -8.3070    -2.5866    -8.2716 H       
  33 H33           -9.8884    -3.1570    -8.8564 H       
  34 H34            0.8662     1.8738     0.2667 H       
  35 H35           -0.7342     1.8735    -0.5125 H       
  36 H36           -0.6060     1.7330     1.2573 H       
  37 H37            1.1872     0.5379    -1.9334 H       
  38 H38           -1.6424    -1.7189    -1.9052 H       
  39 H39           -2.1747    -1.8767     1.2627 H       
  40 H40           -1.0450    -3.0953     1.9086 H       
  41 H41            1.2198    -2.7231    -0.0570 H       
  42 H42            0.5112    -4.2908     0.3994 H       
  43 H43            0.6311    -3.8342    -1.3168 H       
  44 H44           -2.7074    -2.7402    -2.2573 H       
  45 H45           -4.6706    -6.4508    -1.4427 H       
  46 H46           -4.9102    -3.4685    -3.3015 H       
  47 H47           -7.7217    -2.7620    -6.2631 H       
  48 H48           -7.7300    -6.9282    -7.2585 H       
  49 H49           -6.0755    -7.2939    -5.4437 H       
@<TRIPOS>BOND
   1    1    7 1
   2    1   34 1
   3    1   35 1
   4    1   36 1
   5    2    8 2
   6    2   37 1
   7    3    4 1
   8    3    8 1
   9    3   38 1
  10    4    5 1
  11    4    9 1
  12    4   10 1
  13    5    6 1
  14    5   39 1
  15    5   40 1
  16    6    7 am
  17    6   16 2
  18    6   17 2
  19    7    8 1
  20    9   41 1
  21    9   42 1
  22    9   43 1
  23   10   11 ar
  24   10   15 ar
  25   11   12 ar
  26   11   44 1
  27   12   13 ar
  28   12   18 1
  29   13   14 ar
  30   13   45 1
  31   14   15 ar
  32   14   29 1
  33   15   23 1
  34   18   19 am
  35   18   46 1
  36   19   20 2
  37   19   21 1
  38   21   22 ar
  39   21   27 ar
  40   22   24 ar
  41   24   25 ar
  42   24   47 1
  43   25   26 ar
  44   25   28 1
  45   26   27 ar
  46   26   48 1
  47   27   49 1
  48   28   30 1
  49   30   31 1
  50   30   32 1
  51   30   33 1

#	End of record

