#	Name: ASD01816016
#	Creating user name:	WinNT
#	Creation time:	15. 06. 2019 19:34

#	Modifying user name:	WinNT
#	Modification time:	15. 06. 2019 19:34

#	Program:	/corina/corina34_cracker 3.40 0067  02.08.2006

@<TRIPOS>MOLECULE
ASD01816016
  38   42    0    0    0
SMALL
NO_CHARGES


@<TRIPOS>ATOM
   1 C1            -0.0132     1.3807     0.1394 C.ar    
   2 C2             0.0055    -0.0047     0.1302 C.ar    
   3 C3             1.2007    -0.6913     0.0723 C.ar    
   4 C4             2.4026     0.0057     0.0228 C.ar    
   5 C5             2.3803     1.4103     0.0323 C.ar    
   6 C6             1.1687     2.0912     0.0904 C.ar    
   7 N7             3.6064    -0.6778    -0.0345 N.pl3   
   8 C8             4.7979    -0.0573    -0.0839 C.2     
   9 C9             4.8991     1.3119    -0.0807 C.2     
  10 C10            3.6669     2.1304    -0.0208 C.2     
  11 C11            5.9946     2.2757    -0.1242 C.2     
  12 N12            5.4217     3.4982    -0.0920 N.am    
  13 N13            4.0309     3.3808    -0.0303 N.2     
  14 C14            6.1222     4.7110    -0.1159 C.ar    
  15 O15            7.1880     2.0267    -0.1784 O.2     
  16 C16            3.5808    -2.0784    -0.0408 C.2     
  17 C17            6.5082     5.2680    -1.3277 C.ar    
  18 C18            7.1988     6.4640    -1.3481 C.ar    
  19 C19            7.5070     7.1077    -0.1635 C.ar    
  20 C20            7.1249     6.5572     1.0460 C.ar    
  21 C21            6.4277     5.3630     1.0739 C.ar    
  22 F22            6.0542     4.8250     2.2556 F       
  23 N23            3.4701    -2.8429    -1.1021 N.2     
  24 C24            3.6750    -2.9104     1.0867 C.2     
  25 C25            3.6111    -4.1927     0.6626 C.2     
  26 N26            3.4847    -4.1789    -0.6813 N.pl3   
  27 H27           -0.9559     1.9060     0.1804 H       
  28 H28           -0.9245    -0.5524     0.1691 H       
  29 H29            1.2027    -1.7712     0.0657 H       
  30 H30            1.1531     3.1711     0.0980 H       
  31 H31            5.6988    -0.6513    -0.1269 H       
  32 H32            6.2689     4.7663    -2.2537 H       
  33 H33            7.4990     6.8972    -2.2908 H       
  34 H34            8.0477     8.0423    -0.1831 H       
  35 H35            7.3674     7.0622     1.9693 H       
  36 H36            3.7800    -2.5839     2.1108 H       
  37 H37            3.6562    -5.0722     1.2879 H       
  38 H38            3.4156    -4.9578    -1.2551 H       
@<TRIPOS>BOND
   1    1    2 ar
   2    1    6 ar
   3    1   27 1
   4    2    3 ar
   5    2   28 1
   6    3    4 ar
   7    3   29 1
   8    4    5 ar
   9    4    7 1
  10    5    6 ar
  11    5   10 1
  12    6   30 1
  13    7    8 1
  14    7   16 1
  15    8    9 2
  16    8   31 1
  17    9   10 1
  18    9   11 1
  19   10   13 2
  20   11   12 am
  21   11   15 2
  22   12   13 1
  23   12   14 1
  24   14   17 ar
  25   14   21 ar
  26   16   23 2
  27   16   24 1
  28   17   18 ar
  29   17   32 1
  30   18   19 ar
  31   18   33 1
  32   19   20 ar
  33   19   34 1
  34   20   21 ar
  35   20   35 1
  36   21   22 1
  37   23   26 1
  38   24   25 2
  39   24   36 1
  40   25   26 1
  41   25   37 1
  42   26   38 1

#	End of record

