#	Name: ASD03731673
#	Creating user name:	WinNT
#	Creation time:	15. 06. 2019 20:46

#	Modifying user name:	WinNT
#	Modification time:	15. 06. 2019 20:46

#	Program:	/corina/corina34_cracker 3.40 0067  02.08.2006

@<TRIPOS>MOLECULE
ASD03731673
  37   38    0    0    0
SMALL
NO_CHARGES


@<TRIPOS>ATOM
   1 C1            -0.4035     1.1034    -1.9621 C.2     
   2 C2            -0.2821    -0.2745    -1.4514 C.ar    
   3 C3             0.9016    -0.9950    -1.6496 C.ar    
   4 C4             1.0105    -2.2845    -1.1691 C.ar    
   5 C5            -0.0518    -2.8666    -0.4907 C.ar    
   6 C6            -1.2312    -2.1533    -0.2918 C.ar    
   7 C7            -1.3469    -0.8633    -0.7624 C.ar    
   8 O8             0.5255     1.6155    -2.5567 O.2     
   9 N9            -1.5461     1.7932    -1.7750 N.am    
  10 S10           -1.6824     3.3407    -2.3486 S.o2    
  11 O11           -2.9846     3.7482    -1.9515 O.2     
  12 O12           -0.5255     4.0010    -1.8540 O.2     
  13 C13           -1.5928     3.1645    -4.1518 C.3     
  14 O14            0.0593    -4.1350    -0.0202 O.3     
  15 C15            1.2617    -4.7566    -0.1396 C.ar    
  16 C16            2.2122    -4.6274     0.8620 C.ar    
  17 C17            3.4376    -5.2632     0.7373 C.ar    
  18 C18            3.7105    -6.0272    -0.3888 C.ar    
  19 C19            2.7619    -6.1544    -1.3853 C.ar    
  20 C20            1.5375    -5.5259    -1.2612 C.ar    
  21 O21            4.3713    -5.1381     1.7169 O.3     
  22 C22            5.6115    -5.8207     1.5218 C.3     
  23 F23           -2.2619    -2.7252     0.3683 F       
  24 F24            1.9353    -0.4295    -2.3105 F       
  25 H25            1.9232    -2.8415    -1.3214 H       
  26 H26           -2.2604    -0.3096    -0.6036 H       
  27 H27           -2.2886     1.3833    -1.3042 H       
  28 H28           -2.4093     2.5296    -4.4959 H       
  29 H29           -1.6753     4.1466    -4.6174 H       
  30 H30           -0.6400     2.7115    -4.4257 H       
  31 H31            1.9982    -4.0322     1.7373 H       
  32 H32            4.6653    -6.5224    -0.4865 H       
  33 H33            2.9762    -6.7493    -2.2608 H       
  34 H34            0.7961    -5.6302    -2.0395 H       
  35 H35            6.0892    -5.4538     0.6134 H       
  36 H36            6.2648    -5.6380     2.3750 H       
  37 H37            5.4265    -6.8908     1.4284 H       
@<TRIPOS>BOND
   1    1    2 1
   2    1    8 2
   3    1    9 am
   4    2    3 ar
   5    2    7 ar
   6    3    4 ar
   7    3   24 1
   8    4    5 ar
   9    4   25 1
  10    5    6 ar
  11    5   14 1
  12    6    7 ar
  13    6   23 1
  14    7   26 1
  15    9   10 am
  16    9   27 1
  17   10   11 2
  18   10   12 2
  19   10   13 1
  20   13   28 1
  21   13   29 1
  22   13   30 1
  23   14   15 1
  24   15   16 ar
  25   15   20 ar
  26   16   17 ar
  27   16   31 1
  28   17   18 ar
  29   17   21 1
  30   18   19 ar
  31   18   32 1
  32   19   20 ar
  33   19   33 1
  34   20   34 1
  35   21   22 1
  36   22   35 1
  37   22   36 1
  38   22   37 1

#	End of record

