#	Name: ASD04880498
#	Creating user name:	WinNT
#	Creation time:	15. 06. 2019 20:53

#	Modifying user name:	WinNT
#	Modification time:	15. 06. 2019 20:53

#	Program:	/corina/corina34_cracker 3.40 0067  02.08.2006

@<TRIPOS>MOLECULE
ASD04880498
  48   50    0    0    0
SMALL
NO_CHARGES


@<TRIPOS>ATOM
   1 C1            -0.0207     1.3739     0.0190 C.ar    
   2 C2            -1.2328     2.0531    -0.0259 C.ar    
   3 C3            -2.4289     1.3463    -0.0633 C.ar    
   4 C4            -2.4176    -0.0308    -0.0559 C.ar    
   5 C5            -1.2014    -0.7174    -0.0113 C.ar    
   6 C6            -0.0007    -0.0027     0.0262 C.ar    
   7 C7            -1.1846    -2.1928    -0.0028 C.2     
   8 N8            -2.3397    -2.8793     0.1020 N.am    
   9 O9            -0.1284    -2.7896    -0.0903 O.2     
  10 N10           -3.5975    -2.3207     0.3199 N.2     
  11 C11           -4.5527    -3.1833     0.3832 C.2     
  12 C12           -3.9905    -4.5742     0.1951 C.3     
  13 C13           -2.4794    -4.3405    -0.0012 C.3     
  14 C14           -5.9745    -2.8633     0.6055 C.ar    
  15 C15           -6.9231    -3.8874     0.6554 C.ar    
  16 C16           -8.2529    -3.5859     0.8635 C.ar    
  17 C17           -8.6516    -2.2671     1.0230 C.ar    
  18 C18           -7.7108    -1.2402     0.9738 C.ar    
  19 C19           -6.3758    -1.5350     0.7724 C.ar    
  20 O20           -8.1058     0.0517     1.1302 O.3     
  21 C21           -7.0882     1.0532     1.0685 C.3     
  22 O22           -9.9635    -1.9755     1.2273 O.3     
  23 C23          -10.8744    -3.0759     1.2660 C.3     
  24 O24           -1.2483     3.4102    -0.0328 O.3     
  25 C25            1.6251     2.6149    -1.3594 C.3     
  26 C26            1.2733     2.1454     0.0536 C.3     
  27 H27           -3.3684     1.8777    -0.0977 H       
  28 H28           -3.3475    -0.5794    -0.0843 H       
  29 H29            0.9415    -0.5297     0.0569 H       
  30 H30           -4.1751    -5.1840     1.0795 H       
  31 H31           -4.4192    -5.0434    -0.6903 H       
  32 H32           -2.1601    -4.6879    -0.9838 H       
  33 H33           -1.9111    -4.8367     0.7855 H       
  34 H34           -6.6155    -4.9152     0.5308 H       
  35 H35           -8.9854    -4.3785     0.9019 H       
  36 H36           -5.6451    -0.7404     0.7393 H       
  37 H37           -6.3541     0.8742     1.8541 H       
  38 H38           -6.5971     1.0127     0.0962 H       
  39 H39           -7.5373     2.0365     1.2081 H       
  40 H40          -10.8377    -3.6114     0.3174 H       
  41 H41          -10.5949    -3.7506     2.0752 H       
  42 H42          -11.8853    -2.7050     1.4350 H       
  43 H43           -1.2224     3.7993    -0.9177 H       
  44 H44            1.7354     1.7495    -2.0129 H       
  45 H45            0.8294     3.2567    -1.7377 H       
  46 H46            2.5611     3.1730    -1.3344 H       
  47 H47            1.1630     3.0108     0.7071 H       
  48 H48            2.0690     1.5036     0.4319 H       
@<TRIPOS>BOND
   1    1    6 ar
   2    1   26 1
   3    1    2 ar
   4    2    3 ar
   5    2   24 1
   6    3    4 ar
   7    3   27 1
   8    4    5 ar
   9    4   28 1
  10    5    6 ar
  11    5    7 1
  12    6   29 1
  13    7    8 am
  14    7    9 2
  15    8   10 1
  16    8   13 1
  17   10   11 2
  18   11   12 1
  19   11   14 1
  20   12   13 1
  21   12   30 1
  22   12   31 1
  23   13   32 1
  24   13   33 1
  25   14   15 ar
  26   14   19 ar
  27   15   16 ar
  28   15   34 1
  29   16   17 ar
  30   16   35 1
  31   17   18 ar
  32   17   22 1
  33   18   19 ar
  34   18   20 1
  35   19   36 1
  36   20   21 1
  37   21   37 1
  38   21   38 1
  39   21   39 1
  40   22   23 1
  41   23   40 1
  42   23   41 1
  43   23   42 1
  44   24   43 1
  45   25   26 1
  46   25   44 1
  47   25   45 1
  48   25   46 1
  49   26   47 1
  50   26   48 1

#	End of record

