#	Name: ASD01880482
#	Creating user name:	WinNT
#	Creation time:	15. 06. 2019 19:40

#	Modifying user name:	WinNT
#	Modification time:	15. 06. 2019 19:40

#	Program:	/corina/corina34_cracker 3.40 0067  02.08.2006

@<TRIPOS>MOLECULE
ASD01880482
  51   54    0    0    0
SMALL
NO_CHARGES


@<TRIPOS>ATOM
   1 N1            -0.3158     1.5114    -0.3901 N.ar    
   2 C2            -0.5289     0.2198    -0.2378 C.ar    
   3 N3             0.4513    -0.6172     0.0377 N.ar    
   4 C4             1.6946    -0.1847     0.1716 C.ar    
   5 C5             1.9583     1.1675     0.0182 C.ar    
   6 C6             0.9017     2.0164    -0.2707 C.ar    
   7 C7             3.3600     1.7017     0.1629 C.3     
   8 O8             4.2692     0.6129     0.3357 O.3     
   9 C9             5.5821     0.9238     0.4817 C.ar    
  10 C10            6.5212    -0.0885     0.6540 C.ar    
  11 C11            7.8490     0.2274     0.8011 C.ar    
  12 C12            8.2656     1.5626     0.7790 C.ar    
  13 C13            7.3184     2.5754     0.6053 C.ar    
  14 C14            5.9882     2.2527     0.4533 C.ar    
  15 C15            9.0921    -0.6032     1.0010 C.3     
  16 N16           10.2088     0.3448     1.0871 N.am    
  17 C17            9.7275     1.5931     0.9585 C.2     
  18 O18           10.4027     2.6038     0.9861 O.2     
  19 C19            1.1360     3.4946    -0.4474 C.3     
  20 C20            0.8802     4.2033     0.8578 C.ar    
  21 C21            1.9300     4.4707     1.7164 C.ar    
  22 C22            1.6954     5.1208     2.9136 C.ar    
  23 C23            0.4110     5.5038     3.2520 C.ar    
  24 C24           -0.6387     5.2371     2.3929 C.ar    
  25 C25           -0.4034     4.5909     1.1938 C.ar    
  26 C26           13.7545    -0.5853     0.1232 C.3     
  27 C27           12.2842    -0.2139    -0.0799 C.3     
  28 C28           11.6166    -0.0108     1.2817 C.3     
  29 H29           -1.5335    -0.1629    -0.3413 H       
  30 H30            2.4932    -0.8758     0.3977 H       
  31 H31            3.6297     2.2617    -0.7325 H       
  32 H32            3.4106     2.3586     1.0313 H       
  33 H33            6.2058    -1.1212     0.6723 H       
  34 H34            7.6294     3.6095     0.5872 H       
  35 H35            5.2567     3.0358     0.3187 H       
  36 H36            9.0152    -1.1765     1.9250 H       
  37 H37            9.2347    -1.2742     0.1539 H       
  38 H38            2.1671     3.6645    -0.7571 H       
  39 H39            0.4593     3.8811    -1.2094 H       
  40 H40            2.9335     4.1715     1.4520 H       
  41 H41            2.5155     5.3291     3.5847 H       
  42 H42            0.2276     6.0110     4.1876 H       
  43 H43           -1.6422     5.5361     2.6575 H       
  44 H44           -1.2235     4.3826     0.5226 H       
  45 H45           14.2609     0.2167     0.6602 H       
  46 H46           13.8198    -1.5072     0.7011 H       
  47 H47           14.2301    -0.7300    -0.8468 H       
  48 H48           12.2188     0.7080    -0.6578 H       
  49 H49           11.7777    -1.0160    -0.6169 H       
  50 H50           12.1231     0.7912     1.8186 H       
  51 H51           11.6820    -0.9327     1.8595 H       
@<TRIPOS>BOND
   1    1    2 ar
   2    1    6 ar
   3    2    3 ar
   4    2   29 1
   5    3    4 ar
   6    4    5 ar
   7    4   30 1
   8    5    6 ar
   9    5    7 1
  10    6   19 1
  11    7    8 1
  12    7   31 1
  13    7   32 1
  14    8    9 1
  15    9   10 ar
  16    9   14 ar
  17   10   11 ar
  18   10   33 1
  19   11   12 ar
  20   11   15 1
  21   12   13 ar
  22   12   17 1
  23   13   14 ar
  24   13   34 1
  25   14   35 1
  26   15   16 1
  27   15   36 1
  28   15   37 1
  29   16   17 am
  30   16   28 1
  31   17   18 2
  32   19   20 1
  33   19   38 1
  34   19   39 1
  35   20   21 ar
  36   20   25 ar
  37   21   22 ar
  38   21   40 1
  39   22   23 ar
  40   22   41 1
  41   23   24 ar
  42   23   42 1
  43   24   25 ar
  44   24   43 1
  45   25   44 1
  46   26   27 1
  47   26   45 1
  48   26   46 1
  49   26   47 1
  50   27   28 1
  51   27   48 1
  52   27   49 1
  53   28   50 1
  54   28   51 1

#	End of record

