#	Name: ASD01411066
#	Creating user name:	WinNT
#	Creation time:	15. 06. 2019 19:19

#	Modifying user name:	WinNT
#	Modification time:	15. 06. 2019 19:19

#	Program:	/corina/corina34_cracker 3.40 0067  02.08.2006

@<TRIPOS>MOLECULE
ASD01411066
  65   70    0    0    0
SMALL
NO_CHARGES


@<TRIPOS>ATOM
   1 C1             1.2771     1.3983    -1.1999 C.ar    
   2 C2             1.2937     0.0174    -1.2046 C.ar    
   3 C3             1.1769     2.0866     0.0020 C.ar    
   4 C4             1.2102    -0.6808    -0.0139 C.ar    
   5 C5             1.0937     1.3842     1.1962 C.ar    
   6 N6             1.1604     3.4878     0.0092 N.am    
   7 C7             1.1098     0.0017     1.1857 C.ar    
   8 C8            -0.0209     4.1363    -0.0735 C.2     
   9 C9             2.3176     4.1584     0.1037 C.2     
  10 Cl10           1.0046    -0.8784     2.6783 Cl      
  11 C11           -0.0108     5.6070    -0.0584 C.ar    
  12 O12           -1.0664     3.5203    -0.1587 O.2     
  13 N13            2.3880     5.5033     0.1160 N.am    
  14 O14            3.3512     3.5230     0.1821 O.2     
  15 C15            1.2310     6.2662     0.0390 C.ar    
  16 C16           -1.1927     6.3434    -0.1381 C.ar    
  17 C17            1.2633     7.6483     0.0609 C.ar    
  18 C18           -1.1452     7.7085    -0.1194 C.ar    
  19 C19            0.0787     8.3693    -0.0185 C.ar    
  20 N20            0.1136     9.7595     0.0009 N.pl3   
  21 C21           -1.1327    10.5247    -0.0845 C.3     
  22 C22            3.7005     6.1501     0.2074 C.3     
  23 C23            2.5796     8.3754     0.1712 C.3     
  24 C24            3.5683     7.4867     0.9400 C.3     
  25 C25           -0.9339    11.8999     0.5589 C.3     
  26 C26           -2.2197    12.7168     0.4126 C.3     
  27 N27           -2.5474    12.8654    -1.0110 N.3     
  28 C28           -2.7893    11.5603    -1.6393 C.3     
  29 C29           -1.5205    10.7089    -1.5543 C.3     
  30 C30           -3.8526    14.0836    -2.6595 C.ar    
  31 C31           -4.6402    13.2826    -3.4651 C.ar    
  32 C32           -4.7866    13.5828    -4.8065 C.ar    
  33 C33           -4.1458    14.6843    -5.3422 C.ar    
  34 C34           -3.3590    15.4859    -4.5364 C.ar    
  35 C35           -3.2115    15.1849    -3.1953 C.ar    
  36 C36           -3.6980    13.7599    -1.1958 C.3     
  37 H37            1.3465     1.9426    -2.1301 H       
  38 H38            1.3715    -0.5179    -2.1393 H       
  39 H39            1.2229    -1.7607    -0.0202 H       
  40 H40            1.0157     1.9168     2.1325 H       
  41 H41           -2.1428     5.8357    -0.2149 H       
  42 H42           -2.0602     8.2789    -0.1824 H       
  43 H43            0.9631    10.2224     0.0710 H       
  44 H44           -1.9255     9.9893     0.4380 H       
  45 H45            4.3862     5.5031     0.7545 H       
  46 H46            4.0898     6.3236    -0.7959 H       
  47 H47            2.9646     8.5871    -0.8263 H       
  48 H48            2.4368     9.3088     0.7155 H       
  49 H49            3.1995     7.3216     1.9523 H       
  50 H50            4.5423     7.9742     0.9799 H       
  51 H51           -0.6994    11.7765     1.6162 H       
  52 H52           -0.1144    12.4191     0.0620 H       
  53 H53           -3.0358    12.2039     0.9216 H       
  54 H54           -2.0767    13.7018     0.8571 H       
  55 H55           -3.6027    11.0528    -1.1207 H       
  56 H56           -3.0600    11.7053    -2.6851 H       
  57 H57           -0.7102    11.2093    -2.0844 H       
  58 H58           -1.7051     9.7346    -2.0067 H       
  59 H59           -5.1408    12.4220    -3.0466 H       
  60 H60           -5.4013    12.9565    -5.4360 H       
  61 H61           -4.2596    14.9184    -6.3903 H       
  62 H62           -2.8578    16.3461    -4.9551 H       
  63 H63           -2.5961    15.8107    -2.5659 H       
  64 H64           -4.6017    13.2688    -0.8349 H       
  65 H65           -3.5362    14.6806    -0.6352 H       
@<TRIPOS>BOND
   1    1    2 ar
   2    1    3 ar
   3    1   37 1
   4    2    4 ar
   5    2   38 1
   6    3    5 ar
   7    3    6 1
   8    4    7 ar
   9    4   39 1
  10    5    7 ar
  11    5   40 1
  12    6    9 am
  13    6    8 am
  14    7   10 1
  15    8   11 1
  16    8   12 2
  17    9   13 am
  18    9   14 2
  19   11   15 ar
  20   11   16 ar
  21   13   22 1
  22   13   15 1
  23   15   17 ar
  24   16   18 ar
  25   16   41 1
  26   17   23 1
  27   17   19 ar
  28   18   19 ar
  29   18   42 1
  30   19   20 1
  31   20   21 1
  32   20   43 1
  33   21   25 1
  34   21   29 1
  35   21   44 1
  36   22   24 1
  37   22   45 1
  38   22   46 1
  39   23   24 1
  40   23   47 1
  41   23   48 1
  42   24   49 1
  43   24   50 1
  44   25   26 1
  45   25   51 1
  46   25   52 1
  47   26   27 1
  48   26   53 1
  49   26   54 1
  50   27   28 1
  51   27   36 1
  52   28   29 1
  53   28   55 1
  54   28   56 1
  55   29   57 1
  56   29   58 1
  57   30   31 ar
  58   30   35 ar
  59   30   36 1
  60   31   32 ar
  61   31   59 1
  62   32   33 ar
  63   32   60 1
  64   33   34 ar
  65   33   61 1
  66   34   35 ar
  67   34   62 1
  68   35   63 1
  69   36   64 1
  70   36   65 1

#	End of record

