#	Name: ASD01913823
#	Creating user name:	WinNT
#	Creation time:	15. 06. 2019 20:02

#	Modifying user name:	WinNT
#	Modification time:	15. 06. 2019 20:02

#	Program:	/corina/corina34_cracker 3.40 0067  02.08.2006

@<TRIPOS>MOLECULE
ASD01913823
  41   43    0    0    0
SMALL
NO_CHARGES


@<TRIPOS>ATOM
   1 C1            -0.0232     1.4277    -0.0311 C.ar    
   2 C2            -0.0022    -0.0041    -0.0268 C.1     
   3 C3             0.0151    -1.1780    -0.0232 C.1     
   4 C4             0.0362    -2.6098    -0.0189 C.ar    
   5 C5            -1.1341    -3.3384     0.2417 C.ar    
   6 C6             0.1560    -5.3344    -0.0280 C.ar    
   7 N7             1.2425    -4.6188    -0.2766 N.ar    
   8 C8             1.2207    -3.3022    -0.2796 C.ar    
   9 C9            -1.0632    -4.7170     0.2348 C.ar    
  10 C10            1.1415     2.1546    -0.2905 C.ar    
  11 N11            1.1229     3.4712    -0.2941 N.ar    
  12 C12            0.0194     4.1538    -0.0569 C.ar    
  13 C13           -1.1780     3.5084     0.2091 C.ar    
  14 C14           -1.2135     2.1236     0.2189 C.ar    
  15 N15            0.2331    -6.7250    -0.0374 N.am    
  16 C16           -0.8140    -7.5604    -0.0332 C.2     
  17 N17           -0.4748    -8.8562    -0.0443 N.am    
  18 C18            0.9911    -8.9718    -0.0583 C.3     
  19 C19            1.4768    -7.5093    -0.0600 C.3     
  20 O20           -1.9677    -7.1772    -0.0199 O.2     
  21 C21           -1.4149    -9.9797    -0.0429 C.3     
  22 C22            1.4839    -9.7054     1.1906 C.3     
  23 C23            1.4611    -9.6897    -1.3251 C.3     
  24 F24           -2.2994     4.2220     0.4509 F       
  25 H25           -2.0672    -2.8333     0.4430 H       
  26 H26            2.1272    -2.7526    -0.4860 H       
  27 H27           -1.9442    -5.3099     0.4316 H       
  28 H28            2.0654     1.6319    -0.4893 H       
  29 H29            0.0495     5.2333    -0.0699 H       
  30 H30           -2.1326     1.5942     0.4228 H       
  31 H31            2.0525    -7.2983    -0.9612 H       
  32 H32            2.0694    -7.3019     0.8311 H       
  33 H33           -2.4362    -9.5989    -0.0317 H       
  34 H34           -1.2618   -10.5828    -0.9378 H       
  35 H35           -1.2463   -10.5934     0.8420 H       
  36 H36            1.0712   -10.7141     1.2060 H       
  37 H37            2.5725    -9.7585     1.1750 H       
  38 H38            1.1592    -9.1663     2.0805 H       
  39 H39            1.1204    -9.1395    -2.2022 H       
  40 H40            2.5498    -9.7428    -1.3299 H       
  41 H41            1.0480   -10.6981    -1.3457 H       
@<TRIPOS>BOND
   1    1    2 1
   2    1   10 ar
   3    1   14 ar
   4    2    3 3
   5    3    4 1
   6    4    5 ar
   7    4    8 ar
   8    5    9 ar
   9    5   25 1
  10    6    7 ar
  11    6   15 1
  12    6    9 ar
  13    7    8 ar
  14    8   26 1
  15    9   27 1
  16   10   11 ar
  17   10   28 1
  18   11   12 ar
  19   12   13 ar
  20   12   29 1
  21   13   14 ar
  22   13   24 1
  23   14   30 1
  24   15   16 am
  25   15   19 1
  26   16   17 am
  27   16   20 2
  28   17   18 1
  29   17   21 1
  30   18   19 1
  31   18   22 1
  32   18   23 1
  33   19   31 1
  34   19   32 1
  35   21   33 1
  36   21   34 1
  37   21   35 1
  38   22   36 1
  39   22   37 1
  40   22   38 1
  41   23   39 1
  42   23   40 1
  43   23   41 1

#	End of record

