#	Name: ASD01912851
#	Creating user name:	WinNT
#	Creation time:	15. 06. 2019 20:00

#	Modifying user name:	WinNT
#	Modification time:	15. 06. 2019 20:00

#	Program:	/corina/corina34_cracker 3.40 0067  02.08.2006

@<TRIPOS>MOLECULE
ASD01912851
  45   48    0    0    0
SMALL
NO_CHARGES


@<TRIPOS>ATOM
   1 C1            -0.0165     1.3669     0.0096 C.2     
   2 N2             0.0021    -0.0041     0.0020 N.pl3   
   3 C3            -1.2022    -0.6920     0.0094 C.2     
   4 C4            -2.3629    -0.0496     0.0231 C.2     
   5 N5            -2.4358     1.3308     0.0307 N.am    
   6 C6            -1.3019     2.0668     0.0309 C.2     
   7 C7             1.3015     1.7837    -0.0008 C.2     
   8 C8             2.0550     0.6111    -0.0143 C.2     
   9 N9             1.2243    -0.4045    -0.0118 N.2     
  10 O10           -1.3488     3.2837     0.0376 O.2     
  11 C11           -3.6805     1.9648     0.0443 C.ar    
  12 C12            3.5595     0.5249    -0.0295 C.3     
  13 O13            4.1121     1.8428    -0.0282 O.3     
  14 C14            5.4673     1.9435    -0.0410 C.ar    
  15 C15            6.0712     3.1925    -0.0405 C.ar    
  16 C16            7.4489     3.2923    -0.0536 C.ar    
  17 C17            8.2260     2.1487    -0.0672 C.ar    
  18 C18            7.6265     0.9027    -0.0682 C.ar    
  19 C19            6.2492     0.7976    -0.0489 C.ar    
  20 N20           -3.7526     3.2867    -0.0486 N.ar    
  21 C21           -4.8428     1.2108     0.1492 C.ar    
  22 N22           -6.0204     1.8098     0.1616 N.ar    
  23 C23           -6.0929     3.1318     0.0739 C.ar    
  24 C24           -4.9284     3.8863    -0.0363 C.ar    
  25 N25           -7.3332     3.7635     0.0865 N.pl3   
  26 C26           -7.4201     5.2112    -0.1202 C.3     
  27 C27           -8.5518     2.9806     0.3064 C.3     
  28 H28           -1.1950    -1.7719     0.0035 H       
  29 H29           -3.2785    -0.6225     0.0281 H       
  30 H30            1.6685     2.7994     0.0008 H       
  31 H31            3.9016    -0.0134     0.8543 H       
  32 H32            3.8840    -0.0042    -0.9255 H       
  33 H33            5.4647     4.0861    -0.0302 H       
  34 H34            7.9195     4.2644    -0.0536 H       
  35 H35            9.3029     2.2288    -0.0775 H       
  36 H36            8.2356     0.0109    -0.0796 H       
  37 H37            5.7814    -0.1759    -0.0497 H       
  38 H38           -4.7837     0.1347     0.2202 H       
  39 H39           -4.9868     4.9624    -0.1074 H       
  40 H40           -7.5282     5.4205    -1.1845 H       
  41 H41           -8.2836     5.6038     0.4168 H       
  42 H42           -6.5131     5.6866     0.2532 H       
  43 H43           -8.4971     2.4883     1.2774 H       
  44 H44           -9.4179     3.6420     0.2826 H       
  45 H45           -8.6471     2.2288    -0.4772 H       
@<TRIPOS>BOND
   1    1    2 1
   2    1    7 2
   3    1    6 1
   4    2    3 1
   5    2    9 1
   6    3    4 2
   7    3   28 1
   8    4    5 1
   9    4   29 1
  10    5    6 am
  11    5   11 1
  12    6   10 2
  13    7    8 1
  14    7   30 1
  15    8    9 2
  16    8   12 1
  17   11   20 ar
  18   11   21 ar
  19   12   13 1
  20   12   31 1
  21   12   32 1
  22   13   14 1
  23   14   15 ar
  24   14   19 ar
  25   15   16 ar
  26   15   33 1
  27   16   17 ar
  28   16   34 1
  29   17   18 ar
  30   17   35 1
  31   18   19 ar
  32   18   36 1
  33   19   37 1
  34   20   24 ar
  35   21   22 ar
  36   21   38 1
  37   22   23 ar
  38   23   24 ar
  39   23   25 1
  40   24   39 1
  41   25   26 1
  42   25   27 1
  43   26   40 1
  44   26   41 1
  45   26   42 1
  46   27   43 1
  47   27   44 1
  48   27   45 1

#	End of record

