#	Name: ASD07931774
#	Creating user name:	WinNT
#	Creation time:	15. 06. 2019 21:13

#	Modifying user name:	WinNT
#	Modification time:	15. 06. 2019 21:13

#	Program:	/corina/corina34_cracker 3.40 0067  02.08.2006

@<TRIPOS>MOLECULE
ASD07931774
  59   63    0    0    0
SMALL
NO_CHARGES


@<TRIPOS>ATOM
   1 C1            -0.0180     1.4754     0.0102 C.2     
   2 C2             0.0021    -0.0041     0.0020 C.2     
   3 N3             1.1814     2.1509     0.0023 N.am    
   4 N4             1.1194    -0.6400     0.4288 N.am    
   5 C5             2.2493     0.1650     0.9143 C.3     
   6 C6             2.4261     1.3707    -0.0208 C.3     
   7 C7            -1.2008     2.1485     0.0195 C.2     
   8 C8            -1.2247     3.5486     0.0291 C.2     
   9 C9            -0.0458     4.2425     0.0303 C.2     
  10 C10            1.2139     3.4948     0.0143 C.2     
  11 O11           -0.9642    -0.6358    -0.3794 O.2     
  12 O12            2.2807     4.0852     0.0118 O.2     
  13 C13            0.4239     6.4402     1.0348 C.2     
  14 N14            0.2552     7.6848     0.6804 N.2     
  15 C15           -0.3161     7.7283    -0.5326 C.2     
  16 C16           -0.5113     6.4636    -0.9513 C.2     
  17 N17           -0.0431     5.6402     0.0404 N.pl3   
  18 C18           -0.6774     8.9771    -1.2948 C.3     
  19 C19            1.2002    -2.1026     0.4064 C.3     
  20 C20            1.7676    -2.5615    -0.9383 C.3     
  21 C21            1.9689    -4.0780    -0.9162 C.3     
  22 C22            0.6257    -4.7671    -0.6675 C.3     
  23 C23           -0.3514    -4.3986    -1.7858 C.3     
  24 C24           -0.5526    -2.8821    -1.8079 C.3     
  25 C25            0.7906    -2.1929    -2.0566 C.3     
  26 C26            0.8239    -6.2609    -0.6456 C.ar    
  27 C27            0.4994    -6.9844     0.4868 C.ar    
  28 C28            0.6810    -8.3544     0.5074 C.ar    
  29 C29            1.1876    -9.0017    -0.6055 C.ar    
  30 C30            1.5121    -8.2770    -1.7385 C.ar    
  31 C31            1.3248    -6.9078    -1.7600 C.ar    
  32 Cl32           1.4164   -10.7223    -0.5802 Cl      
  33 H33            2.0426     0.5136     1.9261 H       
  34 H34            3.1572    -0.4381     0.9099 H       
  35 H35            2.6247     1.0242    -1.0350 H       
  36 H36            3.2543     1.9881     0.3270 H       
  37 H37           -2.1297     1.5976     0.0190 H       
  38 H38           -2.1668     4.0767     0.0353 H       
  39 H39            0.8650     6.1025     1.9610 H       
  40 H40           -0.9521     6.1566    -1.8883 H       
  41 H41            0.1651     9.2797    -1.9167 H       
  42 H42           -1.5430     8.7793    -1.9270 H       
  43 H43           -0.9156     9.7756    -0.5921 H       
  44 H44            1.8522    -2.4428     1.2110 H       
  45 H45            0.2042    -2.5236     0.5432 H       
  46 H46            2.7245    -2.0705    -1.1155 H       
  47 H47            2.3731    -4.4049    -1.8742 H       
  48 H48            2.6649    -4.3405    -0.1195 H       
  49 H49            0.2214    -4.4402     0.2905 H       
  50 H50            0.0529    -4.7255    -2.7438 H       
  51 H51           -1.3083    -4.8896    -1.6086 H       
  52 H52           -1.2486    -2.6195    -2.6046 H       
  53 H53           -0.9568    -2.5551    -0.8499 H       
  54 H54            0.6472    -1.1125    -2.0724 H       
  55 H55            1.1948    -2.5199    -3.0146 H       
  56 H56            0.1044    -6.4790     1.3556 H       
  57 H57            0.4278    -8.9195     1.3922 H       
  58 H58            1.9075    -8.7817    -2.6076 H       
  59 H59            1.5739    -6.3425    -2.6459 H       
@<TRIPOS>BOND
   1    1    2 1
   2    1    3 1
   3    1    7 2
   4    2    4 am
   5    2   11 2
   6    3    6 1
   7    3   10 am
   8    4    5 1
   9    4   19 1
  10    5    6 1
  11    5   33 1
  12    5   34 1
  13    6   35 1
  14    6   36 1
  15    7    8 1
  16    7   37 1
  17    8    9 2
  18    8   38 1
  19    9   10 1
  20    9   17 1
  21   10   12 2
  22   13   14 2
  23   13   17 1
  24   13   39 1
  25   14   15 1
  26   15   16 2
  27   15   18 1
  28   16   17 1
  29   16   40 1
  30   18   41 1
  31   18   42 1
  32   18   43 1
  33   19   20 1
  34   19   44 1
  35   19   45 1
  36   20   21 1
  37   20   25 1
  38   20   46 1
  39   21   22 1
  40   21   47 1
  41   21   48 1
  42   22   23 1
  43   22   26 1
  44   22   49 1
  45   23   24 1
  46   23   50 1
  47   23   51 1
  48   24   25 1
  49   24   52 1
  50   24   53 1
  51   25   54 1
  52   25   55 1
  53   26   27 ar
  54   26   31 ar
  55   27   28 ar
  56   27   56 1
  57   28   29 ar
  58   28   57 1
  59   29   30 ar
  60   29   32 1
  61   30   31 ar
  62   30   58 1
  63   31   59 1

#	End of record

