#	Name: ASD02560434
#	Creating user name:	WinNT
#	Creation time:	15. 06. 2019 20:25

#	Modifying user name:	WinNT
#	Modification time:	15. 06. 2019 20:25

#	Program:	/corina/corina34_cracker 3.40 0067  02.08.2006

@<TRIPOS>MOLECULE
ASD02560434
  40   43    0    0    0
SMALL
NO_CHARGES


@<TRIPOS>ATOM
   1 C1             0.2508     1.8089     1.2579 C.2     
   2 C2             0.1198     0.4126     1.1527 C.2     
   3 C3             1.1678    -0.3428     0.7680 C.2     
   4 N4             2.3735     0.2358     0.4748 N.pl3   
   5 C5             2.5317     1.5996     0.5688 C.2     
   6 C6             1.4407     2.3996     0.9701 C.2     
   7 C7             3.5710    -0.2859     0.0702 C.2     
   8 C8             4.4398     0.7752    -0.0753 C.2     
   9 N9             3.7754     1.9034     0.2355 N.2     
  10 C10            5.8570     0.6882    -0.4989 C.ar    
  11 N11            3.8589    -1.6331    -0.1521 N.3     
  12 C12            2.6433    -2.4530    -0.0618 C.3     
  13 C13            2.8294    -3.7602    -0.8519 C.3     
  14 C14            6.3165     1.4550    -1.5703 C.ar    
  15 C15            7.6386     1.3692    -1.9601 C.ar    
  16 C16            2.3862    -2.8572     1.4046 C.3     
  17 C17            1.8370    -4.3023     1.3096 C.3     
  18 C18            2.6789    -4.9132     0.1619 C.3     
  19 C19            6.7393    -0.1568     0.1755 C.ar    
  20 C20            8.0590    -0.2333    -0.2244 C.ar    
  21 C21            8.5068     0.5253    -1.2909 C.ar    
  22 Cl22           5.2285     2.5142    -2.4117 Cl      
  23 Cl23           6.1794    -1.1092     1.5146 Cl      
  24 H24           -0.5929     2.4106     1.5622 H       
  25 H25           -0.8255    -0.0570     1.3816 H       
  26 H26            1.0555    -1.4142     0.6907 H       
  27 H27            1.5504     3.4711     1.0486 H       
  28 H28            4.3174    -1.7630    -1.0414 H       
  29 H29            1.7897    -1.8990    -0.4523 H       
  30 H30            2.0655    -3.8410    -1.6253 H       
  31 H31            3.8216    -3.7862    -1.3024 H       
  32 H32            7.9954     1.9620    -2.7894 H       
  33 H33            3.3156    -2.8390     1.9739 H       
  34 H34            1.6469    -2.1972     1.8583 H       
  35 H35            2.0055    -4.8417     2.2416 H       
  36 H36            0.7780    -4.2969     1.0512 H       
  37 H37            2.1531    -5.7535    -0.2914 H       
  38 H38            3.6555    -5.2270     0.5305 H       
  39 H39            8.7429    -0.8869     0.2968 H       
  40 H40            9.5396     0.4613    -1.6001 H       
@<TRIPOS>BOND
   1    1    2 1
   2    1    6 2
   3    1   24 1
   4    2    3 2
   5    2   25 1
   6    3    4 1
   7    3   26 1
   8    4    5 1
   9    4    7 1
  10    5    6 1
  11    5    9 2
  12    6   27 1
  13    7    8 2
  14    7   11 1
  15    8    9 1
  16    8   10 1
  17   10   19 ar
  18   10   14 ar
  19   11   12 1
  20   11   28 1
  21   12   13 1
  22   12   16 1
  23   12   29 1
  24   13   18 1
  25   13   30 1
  26   13   31 1
  27   14   22 1
  28   14   15 ar
  29   15   21 ar
  30   15   32 1
  31   16   17 1
  32   16   33 1
  33   16   34 1
  34   17   18 1
  35   17   35 1
  36   17   36 1
  37   18   37 1
  38   18   38 1
  39   19   20 ar
  40   19   23 1
  41   20   21 ar
  42   20   39 1
  43   21   40 1

#	End of record

