#	Name: ASD07860001
#	Creating user name:	WinNT
#	Creation time:	15. 06. 2019 21:11

#	Modifying user name:	WinNT
#	Modification time:	15. 06. 2019 21:11

#	Program:	/corina/corina34_cracker 3.40 0067  02.08.2006

@<TRIPOS>MOLECULE
ASD07860001
  63   62    0    0    0
SMALL
NO_CHARGES


@<TRIPOS>ATOM
   1 C1            -0.0162     1.3436     0.0094 C.2     
   2 N2             0.0021    -0.0041     0.0020 N.am    
   3 H3             0.9117     1.8962     0.0035 H       
   4 O4            -1.0746     1.9356     0.0177 O.2     
   5 C5            -1.2565    -0.7538     0.0100 C.3     
   6 C6            -2.0518    -0.4018     1.2688 C.3     
   7 C7            -2.0757    -0.3884    -1.2295 C.3     
   8 O8            -1.3383    -0.8486     2.4235 O.3     
   9 O9            -3.3034    -1.1197    -1.2217 O.3     
  10 C10           -1.2924    -0.7351    -2.4694 C.2     
  11 P11           -1.8832    -0.6441     3.9246 P.3     
  12 O12           -3.1981    -1.4732     4.1203 O.co2   
  13 O13           -0.8000    -1.1343     4.9447 O.co2   
  14 O14           -2.1819     0.8742     4.1694 O.co2   
  15 C15           -1.8183    -1.5172    -3.3791 C.2     
  16 C16           -1.0350    -1.8639    -4.6190 C.3     
  17 C17           -0.9495    -3.3850    -4.7596 C.3     
  18 C18           -0.1543    -3.7370    -6.0184 C.3     
  19 C19           -0.0688    -5.2581    -6.1589 C.3     
  20 C20            0.7265    -5.6101    -7.4177 C.3     
  21 C21            0.8120    -7.1312    -7.5583 C.3     
  22 C22            1.6073    -7.4831    -8.8171 C.3     
  23 C23            1.6928    -9.0043    -8.9577 C.3     
  24 C24            2.4881    -9.3562   -10.2164 C.3     
  25 C25            2.5736   -10.8773   -10.3570 C.3     
  26 C26            3.3688   -11.2293   -11.6158 C.3     
  27 C27            3.4543   -12.7504   -11.7564 C.3     
  28 C28            4.2496   -13.1024   -13.0152 C.3     
  29 H29            0.8486    -0.4776    -0.0086 H       
  30 H30           -1.0429    -1.8226     0.0022 H       
  31 H31           -2.1889     0.6782     1.3218 H       
  32 H32           -3.0255    -0.8903     1.2318 H       
  33 H33           -2.2894     0.6804    -1.2217 H       
  34 H34           -3.1893    -2.0799    -1.2280 H       
  35 H35           -0.2973    -0.3386    -2.6080 H       
  36 H36           -2.8134    -1.9137    -3.2406 H       
  37 H37           -1.5344    -1.4458    -5.4930 H       
  38 H38           -0.0300    -1.4491    -4.5416 H       
  39 H39           -0.4502    -3.8032    -3.8856 H       
  40 H40           -1.9545    -3.7998    -4.8369 H       
  41 H41           -0.6536    -3.3188    -6.8924 H       
  42 H42            0.8508    -3.3222    -5.9410 H       
  43 H43            0.4306    -5.6763    -5.2849 H       
  44 H44           -1.0738    -5.6729    -6.2363 H       
  45 H45            0.2272    -5.1919    -8.2917 H       
  46 H46            1.7315    -5.1953    -7.3404 H       
  47 H47            1.3114    -7.5493    -6.6843 H       
  48 H48           -0.1930    -7.5460    -7.6356 H       
  49 H49            1.1079    -7.0650    -9.6911 H       
  50 H50            2.6123    -7.0683    -8.7397 H       
  51 H51            2.1922    -9.4224    -8.0836 H       
  52 H52            0.6878    -9.4191    -9.0350 H       
  53 H53            1.9887    -8.9381   -11.0905 H       
  54 H54            3.4931    -8.9414   -10.1391 H       
  55 H55            3.0729   -11.2955    -9.4830 H       
  56 H56            1.5685   -11.2921   -10.4344 H       
  57 H57            2.8695   -10.8111   -12.4898 H       
  58 H58            4.3739   -10.8145   -11.5385 H       
  59 H59            3.9537   -13.1686   -10.8824 H       
  60 H60            2.4493   -13.1652   -11.8337 H       
  61 H61            4.3105   -14.1861   -13.1153 H       
  62 H62            3.7502   -12.6842   -13.8892 H       
  63 H63            5.2546   -12.6876   -12.9378 H       
@<TRIPOS>BOND
   1    1    2 am
   2    1    3 1
   3    1    4 2
   4    2    5 1
   5    2   29 1
   6    5    6 1
   7    5    7 1
   8    5   30 1
   9    6    8 1
  10    6   31 1
  11    6   32 1
  12    7    9 1
  13    7   10 1
  14    7   33 1
  15    8   11 1
  16    9   34 1
  17   10   15 2
  18   10   35 1
  19   11   12 ar
  20   11   13 ar
  21   11   14 ar
  22   15   16 1
  23   15   36 1
  24   16   17 1
  25   16   37 1
  26   16   38 1
  27   17   18 1
  28   17   39 1
  29   17   40 1
  30   18   19 1
  31   18   41 1
  32   18   42 1
  33   19   20 1
  34   19   43 1
  35   19   44 1
  36   20   21 1
  37   20   45 1
  38   20   46 1
  39   21   22 1
  40   21   47 1
  41   21   48 1
  42   22   23 1
  43   22   49 1
  44   22   50 1
  45   23   24 1
  46   23   51 1
  47   23   52 1
  48   24   25 1
  49   24   53 1
  50   24   54 1
  51   25   26 1
  52   25   55 1
  53   25   56 1
  54   26   27 1
  55   26   57 1
  56   26   58 1
  57   27   28 1
  58   27   59 1
  59   27   60 1
  60   28   61 1
  61   28   62 1
  62   28   63 1

#	End of record

