#	Name: ASD01885042
#	Creating user name:	WinNT
#	Creation time:	15. 06. 2019 19:49

#	Modifying user name:	WinNT
#	Modification time:	15. 06. 2019 19:49

#	Program:	/corina/corina34_cracker 3.40 0067  02.08.2006

@<TRIPOS>MOLECULE
ASD01885042
  46   50    0    0    0
SMALL
NO_CHARGES


@<TRIPOS>ATOM
   1 C1            -0.0170     1.4017     0.0097 C.2     
   2 C2             0.0021    -0.0041     0.0020 C.2     
   3 C3             1.2066    -0.6546    -0.0130 C.2     
   4 C4             2.4029     0.0947    -0.0204 C.2     
   5 C5             2.3612     1.4415    -0.0128 C.2     
   6 N6             1.1660     2.0999     0.0022 N.pl3   
   7 N7            -0.4862     3.4820     0.0225 N.2     
   8 N8            -0.9913     2.2987     0.0185 N.2     
   9 C9             0.8193     3.4189     0.0121 C.2     
  10 N10            1.2514    -2.0467    -0.0204 N.pl3   
  11 C11            2.5429    -2.7380    -0.0365 C.3     
  12 C12            2.3119    -4.2504    -0.0418 C.3     
  13 C13            3.5427    -5.1535     0.0599 C.3     
  14 C14            2.7893    -5.0337    -1.2664 C.3     
  15 C15            3.3988    -6.4420     0.8280 C.ar    
  16 C16            4.1909    -6.6777     1.9362 C.ar    
  17 C17            4.0594    -7.8588     2.6417 C.ar    
  18 C18            3.1340    -8.8062     2.2381 C.ar    
  19 C19            2.3412    -8.5691     1.1279 C.ar    
  20 C20            2.4707    -7.3850     0.4272 C.ar    
  21 F21            3.0049    -9.9614     2.9266 F       
  22 C22            1.7682     4.5897     0.0127 C.3     
  23 C23            2.0997     4.9769     1.4553 C.3     
  24 C24            3.1440     6.0743     1.6700 C.3     
  25 C25            1.6647     6.3640     1.9323 C.3     
  26 Cl26          -1.4827    -0.9035     0.0119 Cl      
  27 H27            3.3557    -0.4137    -0.0319 H       
  28 H28            3.2824     2.0052    -0.0182 H       
  29 H29            0.4274    -2.5585    -0.0150 H       
  30 H30            3.0970    -2.4519    -0.9305 H       
  31 H31            3.1144    -2.4609     0.8494 H       
  32 H32            1.3980    -4.5883     0.4468 H       
  33 H33            4.5171    -4.6701     0.1307 H       
  34 H34            2.1896    -5.8868    -1.5833 H       
  35 H35            3.2681    -4.4715    -2.0681 H       
  36 H36            4.9129    -5.9386     2.2507 H       
  37 H37            4.6786    -8.0428     3.5072 H       
  38 H38            1.6190    -9.3075     0.8122 H       
  39 H39            1.8496    -7.1981    -0.4363 H       
  40 H40            2.6846     4.3150    -0.5096 H       
  41 H41            1.3018     5.4356    -0.4925 H       
  42 H42            2.0690     4.1627     2.1794 H       
  43 H43            3.8000     5.9823     2.5356 H       
  44 H44            3.5948     6.5205     0.7836 H       
  45 H45            1.1423     7.0008     1.2183 H       
  46 H46            1.3475     6.4626     2.9704 H       
@<TRIPOS>BOND
   1    1    2 1
   2    1    6 1
   3    1    8 2
   4    2    3 2
   5    2   26 1
   6    3    4 1
   7    3   10 1
   8    4    5 2
   9    4   27 1
  10    5    6 1
  11    5   28 1
  12    6    9 1
  13    7    8 1
  14    7    9 2
  15    9   22 1
  16   10   11 1
  17   10   29 1
  18   11   12 1
  19   11   30 1
  20   11   31 1
  21   12   13 1
  22   12   14 1
  23   12   32 1
  24   13   14 1
  25   13   15 1
  26   13   33 1
  27   14   34 1
  28   14   35 1
  29   15   16 ar
  30   15   20 ar
  31   16   17 ar
  32   16   36 1
  33   17   18 ar
  34   17   37 1
  35   18   19 ar
  36   18   21 1
  37   19   20 ar
  38   19   38 1
  39   20   39 1
  40   22   23 1
  41   22   40 1
  42   22   41 1
  43   23   24 1
  44   23   25 1
  45   23   42 1
  46   24   25 1
  47   24   43 1
  48   24   44 1
  49   25   45 1
  50   25   46 1

#	End of record

