#	Name: ASD01410171
#	Creating user name:	WinNT
#	Creation time:	15. 06. 2019 19:16

#	Modifying user name:	WinNT
#	Modification time:	15. 06. 2019 19:16

#	Program:	/corina/corina34_cracker 3.40 0067  02.08.2006

@<TRIPOS>MOLECULE
ASD01410171
  42   45    0    0    0
SMALL
NO_CHARGES


@<TRIPOS>ATOM
   1 C1            -0.0187     1.5258     0.0104 C.3     
   2 C2             0.0021    -0.0041     0.0020 C.3     
   3 C3             0.7182    -0.4975    -1.2568 C.3     
   4 C4             2.1536     0.0321    -1.2676 C.3     
   5 C5             2.1328     1.5619    -1.2592 C.3     
   6 C6             1.4167     2.0553    -0.0004 C.3     
   7 C7             3.8645     4.5055     2.5380 C.ar    
   8 C8             2.6623     3.9023     2.1636 C.ar    
   9 C9             2.1420     2.8602     2.9333 C.ar    
  10 C10            2.8179     2.4333     4.0575 C.ar    
  11 C11            4.0086     3.0358     4.4232 C.ar    
  12 C12            4.5296     4.0695     3.6651 C.ar    
  13 C13            0.8049     4.3912    -0.9697 C.2     
  14 C14            1.0091     5.7061    -0.5856 C.2     
  15 C15            1.3963     3.5622     0.0079 C.2     
  16 C16            1.9436     4.3652     0.9582 C.2     
  17 N17            1.7201     5.6733     0.6177 N.pl3   
  18 C18            0.4705     6.6282    -1.4710 C.2     
  19 C19           -0.1583     6.0942    -2.5517 C.2     
  20 S20           -0.0940     4.3407    -2.4816 S.3     
  21 C21           -0.7991     6.8670    -3.6145 C.2     
  22 O22           -0.7938     8.0829    -3.5704 O.2     
  23 O23           -1.3963     6.2318    -4.6445 O.3     
  24 H24           -0.5459     1.8868    -0.8726 H       
  25 H25           -0.5289     1.8773     0.9072 H       
  26 H26            0.5293    -0.3651     0.8851 H       
  27 H27           -1.0205    -0.3814     0.0098 H       
  28 H28            0.7330    -1.5874    -1.2628 H       
  29 H29            0.1910    -0.1364    -2.1398 H       
  30 H30            2.6808    -0.3290    -0.3846 H       
  31 H31            2.6638    -0.3194    -2.1644 H       
  32 H32            3.1554     1.9392    -1.2670 H       
  33 H33            1.6057     1.9230    -2.1423 H       
  34 H34            1.9439     1.6943     0.8826 H       
  35 H35            4.2746     5.3092     1.9445 H       
  36 H36            1.2124     2.3896     2.6493 H       
  37 H37            2.4165     1.6273     4.6539 H       
  38 H38            4.5335     2.6980     5.3046 H       
  39 H39            5.4594     4.5354     3.9561 H       
  40 H40            2.0073     6.4475     1.1266 H       
  41 H41            0.5451     7.6940    -1.3131 H       
  42 H42           -1.7917     6.8260    -5.2970 H       
@<TRIPOS>BOND
   1    1    2 1
   2    1    6 1
   3    1   24 1
   4    1   25 1
   5    2    3 1
   6    2   26 1
   7    2   27 1
   8    3    4 1
   9    3   28 1
  10    3   29 1
  11    4    5 1
  12    4   30 1
  13    4   31 1
  14    5    6 1
  15    5   32 1
  16    5   33 1
  17    6   15 1
  18    6   34 1
  19    7    8 ar
  20    7   12 ar
  21    7   35 1
  22    8    9 ar
  23    8   16 1
  24    9   10 ar
  25    9   36 1
  26   10   11 ar
  27   10   37 1
  28   11   12 ar
  29   11   38 1
  30   12   39 1
  31   13   15 1
  32   13   14 2
  33   13   20 1
  34   14   18 1
  35   14   17 1
  36   15   16 2
  37   16   17 1
  38   17   40 1
  39   18   19 2
  40   18   41 1
  41   19   20 1
  42   19   21 1
  43   21   22 2
  44   21   23 1
  45   23   42 1

#	End of record

