#	Name: ASD02190005
#	Creating user name:	WinNT
#	Creation time:	15. 06. 2019 20:18

#	Modifying user name:	WinNT
#	Modification time:	15. 06. 2019 20:18

#	Program:	/corina/corina34_cracker 3.40 0067  02.08.2006

@<TRIPOS>MOLECULE
ASD02190005
  44   46    0    0    0
SMALL
NO_CHARGES


@<TRIPOS>ATOM
   1 C1            -0.0169     1.3329    -0.1029 C.ar    
   2 N2             0.0047     0.0100    -0.1386 N.ar    
   3 C3            -1.1233    -0.6918    -0.1143 C.ar    
   4 N4            -2.3102    -0.0985    -0.0536 N.ar    
   5 C5            -2.4025     1.2260    -0.0152 C.ar    
   6 C6            -1.2320     1.9888    -0.0342 C.ar    
   7 N7            -3.6427     1.8428     0.0482 N.pl3   
   8 C8            -4.8091     1.0787    -0.0499 C.ar    
   9 C9            -5.9520     1.4612     0.6408 C.ar    
  10 C10           -7.1027     0.7040     0.5417 C.ar    
  11 C11           -7.1180    -0.4339    -0.2439 C.ar    
  12 C12           -5.9820    -0.8176    -0.9328 C.ar    
  13 C13           -4.8296    -0.0618    -0.8427 C.ar    
  14 C14           -8.3753    -1.2580    -0.3492 C.3     
  15 C15           -1.0559    -2.1650    -0.1561 C.2     
  16 C16            0.0796    -2.8918    -0.2189 C.2     
  17 C17           -0.1104    -4.2556    -0.2475 C.2     
  18 C18           -1.3878    -4.6513    -0.2089 C.2     
  19 S19           -2.4426    -3.2466    -0.1244 S.3     
  20 C20           -9.2095    -0.7568    -1.4998 C.2     
  21 O21           -8.8227     0.1740    -2.1661 O.2     
  22 O22          -10.3822    -1.3446    -1.7846 O.3     
  23 C23            1.2703     2.1162    -0.1306 C.3     
  24 C24           -1.2654     3.9649     1.4634 C.3     
  25 C25           -1.2932     3.4939     0.0080 C.3     
  26 H26           -3.7009     2.8045     0.1605 H       
  27 H27           -5.9406     2.3496     1.2548 H       
  28 H28           -7.9915     1.0007     1.0788 H       
  29 H29           -5.9973    -1.7068    -1.5455 H       
  30 H30           -3.9428    -0.3618    -1.3812 H       
  31 H31           -8.1123    -2.3021    -0.5187 H       
  32 H32           -8.9444    -1.1723     0.5765 H       
  33 H33            1.0600    -2.4395    -0.2449 H       
  34 H34            0.7116    -4.9544    -0.2978 H       
  35 H35           -1.7209    -5.6785    -0.2235 H       
  36 H36          -10.8819    -0.9881    -2.5319 H       
  37 H37            1.5421     2.3321    -1.1639 H       
  38 H38            1.1383     3.0514     0.4134 H       
  39 H39            2.0615     1.5315     0.3386 H       
  40 H40           -1.3096     5.0536     1.4939 H       
  41 H41           -2.1222     3.5514     1.9955 H       
  42 H42           -0.3447     3.6253     1.9377 H       
  43 H43           -0.4364     3.9074    -0.5241 H       
  44 H44           -2.2139     3.8336    -0.4663 H       
@<TRIPOS>BOND
   1    1    2 ar
   2    1   23 1
   3    1    6 ar
   4    2    3 ar
   5    3    4 ar
   6    3   15 1
   7    4    5 ar
   8    5    6 ar
   9    5    7 1
  10    6   25 1
  11    7    8 1
  12    7   26 1
  13    8    9 ar
  14    8   13 ar
  15    9   10 ar
  16    9   27 1
  17   10   11 ar
  18   10   28 1
  19   11   12 ar
  20   11   14 1
  21   12   13 ar
  22   12   29 1
  23   13   30 1
  24   14   20 1
  25   14   31 1
  26   14   32 1
  27   15   16 2
  28   15   19 1
  29   16   17 1
  30   16   33 1
  31   17   18 2
  32   17   34 1
  33   18   19 1
  34   18   35 1
  35   20   21 2
  36   20   22 1
  37   22   36 1
  38   23   37 1
  39   23   38 1
  40   23   39 1
  41   24   25 1
  42   24   40 1
  43   24   41 1
  44   24   42 1
  45   25   43 1
  46   25   44 1

#	End of record

