#	Name: ASD00241006
#	Creating user name:	WinNT
#	Creation time:	15. 06. 2019 18:33

#	Modifying user name:	WinNT
#	Modification time:	15. 06. 2019 18:33

#	Program:	/corina/corina34_cracker 3.40 0067  02.08.2006

@<TRIPOS>MOLECULE
ASD00241006
  51   53    0    0    0
SMALL
NO_CHARGES


@<TRIPOS>ATOM
   1 C1            -0.2836     1.3771    -0.0970 C.3     
   2 C2            -0.5172    -0.1442    -0.2316 C.3     
   3 C3            -1.3086    -0.5166     1.0418 C.3     
   4 O4            -1.9496     0.7115     1.4502 O.3     
   5 C5            -0.9614     1.7440     1.2418 C.3     
   6 C6            -2.2434    -2.8687     1.0690 C.ar    
   7 C7            -3.4224    -3.4526     0.5762 C.ar    
   8 N8            -1.3586    -3.6338     1.7002 N.ar    
   9 C9            -1.5802    -4.9209     1.8634 C.ar    
  10 N10           -2.6727    -5.5143     1.4176 N.ar    
  11 C11           -3.6138    -4.8306     0.7753 C.ar    
  12 N12           -4.1390    -2.4669    -0.0155 N.2     
  13 C13           -3.4906    -1.3426     0.0805 C.2     
  14 N14           -2.3126    -1.5392     0.7375 N.pl3   
  15 C15           -1.6356     3.1136     1.1397 C.3     
  16 N16           -2.3470     3.4038     2.3918 N.3     
  17 C17           -1.4081     3.7925     3.4527 C.3     
  18 C18           -2.1342     3.8430     4.7723 C.2     
  19 C19           -1.6933     3.1453     5.7896 C.2     
  20 C20           -2.4193     3.1958     7.1092 C.3     
  21 N21           -2.7706     1.8321     7.5273 N.3     
  22 O22            1.1149     1.6664    -0.0459 O.3     
  23 O23            0.7299    -0.8411    -0.2677 O.3     
  24 N24           -4.7554    -5.4611     0.3122 N.pl3   
  25 C25           -3.9692    -0.0195    -0.4595 C.3     
  26 C26           -3.3696     4.4387     2.1886 C.3     
  27 H27           -0.7529     1.9102    -0.9238 H       
  28 H28           -1.1041    -0.3631    -1.1237 H       
  29 H29           -0.6314    -0.8682     1.8201 H       
  30 H30           -0.2310     1.7390     2.0508 H       
  31 H31           -0.8408    -5.5141     2.3809 H       
  32 H32           -0.8792     3.8789     0.9658 H       
  33 H33           -2.3446     3.1088     0.3118 H       
  34 H34           -0.6014     3.0618     3.5096 H       
  35 H35           -0.9931     4.7752     3.2285 H       
  36 H36           -3.0180     4.4544     4.8793 H       
  37 H37           -0.8095     2.5339     5.6826 H       
  38 H38           -1.7753     3.6518     7.8611 H       
  39 H39           -3.3279     3.7882     7.0015 H       
  40 H40           -3.2588     1.8391     8.4103 H       
  41 H41           -3.3143     1.3649     6.8172 H       
  42 H42            1.6008     1.4003    -0.8385 H       
  43 H43            1.2936    -0.5999    -1.0155 H       
  44 H44           -4.8757    -6.4129     0.4551 H       
  45 H45           -5.4353    -4.9511    -0.1553 H       
  46 H46           -4.5539     0.4942     0.3036 H       
  47 H47           -3.1104     0.5934    -0.7330 H       
  48 H48           -4.5896    -0.1893    -1.3395 H       
  49 H49           -4.0325     4.1400     1.3766 H       
  50 H50           -3.9487     4.5618     3.1038 H       
  51 H51           -2.8863     5.3822     1.9348 H       
@<TRIPOS>BOND
   1    1    2 1
   2    1   22 1
   3    1    5 1
   4    1   27 1
   5    2    3 1
   6    2   23 1
   7    2   28 1
   8    3    4 1
   9    3   14 1
  10    3   29 1
  11    4    5 1
  12    5   15 1
  13    5   30 1
  14    6    7 ar
  15    6    8 ar
  16    6   14 1
  17    7   12 1
  18    7   11 ar
  19    8    9 ar
  20    9   10 ar
  21    9   31 1
  22   10   11 ar
  23   11   24 1
  24   12   13 2
  25   13   14 1
  26   13   25 1
  27   15   16 1
  28   15   32 1
  29   15   33 1
  30   16   17 1
  31   16   26 1
  32   17   18 1
  33   17   34 1
  34   17   35 1
  35   18   19 2
  36   18   36 1
  37   19   20 1
  38   19   37 1
  39   20   21 1
  40   20   38 1
  41   20   39 1
  42   21   40 1
  43   21   41 1
  44   22   42 1
  45   23   43 1
  46   24   44 1
  47   24   45 1
  48   25   46 1
  49   25   47 1
  50   25   48 1
  51   26   49 1
  52   26   50 1
  53   26   51 1

#	End of record

