#	Name: ASD03240660
#	Creating user name:	WinNT
#	Creation time:	15. 06. 2019 20:35

#	Modifying user name:	WinNT
#	Modification time:	15. 06. 2019 20:35

#	Program:	/corina/corina34_cracker 3.40 0067  02.08.2006

@<TRIPOS>MOLECULE
ASD03240660
  60   66    0    0    0
SMALL
NO_CHARGES


@<TRIPOS>ATOM
   1 C1             0.0467     1.1670    -0.2556 C.ar    
   2 C2             0.1306    -0.2077    -0.3361 C.ar    
   3 N3             1.3000    -0.8188    -0.3298 N.ar    
   4 C4             2.4409    -0.1477    -0.2460 C.ar    
   5 C5             2.4312     1.2440    -0.1762 C.ar    
   6 C6             1.2147     1.9139    -0.1744 C.ar    
   7 N7             3.6407    -0.8528    -0.2079 N.pl3   
   8 C8             4.4678    -0.7870     0.9100 C.ar    
   9 C9             5.0335     0.4299     1.3054 C.ar    
  10 C10            4.7811     1.6575     0.5192 C.2     
  11 N11            3.6220     1.9825    -0.1256 N.pl3   
  12 C12            4.7334    -1.9362     1.6426 C.ar    
  13 C13            5.5432    -1.8723     2.7605 C.ar    
  14 C14            6.0941    -0.6666     3.1594 C.ar    
  15 C15            5.8441     0.4839     2.4390 C.ar    
  16 N16            5.6595     2.6217     0.3310 N.2     
  17 C17            5.1185     3.5850    -0.4306 C.2     
  18 C18            3.8230     3.2037    -0.7371 C.2     
  19 C19            2.8509     3.9538    -1.5557 C.ar    
  20 C20            2.6825     5.3269    -1.3621 C.ar    
  21 C21            2.0992     3.2948    -2.5314 C.ar    
  22 C22            1.1919     4.0011    -3.2936 C.ar    
  23 C23            1.0249     5.3597    -3.0946 C.ar    
  24 C24            1.7706     6.0223    -2.1321 C.ar    
  25 C25            5.7871     4.8334    -0.8653 C.ar    
  26 C26            0.0323     6.1241    -3.9322 C.3     
  27 C27            6.6924     5.4731    -0.0197 C.ar    
  28 N28           -1.2068     6.4346    -3.2068 N.3     
  29 C29            0.6418     7.3357    -4.6571 C.3     
  30 C30           -0.2243     6.9480    -5.8673 C.3     
  31 C31           -0.2028     5.5101    -5.3224 C.3     
  32 C32            7.3129     6.6378    -0.4312 C.ar    
  33 C33            7.0354     7.1684    -1.6806 C.ar    
  34 C34            6.1374     6.5368    -2.5221 C.ar    
  35 C35            5.5174     5.3702    -2.1243 C.ar    
  36 F36            8.1905     7.2597     0.3862 F       
  37 F37            1.6019     7.3494    -1.9436 F       
  38 H38           -0.9158     1.6569    -0.2603 H       
  39 H39           -0.7747    -0.7926    -0.4050 H       
  40 H40            1.1778     2.9914    -0.1115 H       
  41 H41            3.9028    -1.3956    -0.9679 H       
  42 H42            4.3066    -2.8806     1.3387 H       
  43 H43            5.7472    -2.7688     3.3270 H       
  44 H44            6.7218    -0.6261     4.0373 H       
  45 H45            6.2750     1.4234     2.7523 H       
  46 H46            3.2634     5.8433    -0.6122 H       
  47 H47            2.2284     2.2342    -2.6891 H       
  48 H48            0.6106     3.4919    -4.0481 H       
  49 H49            6.9081     5.0599     0.9545 H       
  50 H50           -1.5853     5.6088    -2.7677 H       
  51 H51           -1.0555     7.1672    -2.5297 H       
  52 H52            0.3684     8.2930    -4.2133 H       
  53 H53            1.7125     7.2426    -4.8387 H       
  54 H54           -1.2146     7.4032    -5.8592 H       
  55 H55            0.2865     7.0601    -6.8236 H       
  56 H56            0.6370     4.9179    -5.6858 H       
  57 H57           -1.1581     4.9935    -5.4156 H       
  58 H58            7.5219     8.0788    -1.9986 H       
  59 H59            5.9248     6.9552    -3.4948 H       
  60 H60            4.8166     4.8786    -2.7828 H       
@<TRIPOS>BOND
   1    1    2 ar
   2    1    6 ar
   3    1   38 1
   4    2    3 ar
   5    2   39 1
   6    3    4 ar
   7    4    5 ar
   8    4    7 1
   9    5    6 ar
  10    5   11 1
  11    6   40 1
  12    7    8 1
  13    7   41 1
  14    8    9 ar
  15    8   12 ar
  16    9   10 1
  17    9   15 ar
  18   10   11 1
  19   10   16 2
  20   11   18 1
  21   12   13 ar
  22   12   42 1
  23   13   14 ar
  24   13   43 1
  25   14   15 ar
  26   14   44 1
  27   15   45 1
  28   16   17 1
  29   17   18 2
  30   17   25 1
  31   18   19 1
  32   19   20 ar
  33   19   21 ar
  34   20   24 ar
  35   20   46 1
  36   21   22 ar
  37   21   47 1
  38   22   23 ar
  39   22   48 1
  40   23   24 ar
  41   23   26 1
  42   24   37 1
  43   25   27 ar
  44   25   35 ar
  45   26   29 1
  46   26   28 1
  47   26   31 1
  48   27   32 ar
  49   27   49 1
  50   28   50 1
  51   28   51 1
  52   29   30 1
  53   29   52 1
  54   29   53 1
  55   30   31 1
  56   30   54 1
  57   30   55 1
  58   31   56 1
  59   31   57 1
  60   32   33 ar
  61   32   36 1
  62   33   34 ar
  63   33   58 1
  64   34   35 ar
  65   34   59 1
  66   35   60 1

#	End of record

