#	Name: ASD00840245
#	Creating user name:	WinNT
#	Creation time:	15. 06. 2019 18:38

#	Modifying user name:	WinNT
#	Modification time:	15. 06. 2019 18:38

#	Program:	/corina/corina34_cracker 3.40 0067  02.08.2006

@<TRIPOS>MOLECULE
ASD00840245
  87   92    0    0    0
SMALL
NO_CHARGES


@<TRIPOS>ATOM
   1 N1            -0.0056     1.3211     0.0336 N.ar    
   2 C2             0.0086    -0.0012     0.0174 C.ar    
   3 C3             1.2114    -0.6959    -0.0023 C.ar    
   4 C4             2.3991     0.0142    -0.0048 C.ar    
   5 C5             2.3412     1.4012     0.0126 C.ar    
   6 C6             1.1102     2.0256     0.0317 C.ar    
   7 C7             1.2227    -2.2028    -0.0202 C.3     
   8 C8             0.4754    -2.7247    -1.2289 C.2     
   9 N9             2.5990    -2.7048    -0.0112 N.am    
  10 C10            3.4472    -2.3639    -1.0016 C.2     
  11 N11            4.7405    -2.7378    -0.9396 N.am    
  12 O12            3.0455    -1.7192    -1.9509 O.2     
  13 C13            5.6563    -2.4767    -2.0605 C.3     
  14 C14            6.9068    -1.7789    -1.5150 C.3     
  15 N15            7.4744    -2.5812    -0.4231 N.3     
  16 C16            6.5392    -2.6829     0.7052 C.3     
  17 C17            5.2751    -3.4123     0.2531 C.3     
  18 N18            8.7544    -2.0429     0.0080 N.3     
  19 C19            9.3222    -2.8455     1.1003 C.3     
  20 C20           10.7016    -2.2953     1.4704 C.3     
  21 N21           10.5735    -0.8862     1.8676 N.3     
  22 C22           10.0058    -0.0836     0.7753 C.3     
  23 C23            8.6264    -0.6339     0.4052 C.3     
  24 H24           10.0215    -0.7959     2.7074 H       
  25 O25            0.7565    -2.5236    -2.3914 O.2     
  26 N26           -0.5571    -3.4529    -0.7725 N.am    
  27 C27            0.4472    -2.7525     1.1554 C.ar    
  28 C28           -0.6046    -3.4910     0.6182 C.ar    
  29 C29            0.6118    -2.6408     2.5127 C.ar    
  30 C30           -0.2868    -3.2757     3.3774 C.ar    
  31 C31           -1.3465    -4.0197     2.8447 C.ar    
  32 C32           -1.5003    -4.1255     1.4789 C.ar    
  33 F33           -2.2194    -4.6364     3.6710 F       
  34 C34           -1.0261    -5.8359    -2.0669 C.ar    
  35 C35            0.1525    -5.9980    -2.7810 C.ar    
  36 C36           -1.7080    -6.9421    -1.5965 C.ar    
  37 C37           -1.2181    -8.2116    -1.8354 C.ar    
  38 C38           -0.0396    -8.3789    -2.5492 C.ar    
  39 C39            0.6460    -7.2710    -3.0225 C.ar    
  40 O40            0.4416    -9.6279    -2.7843 O.3     
  41 O41            0.8223    -4.9099    -3.2437 O.3     
  42 C42            2.0285    -5.1514    -3.9709 C.3     
  43 C43           -0.3169   -10.7233    -2.2675 C.3     
  44 O44           -1.1628    -0.6858     0.0205 O.3     
  45 C45           -3.5737    -0.8524     0.0419 C.3     
  46 C46           -2.3653     0.0860     0.0415 C.3     
  47 S47           -1.6500    -4.2182    -1.7533 S.o2    
  48 O48           -2.8319    -4.3864    -0.9826 O.2     
  49 O49           -1.6242    -3.5303    -2.9964 O.2     
  50 C50           -0.1236    -3.1656     4.7958 C.1     
  51 N51            0.0059    -3.0783     5.9211 N.1     
  52 H52            3.3493    -0.4988    -0.0196 H       
  53 H53            3.2496     1.9854     0.0116 H       
  54 H54            1.0597     3.1044     0.0449 H       
  55 H55            2.8998    -3.2825     0.7076 H       
  56 H56            5.9384    -3.4191    -2.5301 H       
  57 H57            5.1668    -1.8325    -2.7909 H       
  58 H58            7.6433    -1.6767    -2.3120 H       
  59 H59            6.6377    -0.7917    -1.1391 H       
  60 H60            7.0089    -3.2364     1.5182 H       
  61 H61            6.2752    -1.6832     1.0501 H       
  62 H62            4.5337    -3.3894     1.0518 H       
  63 H63            5.5176    -4.4454     0.0043 H       
  64 H64            8.6653    -2.7943     1.9687 H       
  65 H65            9.4188    -3.8822     0.7777 H       
  66 H66           11.1122    -2.8710     2.2999 H       
  67 H67           11.3664    -2.3716     0.6100 H       
  68 H68            9.9091     0.9530     1.0980 H       
  69 H69           10.6627    -0.1348    -0.0930 H       
  70 H70            8.2158    -0.0581    -0.4242 H       
  71 H71            7.9616    -0.5576     1.2656 H       
  72 H72            1.4330    -2.0646     2.9128 H       
  73 H73           -2.3194    -4.7008     1.0733 H       
  74 H74           -2.6252    -6.8140    -1.0408 H       
  75 H75           -1.7524    -9.0745    -1.4661 H       
  76 H76            1.5630    -7.3992    -3.5784 H       
  77 H77            2.4618    -4.2008    -4.2820 H       
  78 H78            2.7364    -5.6823    -3.3344 H       
  79 H79            1.8075    -5.7553    -4.8509 H       
  80 H80            0.1766   -11.6604    -2.5250 H       
  81 H81           -0.3884   -10.6362    -1.1834 H       
  82 H82           -1.3173   -10.7086    -2.7000 H       
  83 H83           -4.4909    -0.2637     0.0580 H       
  84 H84           -3.5542    -1.4702    -0.8559 H       
  85 H85           -3.5368    -1.4919     0.9239 H       
  86 H86           -2.3847     0.7038     0.9393 H       
  87 H87           -2.4021     0.7255    -0.8404 H       
@<TRIPOS>BOND
   1    1    2 ar
   2    1    6 ar
   3    2    3 ar
   4    2   44 1
   5    3    4 ar
   6    3    7 1
   7    4    5 ar
   8    4   52 1
   9    5    6 ar
  10    5   53 1
  11    6   54 1
  12    7    8 1
  13    7    9 1
  14    7   27 1
  15    8   25 2
  16    8   26 am
  17    9   10 am
  18    9   55 1
  19   10   11 am
  20   10   12 2
  21   11   13 1
  22   11   17 1
  23   13   14 1
  24   13   56 1
  25   13   57 1
  26   14   15 1
  27   14   58 1
  28   14   59 1
  29   15   16 1
  30   15   18 1
  31   16   17 1
  32   16   60 1
  33   16   61 1
  34   17   62 1
  35   17   63 1
  36   18   19 1
  37   18   23 1
  38   19   20 1
  39   19   64 1
  40   19   65 1
  41   20   21 1
  42   20   66 1
  43   20   67 1
  44   21   22 1
  45   21   24 1
  46   22   23 1
  47   22   68 1
  48   22   69 1
  49   23   70 1
  50   23   71 1
  51   26   47 am
  52   26   28 1
  53   27   28 ar
  54   27   29 ar
  55   28   32 ar
  56   29   30 ar
  57   29   72 1
  58   30   31 ar
  59   30   50 1
  60   31   32 ar
  61   31   33 1
  62   32   73 1
  63   34   35 ar
  64   34   36 ar
  65   34   47 1
  66   35   41 1
  67   35   39 ar
  68   36   37 ar
  69   36   74 1
  70   37   38 ar
  71   37   75 1
  72   38   39 ar
  73   38   40 1
  74   39   76 1
  75   40   43 1
  76   41   42 1
  77   42   77 1
  78   42   78 1
  79   42   79 1
  80   43   80 1
  81   43   81 1
  82   43   82 1
  83   44   46 1
  84   45   46 1
  85   45   83 1
  86   45   84 1
  87   45   85 1
  88   46   86 1
  89   46   87 1
  90   47   48 2
  91   47   49 2
  92   50   51 3

#	End of record

