#	Name: ASD06170165
#	Creating user name:	WinNT
#	Creation time:	15. 06. 2019 21:05

#	Modifying user name:	WinNT
#	Modification time:	15. 06. 2019 21:05

#	Program:	/corina/corina34_cracker 3.40 0067  02.08.2006

@<TRIPOS>MOLECULE
ASD06170165
  67   71    0    0    0
SMALL
NO_CHARGES


@<TRIPOS>ATOM
   1 N1            -1.9884     3.0101    -4.6342 N.am    
   2 C2            -2.3343     2.2418    -5.8407 C.3     
   3 C3            -2.2442     3.1772    -7.0518 C.3     
   4 O4            -0.9686     3.8226    -7.0542 O.3     
   5 C5            -0.7330     4.6576    -5.9180 C.3     
   6 C6            -0.7457     3.7981    -4.6487 C.3     
   7 C7            -2.7889     2.9969    -3.5500 C.2     
   8 O8            -3.8538     2.4115    -3.5878 O.2     
   9 N9            -2.4089     3.6327    -2.4240 N.am    
  10 C10           -3.2854     3.7203    -1.3435 C.ar    
  11 C11           -4.6448     3.5237    -1.5438 C.ar    
  12 C12           -5.5067     3.6142    -0.4571 C.ar    
  13 C13           -4.9656     3.9005     0.7962 C.ar    
  14 C14           -3.6047     4.0830     0.9162 C.ar    
  15 N15           -2.8120     3.9850    -0.1352 N.ar    
  16 O16           -6.8424     3.4289    -0.6118 O.3     
  17 C17           -7.6447     4.5271    -0.6016 C.ar    
  18 C18           -9.0260     4.3787    -0.6389 C.ar    
  19 C19           -9.8410     5.4950    -0.6281 C.ar    
  20 C20           -9.2787     6.7640    -0.5801 C.ar    
  21 C21           -7.8986     6.9104    -0.5429 C.ar    
  22 C22           -7.0846     5.7942    -0.5484 C.ar    
  23 F23           -9.5719     3.1438    -0.6860 F       
  24 C24          -11.3259     7.8333    -0.0053 C.2     
  25 O25          -11.6735     6.8269     0.5839 O.2     
  26 N26          -10.1035     7.8956    -0.5696 N.am    
  27 N27          -14.0183    10.2774     0.1168 N.pl3   
  28 N28          -13.0816    11.0139    -0.6144 N.am    
  29 C29          -11.9734    10.2611    -0.7743 C.2     
  30 C30          -12.2380     8.9794    -0.1015 C.2     
  31 C31          -13.5135     9.0665     0.4209 C.2     
  32 C32          -13.2630    12.3131    -1.0994 C.ar    
  33 C33          -12.2168    13.2254    -1.0539 C.ar    
  34 C34          -12.3991    14.5075    -1.5340 C.ar    
  35 C35          -13.6218    14.8833    -2.0593 C.ar    
  36 C36          -14.6657    13.9775    -2.1056 C.ar    
  37 C37          -14.4881    12.6921    -1.6328 C.ar    
  38 O38          -10.9553    10.5793    -1.3601 O.2     
  39 C39          -14.2213     7.9881     1.2001 C.3     
  40 C40          -15.3491    10.7545     0.5007 C.3     
  41 H41           -1.6346     1.4150    -5.9625 H       
  42 H42           -3.3491     1.8544    -5.7507 H       
  43 H43           -2.3612     2.5986    -7.9682 H       
  44 H44           -3.0320     3.9281    -6.9914 H       
  45 H45            0.2373     5.1441    -6.0185 H       
  46 H46           -1.5153     5.4138    -5.8534 H       
  47 H47           -0.7085     4.4412    -3.7694 H       
  48 H48            0.1139     3.1279    -4.6505 H       
  49 H49           -1.5256     4.0292    -2.3655 H       
  50 H50           -5.0272     3.3040    -2.5296 H       
  51 H51           -5.6056     3.9785     1.6626 H       
  52 H52           -3.1804     4.3052     1.8842 H       
  53 H53          -10.9145     5.3805    -0.6574 H       
  54 H54           -7.4613     7.8972    -0.5056 H       
  55 H55           -6.0112     5.9088    -0.5150 H       
  56 H56           -9.7951     8.7243    -0.9685 H       
  57 H57          -11.2618    12.9327    -0.6431 H       
  58 H58          -11.5859    15.2173    -1.4989 H       
  59 H59          -13.7620    15.8866    -2.4338 H       
  60 H60          -15.6197    14.2744    -2.5158 H       
  61 H61          -15.3023    11.9837    -1.6738 H       
  62 H62          -14.7760     7.3484     0.5136 H       
  63 H63          -13.4881     7.3903     1.7415 H       
  64 H64          -14.9118     8.4455     1.9087 H       
  65 H65          -16.0796    10.4283    -0.2396 H       
  66 H66          -15.6137    10.3470     1.4764 H       
  67 H67          -15.3442    11.8434     0.5510 H       
@<TRIPOS>BOND
   1    1    2 1
   2    1    6 1
   3    1    7 am
   4    2    3 1
   5    2   41 1
   6    2   42 1
   7    3    4 1
   8    3   43 1
   9    3   44 1
  10    4    5 1
  11    5    6 1
  12    5   45 1
  13    5   46 1
  14    6   47 1
  15    6   48 1
  16    7    8 2
  17    7    9 am
  18    9   10 1
  19    9   49 1
  20   10   11 ar
  21   10   15 ar
  22   11   12 ar
  23   11   50 1
  24   12   13 ar
  25   12   16 1
  26   13   14 ar
  27   13   51 1
  28   14   15 ar
  29   14   52 1
  30   16   17 1
  31   17   18 ar
  32   17   22 ar
  33   18   19 ar
  34   18   23 1
  35   19   20 ar
  36   19   53 1
  37   20   21 ar
  38   20   26 1
  39   21   22 ar
  40   21   54 1
  41   22   55 1
  42   24   25 2
  43   24   26 am
  44   24   30 1
  45   26   56 1
  46   27   28 1
  47   27   31 1
  48   27   40 1
  49   28   29 am
  50   28   32 1
  51   29   30 1
  52   29   38 2
  53   30   31 2
  54   31   39 1
  55   32   33 ar
  56   32   37 ar
  57   33   34 ar
  58   33   57 1
  59   34   35 ar
  60   34   58 1
  61   35   36 ar
  62   35   59 1
  63   36   37 ar
  64   36   60 1
  65   37   61 1
  66   39   62 1
  67   39   63 1
  68   39   64 1
  69   40   65 1
  70   40   66 1
  71   40   67 1

#	End of record

