#	Name: ASD01890555
#	Creating user name:	WinNT
#	Creation time:	15. 06. 2019 19:51

#	Modifying user name:	WinNT
#	Modification time:	15. 06. 2019 19:51

#	Program:	/corina/corina34_cracker 3.40 0067  02.08.2006

@<TRIPOS>MOLECULE
ASD01890555
  24   25    0    0    0
SMALL
NO_CHARGES


@<TRIPOS>ATOM
   1 C1            -0.0184     1.5084     0.0103 C.2     
   2 C2             0.0021    -0.0041     0.0020 C.3     
   3 C3            -0.8921    -0.5103     1.1413 C.3     
   4 C4            -2.2769     0.1358     1.0043 C.3     
   5 C5            -2.1019     1.6363     0.9266 C.2     
   6 O6             1.0093     2.1435     0.0039 O.2     
   7 O7            -2.7304     2.3731     1.6490 O.2     
   8 O8            -1.2209     2.1304     0.0195 O.3     
   9 C9            -1.0227    -2.0090     1.0535 C.ar    
  10 C10           -0.6004    -2.8019     2.1042 C.ar    
  11 C11           -0.7202    -4.1784     2.0238 C.ar    
  12 C12           -1.2637    -4.7603     0.8895 C.ar    
  13 C13           -1.6853    -3.9648    -0.1601 C.ar    
  14 C14           -1.5699    -2.5896    -0.0753 C.ar    
  15 F15           -0.3074    -4.9541     3.0500 F       
  16 Cl16          -1.4146    -6.4866     0.7861 Cl      
  17 H17           -0.3778    -0.3701    -0.9518 H       
  18 H18            1.0222    -0.3572     0.1528 H       
  19 H19           -0.4534    -0.2348     2.1003 H       
  20 H20           -2.7604    -0.2239     0.0960 H       
  21 H21           -2.8864    -0.1173     1.8717 H       
  22 H22           -0.1767    -2.3473     2.9875 H       
  23 H23           -2.1086    -4.4175    -1.0445 H       
  24 H24           -1.9034    -1.9687    -0.8936 H       
@<TRIPOS>BOND
   1    1    2 1
   2    1    6 2
   3    1    8 1
   4    2    3 1
   5    2   17 1
   6    2   18 1
   7    3    4 1
   8    3    9 1
   9    3   19 1
  10    4    5 1
  11    4   20 1
  12    4   21 1
  13    5    7 2
  14    5    8 1
  15    9   10 ar
  16    9   14 ar
  17   10   11 ar
  18   10   22 1
  19   11   12 ar
  20   11   15 1
  21   12   13 ar
  22   12   16 1
  23   13   14 ar
  24   13   23 1
  25   14   24 1

#	End of record

