#	Name: ASD00843182
#	Creating user name:	WinNT
#	Creation time:	15. 06. 2019 18:46

#	Modifying user name:	WinNT
#	Modification time:	15. 06. 2019 18:46

#	Program:	/corina/corina34_cracker 3.40 0067  02.08.2006

@<TRIPOS>MOLECULE
ASD00843182
  92   97    0    0    0
SMALL
NO_CHARGES


@<TRIPOS>ATOM
   1 F1            -0.1163    -3.1664     4.7128 F       
   2 N2            -0.0051     1.3211     0.0355 N.ar    
   3 C3             0.0089    -0.0012     0.0185 C.ar    
   4 C4             1.2116    -0.6961    -0.0015 C.ar    
   5 C5             2.3994     0.0138    -0.0035 C.ar    
   6 C6             2.3418     1.4008     0.0147 C.ar    
   7 C7             1.1108     2.0254     0.0341 C.ar    
   8 C8             1.2227    -2.2030    -0.0203 C.3     
   9 C9             0.4753    -2.7238    -1.2294 C.2     
  10 N10            2.5990    -2.7050    -0.0123 N.am    
  11 C11            3.4466    -2.3635    -1.0029 C.2     
  12 N12            4.7401    -2.7371    -0.9417 N.am    
  13 O13            3.0444    -1.7184    -1.9518 O.2     
  14 C14            5.2677    -3.4158     0.2497 C.3     
  15 C15            6.4985    -2.6518     0.7480 C.3     
  16 C16            7.5064    -2.5150    -0.3954 C.3     
  17 C17            6.8758    -1.7203    -1.5413 C.3     
  18 C18            5.6479    -2.4788    -2.0677 C.3     
  19 N19            8.7022    -1.8118     0.0878 N.3     
  20 C20            9.7416    -1.7658    -0.9501 C.3     
  21 C21           10.9362    -0.9586    -0.4366 C.3     
  22 N22           11.4506    -1.5780     0.7928 N.3     
  23 C23           10.4112    -1.6239     1.8307 C.3     
  24 C24            9.2166    -2.4312     1.3172 C.3     
  25 C25           12.6464    -0.8748     1.2760 C.3     
  26 O26            0.7560    -2.5216    -2.3919 O.2     
  27 N27           -0.5572    -3.4524    -0.7729 N.am    
  28 C28            0.4486    -2.7529     1.1557 C.ar    
  29 C29           -0.6015    -3.4896     0.6224 C.ar    
  30 C30            0.6137    -2.6426     2.5182 C.ar    
  31 C31           -0.2748    -3.2716     3.3753 C.ar    
  32 C32           -1.3271    -4.0100     2.8552 C.ar    
  33 C33           -1.4923    -4.1203     1.4879 C.ar    
  34 F34           -2.1945    -4.6241     3.6891 F       
  35 C35           -1.0282    -5.8355    -2.0665 C.ar    
  36 C36           -1.3615    -6.8795    -1.2235 C.ar    
  37 C37           -0.2110    -6.0599    -3.1591 C.ar    
  38 C38            0.2744    -7.3285    -3.4110 C.ar    
  39 C39           -0.0586    -8.3777    -2.5666 C.ar    
  40 C40           -0.8783    -8.1498    -1.4708 C.ar    
  41 O41            0.4174    -9.6267    -2.8125 O.3     
  42 H42           -1.9999    -6.7016    -0.3707 H       
  43 C43            0.0335   -10.6583    -1.9013 C.3     
  44 C44           13.0787    -1.4673     2.6188 C.3     
  45 C45           13.7784    -1.0357     0.2594 C.3     
  46 O46           -1.1626    -0.6857     0.0211 O.3     
  47 C47           -2.3649     0.0863     0.0426 C.3     
  48 C48           -3.5735    -0.8519     0.0423 C.3     
  49 F49           -3.5485    -1.6442    -1.1104 F       
  50 F50           -3.5264    -1.6733     1.1739 F       
  51 S51           -1.6516    -4.2177    -1.7521 S.o2    
  52 O52           -2.8324    -4.3859    -0.9796 O.2     
  53 O53           -1.6275    -3.5298    -2.9953 O.2     
  54 H54            3.3496    -0.4994    -0.0185 H       
  55 H55            3.2502     1.9848     0.0141 H       
  56 H56            1.0605     3.1041     0.0480 H       
  57 H57            2.9002    -3.2831     0.7060 H       
  58 H58            4.5061    -3.4301     1.0294 H       
  59 H59            5.5504    -4.4369    -0.0065 H       
  60 H60            6.1982    -1.6610     1.0889 H       
  61 H61            6.9561    -3.1977     1.5730 H       
  62 H62            7.7875    -3.5058    -0.7523 H       
  63 H63            6.5720    -0.7382    -1.1788 H       
  64 H64            7.6020    -1.6031    -2.3456 H       
  65 H65            5.9643    -3.4221    -2.5128 H       
  66 H66            5.1371    -1.8726    -2.8158 H       
  67 H67           10.0631    -2.7798    -1.1879 H       
  68 H68            9.3403    -1.2917    -1.8458 H       
  69 H69           11.7202    -0.9476    -1.1938 H       
  70 H70           10.6206     0.0630    -0.2245 H       
  71 H71           10.8125    -2.0980     2.7264 H       
  72 H72           10.0897    -0.6099     2.0685 H       
  73 H73            8.4327    -2.4422     2.0744 H       
  74 H74            9.5322    -3.4527     1.1051 H       
  75 H75           12.4192     0.1838     1.4023 H       
  76 H76            1.4351    -2.0667     2.9184 H       
  77 H77           -2.3142    -4.6966     1.0893 H       
  78 H78            0.0476    -5.2429    -3.8163 H       
  79 H79            0.9124    -7.5034    -4.2647 H       
  80 H80           -1.1392    -8.9650    -0.8122 H       
  81 H81            0.3794   -10.4051    -0.8991 H       
  82 H82           -1.0523   -10.7541    -1.8975 H       
  83 H83            0.4804   -11.6026    -2.2122 H       
  84 H84           13.3059    -2.5258     2.4925 H       
  85 H85           13.9660    -0.9455     2.9773 H       
  86 H86           12.2723    -1.3526     3.3430 H       
  87 H87           13.4704    -0.6136    -0.6972 H       
  88 H88           14.6657    -0.5139     0.6180 H       
  89 H89           14.0056    -2.0943     0.1332 H       
  90 H90           -2.3844     0.7036     0.9407 H       
  91 H91           -2.4016     0.7263    -0.8390 H       
  92 H92           -4.4906    -0.2631     0.0587 H       
@<TRIPOS>BOND
   1    1   31 1
   2    2    3 ar
   3    2    7 ar
   4    3    4 ar
   5    3   46 1
   6    4    5 ar
   7    4    8 1
   8    5    6 ar
   9    5   54 1
  10    6    7 ar
  11    6   55 1
  12    7   56 1
  13    8    9 1
  14    8   10 1
  15    8   28 1
  16    9   26 2
  17    9   27 am
  18   10   11 am
  19   10   57 1
  20   11   12 am
  21   11   13 2
  22   12   14 1
  23   12   18 1
  24   14   15 1
  25   14   58 1
  26   14   59 1
  27   15   16 1
  28   15   60 1
  29   15   61 1
  30   16   17 1
  31   16   19 1
  32   16   62 1
  33   17   18 1
  34   17   63 1
  35   17   64 1
  36   18   65 1
  37   18   66 1
  38   19   20 1
  39   19   24 1
  40   20   21 1
  41   20   67 1
  42   20   68 1
  43   21   22 1
  44   21   69 1
  45   21   70 1
  46   22   23 1
  47   22   25 1
  48   23   24 1
  49   23   71 1
  50   23   72 1
  51   24   73 1
  52   24   74 1
  53   25   44 1
  54   25   45 1
  55   25   75 1
  56   27   51 am
  57   27   29 1
  58   28   29 ar
  59   28   30 ar
  60   29   33 ar
  61   30   31 ar
  62   30   76 1
  63   31   32 ar
  64   32   33 ar
  65   32   34 1
  66   33   77 1
  67   35   36 ar
  68   35   37 ar
  69   35   51 1
  70   36   42 1
  71   36   40 ar
  72   37   38 ar
  73   37   78 1
  74   38   39 ar
  75   38   79 1
  76   39   40 ar
  77   39   41 1
  78   40   80 1
  79   41   43 1
  80   43   81 1
  81   43   82 1
  82   43   83 1
  83   44   84 1
  84   44   85 1
  85   44   86 1
  86   45   87 1
  87   45   88 1
  88   45   89 1
  89   46   47 1
  90   47   48 1
  91   47   90 1
  92   47   91 1
  93   48   49 1
  94   48   50 1
  95   48   92 1
  96   51   52 2
  97   51   53 2

#	End of record

