#	Name: ASD01202030
#	Creating user name:	WinNT
#	Creation time:	15. 06. 2019 19:09

#	Modifying user name:	WinNT
#	Modification time:	15. 06. 2019 19:09

#	Program:	/corina/corina34_cracker 3.40 0067  02.08.2006

@<TRIPOS>MOLECULE
ASD01202030
  50   53    0    0    0
SMALL
NO_CHARGES


@<TRIPOS>ATOM
   1 C1            -0.0172     1.4164     0.0098 C.2     
   2 C2             0.0021    -0.0041     0.0020 C.2     
   3 C3             1.2871     1.8234    -0.0004 C.2     
   4 C4            -1.2105     2.2818     0.0205 C.2     
   5 C5             1.3088    -0.3739    -0.0124 C.2     
   6 O6             2.0693     0.7389    -0.0137 O.3     
   7 O7            -1.0845     3.4914     0.0260 O.2     
   8 N8            -2.4413     1.7325     0.0241 N.am    
   9 C9             1.8111    -1.7595    -0.0239 C.ar    
  10 C10           -3.5658     2.5479     0.0342 C.2     
  11 S11           -3.5363     4.2566     0.0352 S.3     
  12 N12           -4.7874     2.1251     0.0384 N.2     
  13 C13           -5.2946     4.2975     0.0489 C.2     
  14 C14           -5.7546     3.0344     0.0475 C.2     
  15 H15           -2.5418     0.7677     0.0197 H       
  16 C16            2.7815    -2.1566    -0.9697 C.ar    
  17 C17            3.2466    -3.4760    -0.9658 C.ar    
  18 C18            2.7576    -4.3752    -0.0440 C.ar    
  19 C19            1.8044    -3.9838     0.8845 C.ar    
  20 C20            1.3355    -2.6873     0.9033 C.ar    
  21 C21            3.2973    -1.1937    -1.9486 C.2     
  22 C22            4.3329    -1.6240    -2.9553 C.3     
  23 O23            2.8902    -0.0509    -1.9478 O.2     
  24 C24            1.7637     3.2531     0.0019 C.3     
  25 C25            1.9385     3.7300     1.4451 C.3     
  26 C26           -7.2389     2.7007     0.0586 C.3     
  27 C27           -8.0179     3.9390     0.5073 C.3     
  28 C28           -7.5847     5.1448    -0.3318 C.3     
  29 C29           -6.1563     5.5380     0.0565 C.3     
  30 H30           -0.8549    -0.6614     0.0070 H       
  31 H31            3.9885    -3.7894    -1.6854 H       
  32 H32            3.1189    -5.3929    -0.0444 H       
  33 H33            1.4297    -4.6993     1.6015 H       
  34 H34            0.5932    -2.3922     1.6301 H       
  35 H35            3.9313    -2.4319    -3.5670 H       
  36 H36            4.5921    -0.7794    -3.5936 H       
  37 H37            5.2243    -1.9721    -2.4334 H       
  38 H38            2.7180     3.3188    -0.5206 H       
  39 H39            1.0295     3.8816    -0.5021 H       
  40 H40            2.2832     4.7640     1.4469 H       
  41 H41            0.9841     3.6643     1.9676 H       
  42 H42            2.6726     3.1014     1.9491 H       
  43 H43           -7.5563     2.4124    -0.9435 H       
  44 H44           -7.4241     1.8810     0.7529 H       
  45 H45           -9.0854     3.7660     0.3710 H       
  46 H46           -7.8128     4.1360     1.5595 H       
  47 H47           -7.6135     4.8824    -1.3894 H       
  48 H48           -8.2580     5.9810    -0.1435 H       
  49 H49           -6.1554     5.9732     1.0558 H       
  50 H50           -5.7681     6.2612    -0.6607 H       
@<TRIPOS>BOND
   1    1    2 1
   2    1    3 2
   3    1    4 1
   4    2    5 2
   5    2   30 1
   6    3   24 1
   7    3    6 1
   8    4    7 2
   9    4    8 am
  10    5    9 1
  11    5    6 1
  12    8   15 1
  13    8   10 1
  14    9   16 ar
  15    9   20 ar
  16   10   12 2
  17   10   11 1
  18   11   13 1
  19   12   14 1
  20   13   14 2
  21   13   29 1
  22   14   26 1
  23   16   17 ar
  24   16   21 1
  25   17   18 ar
  26   17   31 1
  27   18   19 ar
  28   18   32 1
  29   19   20 ar
  30   19   33 1
  31   20   34 1
  32   21   22 1
  33   21   23 2
  34   22   35 1
  35   22   36 1
  36   22   37 1
  37   24   25 1
  38   24   38 1
  39   24   39 1
  40   25   40 1
  41   25   41 1
  42   25   42 1
  43   26   27 1
  44   26   43 1
  45   26   44 1
  46   27   28 1
  47   27   45 1
  48   27   46 1
  49   28   29 1
  50   28   47 1
  51   28   48 1
  52   29   49 1
  53   29   50 1

#	End of record

