#	Name: ASD01911858
#	Creating user name:	WinNT
#	Creation time:	15. 06. 2019 19:58

#	Modifying user name:	WinNT
#	Modification time:	15. 06. 2019 19:58

#	Program:	/corina/corina34_cracker 3.40 0067  02.08.2006

@<TRIPOS>MOLECULE
ASD01911858
  38   40    0    0    0
SMALL
NO_CHARGES


@<TRIPOS>ATOM
   1 C1            -1.0577    -0.4833    -2.0440 C.ar    
   2 C2            -1.0629     0.0682    -0.7663 C.ar    
   3 C3            -1.0161     1.4477    -0.6278 C.ar    
   4 N4            -0.9677     2.2290    -1.6886 N.ar    
   5 C5            -0.9614     1.7387    -2.9126 C.ar    
   6 C6            -1.0057     0.3741    -3.1308 C.ar    
   7 O7            -1.1136    -0.7332     0.3301 O.3     
   8 C8            -1.1591    -2.0773     0.1362 C.ar    
   9 C9            -0.0047    -2.7694    -0.2025 C.ar    
  10 C10           -0.0499    -4.1383    -0.4007 C.ar    
  11 C11           -1.2461    -4.8202    -0.2612 C.ar    
  12 C12           -2.4032    -4.1310     0.0776 C.ar    
  13 C13           -2.3575    -2.7586     0.2822 C.ar    
  14 N14           -3.6120    -4.8196     0.2182 N.am    
  15 C15           -3.6161    -6.0874     0.6756 C.2     
  16 C16           -4.8835    -6.8525     0.7260 C.ar    
  17 O17           -2.5800    -6.6028     1.0468 O.2     
  18 C18           -4.8811    -8.1623     1.1998 C.ar    
  19 C19           -6.0750    -8.8655     1.2414 C.ar    
  20 C20           -7.2297    -8.2337     0.8075 C.ar    
  21 C21           -7.1583    -6.9279     0.3484 C.ar    
  22 N22           -6.0130    -6.2822     0.3243 N.ar    
  23 C23           -8.4111    -6.2370    -0.1249 C.3     
  24 F24            1.0749    -4.8097    -0.7312 F       
  25 H25           -1.0890    -1.5536    -2.1847 H       
  26 H26           -1.0196     1.8863     0.3591 H       
  27 H27           -0.9211     2.4120    -3.7560 H       
  28 H28           -0.9998    -0.0188    -4.1368 H       
  29 H29            0.9298    -2.2390    -0.3118 H       
  30 H30           -1.2797    -5.8884    -0.4162 H       
  31 H31           -3.2563    -2.2211     0.5461 H       
  32 H32           -4.4476    -4.3849    -0.0135 H       
  33 H33           -3.9620    -8.6237     1.5298 H       
  34 H34           -6.1046    -9.8826     1.6033 H       
  35 H35           -8.1760    -8.7539     0.8267 H       
  36 H36           -8.8833    -5.7259     0.7141 H       
  37 H37           -8.1560    -5.5101    -0.8961 H       
  38 H38           -9.1003    -6.9751    -0.5351 H       
@<TRIPOS>BOND
   1    1    2 ar
   2    1    6 ar
   3    1   25 1
   4    2    3 ar
   5    2    7 1
   6    3    4 ar
   7    3   26 1
   8    4    5 ar
   9    5    6 ar
  10    5   27 1
  11    6   28 1
  12    7    8 1
  13    8    9 ar
  14    8   13 ar
  15    9   10 ar
  16    9   29 1
  17   10   11 ar
  18   10   24 1
  19   11   12 ar
  20   11   30 1
  21   12   13 ar
  22   12   14 1
  23   13   31 1
  24   14   15 am
  25   14   32 1
  26   15   16 1
  27   15   17 2
  28   16   18 ar
  29   16   22 ar
  30   18   19 ar
  31   18   33 1
  32   19   20 ar
  33   19   34 1
  34   20   21 ar
  35   20   35 1
  36   21   22 ar
  37   21   23 1
  38   23   36 1
  39   23   37 1
  40   23   38 1

#	End of record

