#	Name: ASD02240001
#	Creating user name:	WinNT
#	Creation time:	15. 06. 2019 20:20

#	Modifying user name:	WinNT
#	Modification time:	15. 06. 2019 20:20

#	Program:	/corina/corina34_cracker 3.40 0067  02.08.2006

@<TRIPOS>MOLECULE
ASD02240001
  52   52    0    0    0
SMALL
NO_CHARGES


@<TRIPOS>ATOM
   1 C1            -0.0187     1.5258     0.0104 C.3     
   2 C2             0.0021    -0.0041     0.0020 C.3     
   3 C3            -1.4333    -0.5336     0.0129 C.3     
   4 C4            -2.1733    -0.0268    -1.2266 C.3     
   5 C5            -2.1940     1.5030    -1.2182 C.3     
   6 C6            -0.7587     2.0326    -1.2291 C.3     
   7 O7            -0.7780     3.4615    -1.2212 O.3     
   8 O8             0.6932    -0.4774     1.1597 O.3     
   9 O9            -2.1022    -0.0728     1.1886 O.3     
  10 O10           -3.5139    -0.5214    -1.2165 O.3     
  11 O11           -2.8852     1.9764    -2.3759 O.3     
  12 O12            1.3220     2.0204     0.0003 O.3     
  13 P13           -0.1261     4.3537    -2.3921 P.3     
  14 O14            1.4681     4.1297    -2.4130 O.3     
  15 O15           -0.6981     3.9505    -3.6962 O.2     
  16 O16           -0.4460     5.9085    -2.1234 O.3     
  17 P17            1.9221     2.9510     1.1690 P.3     
  18 O18            3.4879     3.2098     0.8981 O.3     
  19 O19            1.1410     4.3587     1.1885 O.3     
  20 O20            1.7525     2.2745     2.4744 O.2     
  21 P21           -4.1141    -1.4521    -2.3852 P.3     
  22 O22           -3.9445    -0.7756    -3.6906 O.2     
  23 O23           -3.3330    -2.8597    -2.4047 O.3     
  24 C24           -5.8870    -1.7451    -2.0785 C.3     
  25 C25           -6.4856    -2.5239    -3.2515 C.3     
  26 C26           -7.9736    -2.7699    -2.9941 C.3     
  27 O27           -8.6669    -1.5205    -2.9768 O.3     
  28 C28           -8.5440    -3.6543    -4.1047 C.3     
  29 O29           -9.9025    -3.9799    -3.8040 O.3     
  30 H30           -0.5289     1.8773     0.9072 H       
  31 H31            0.5123    -0.3556    -0.8948 H       
  32 H32           -1.4185    -1.6235     0.0069 H       
  33 H33           -1.6631    -0.3783    -2.1234 H       
  34 H34           -2.7042     1.8545    -0.3214 H       
  35 H35           -0.2485     1.6811    -2.1259 H       
  36 H36            0.7451    -1.4412     1.2202 H       
  37 H37           -1.6869    -0.3571     2.0143 H       
  38 H38           -3.8034     1.6789    -2.4349 H       
  39 H39            1.9105     4.3737    -1.5885 H       
  40 H40           -0.0827     6.5060    -2.7913 H       
  41 H41            3.9160     3.7645     1.5646 H       
  42 H42            1.2091     4.8578     0.3631 H       
  43 H43           -3.4011    -3.3588    -1.5793 H       
  44 H44           -6.0067    -2.3213    -1.1610 H       
  45 H45           -6.4011    -0.7893    -1.9769 H       
  46 H46           -6.3660    -1.9478    -4.1690 H       
  47 H47           -5.9716    -3.4798    -3.3531 H       
  48 H48           -8.0985    -3.2681    -2.0327 H       
  49 H49           -8.5989    -1.0214    -3.8022 H       
  50 H50           -8.5000    -3.1196    -5.0536 H       
  51 H51           -7.9580    -4.5706    -4.1765 H       
  52 H52          -10.3288    -4.5400    -4.4671 H       
@<TRIPOS>BOND
   1    1    2 1
   2    1   12 1
   3    1    6 1
   4    1   30 1
   5    2    3 1
   6    2    8 1
   7    2   31 1
   8    3    4 1
   9    3    9 1
  10    3   32 1
  11    4    5 1
  12    4   10 1
  13    4   33 1
  14    5    6 1
  15    5   11 1
  16    5   34 1
  17    6    7 1
  18    6   35 1
  19    7   13 1
  20    8   36 1
  21    9   37 1
  22   10   21 1
  23   11   38 1
  24   12   17 1
  25   13   14 1
  26   13   15 2
  27   13   16 1
  28   14   39 1
  29   16   40 1
  30   17   18 1
  31   17   19 1
  32   17   20 2
  33   18   41 1
  34   19   42 1
  35   21   22 2
  36   21   23 1
  37   21   24 1
  38   23   43 1
  39   24   25 1
  40   24   44 1
  41   24   45 1
  42   25   26 1
  43   25   46 1
  44   25   47 1
  45   26   27 1
  46   26   28 1
  47   26   48 1
  48   27   49 1
  49   28   29 1
  50   28   50 1
  51   28   51 1
  52   29   52 1

#	End of record

