#	Name: ASD00122022
#	Creating user name:	WinNT
#	Creation time:	15. 06. 2019 18:31

#	Modifying user name:	WinNT
#	Modification time:	15. 06. 2019 18:31

#	Program:	/corina/corina34_cracker 3.40 0067  02.08.2006

@<TRIPOS>MOLECULE
ASD00122022
  31   31    0    0    0
SMALL
NO_CHARGES


@<TRIPOS>ATOM
   1 C1            -0.0167     1.3806     0.0096 C.ar    
   2 C2             0.0021    -0.0041     0.0020 C.ar    
   3 C3             1.2073    -0.6858    -0.0132 C.ar    
   4 C4             2.3971     0.0115    -0.0209 C.ar    
   5 C5             2.3847     1.4075    -0.0132 C.ar    
   6 C6             1.1664     2.0891     0.0021 C.ar    
   7 C7             3.6563     2.1609    -0.0214 C.2     
   8 N8             3.6412     3.5085    -0.0140 N.am    
   9 O9             4.7157     1.5650    -0.0347 O.2     
  10 C10            4.9016     4.2552    -0.0221 C.3     
  11 C11            4.6683     5.6432    -0.6221 C.3     
  12 C12            5.4182     4.3993     1.4108 C.3     
  13 C13            5.7696     3.0182     1.9676 C.3     
  14 C14            4.2715     5.5028    -2.0930 C.3     
  15 Br15          -1.6248    -0.9679     0.0131 Br      
  16 H16           -0.9599     1.9067     0.0170 H       
  17 H17            1.2156    -1.7657    -0.0187 H       
  18 H18            3.3365    -0.5212    -0.0324 H       
  19 H19            1.1505     3.1689     0.0077 H       
  20 H20            2.7958     3.9840    -0.0034 H       
  21 H21            5.6376     3.7193    -0.6215 H       
  22 H22            3.8692     6.1452    -0.0765 H       
  23 H23            5.5837     6.2300    -0.5471 H       
  24 H24            6.3075     5.0296     1.4148 H       
  25 H25            4.6467     4.8556     2.0311 H       
  26 H26            6.1376     3.1208     2.9884 H       
  27 H27            4.8803     2.3879     1.9636 H       
  28 H28            6.5411     2.5619     1.3473 H       
  29 H29            5.0706     5.0009    -2.6386 H       
  30 H30            3.3561     4.9160    -2.1680 H       
  31 H31            4.1053     6.4917    -2.5205 H       
@<TRIPOS>BOND
   1    1    2 ar
   2    1    6 ar
   3    1   16 1
   4    2    3 ar
   5    2   15 1
   6    3    4 ar
   7    3   17 1
   8    4    5 ar
   9    4   18 1
  10    5    6 ar
  11    5    7 1
  12    6   19 1
  13    7    8 am
  14    7    9 2
  15    8   10 1
  16    8   20 1
  17   10   11 1
  18   10   12 1
  19   10   21 1
  20   11   14 1
  21   11   22 1
  22   11   23 1
  23   12   13 1
  24   12   24 1
  25   12   25 1
  26   13   26 1
  27   13   27 1
  28   13   28 1
  29   14   29 1
  30   14   30 1
  31   14   31 1

#	End of record

