#	Name: ASD03091048
#	Creating user name:	WinNT
#	Creation time:	15. 06. 2019 20:29

#	Modifying user name:	WinNT
#	Modification time:	15. 06. 2019 20:29

#	Program:	/corina/corina34_cracker 3.40 0067  02.08.2006

@<TRIPOS>MOLECULE
ASD03091048
  40   43    0    0    0
SMALL
NO_CHARGES


@<TRIPOS>ATOM
   1 C1             3.1668     4.5068    -1.1125 C.ar    
   2 C2             3.6724     5.4848    -1.9546 C.ar    
   3 C3             2.8055     6.4069    -2.5136 C.ar    
   4 N4             1.5126     6.3616    -2.2525 N.ar    
   5 C5             0.9980     5.4450    -1.4562 C.ar    
   6 C6             1.8030     4.4916    -0.8622 C.ar    
   7 C7             1.2058     3.4478     0.0460 C.3     
   8 N8             1.3338     3.8819     1.4394 N.pl3   
   9 C9             0.3011     4.3317     2.2344 C.2     
  10 C10            2.5826     3.9013     2.2144 C.3     
  11 C11            2.1830     4.4376     3.6014 C.3     
  12 N12            0.7469     4.6822     3.5093 N.pl3   
  13 C13           -0.9922     4.4531     1.8998 C.2     
  14 C14           -0.1527     5.2118     4.5432 C.3     
  15 C15           -1.9453     4.9605     2.9568 C.3     
  16 C16           -2.5251     3.7714     3.7276 C.3     
  17 C17           -1.3956     3.0498     4.4683 C.3     
  18 C18           -0.6789     4.0448     5.3862 C.3     
  19 O19           -1.2618     5.8246     3.8667 O.3     
  20 N20           -1.4690     4.1026     0.5424 N.pl3   
  21 O21           -1.7091     2.9419     0.2621 O.2     
  22 O22           -1.6210     4.9751    -0.2938 O.2     
  23 Cl23           3.4254     7.6374    -3.5696 Cl      
  24 H24            3.8190     3.7713    -0.6653 H       
  25 H25            4.7296     5.5267    -2.1713 H       
  26 H26           -0.0650     5.4396    -1.2656 H       
  27 H27            0.1518     3.3143    -0.1975 H       
  28 H28            1.7327     2.5033    -0.0901 H       
  29 H29            2.9904     2.8941     2.3009 H       
  30 H30            3.3087     4.5658     1.7462 H       
  31 H31            2.3898     3.6929     4.3700 H       
  32 H32            2.7147     5.3643     3.8173 H       
  33 H33            0.3692     5.9332     5.1720 H       
  34 H34           -2.7553     5.5119     2.4793 H       
  35 H35           -3.2622     4.1283     4.4468 H       
  36 H36           -3.0008     3.0824     3.0296 H       
  37 H37           -1.8119     2.2383     5.0653 H       
  38 H38           -0.6868     2.6449     3.7460 H       
  39 H39            0.1550     3.5481     5.8822 H       
  40 H40           -1.3780     4.4206     6.1333 H       
@<TRIPOS>BOND
   1    1    2 ar
   2    1    6 ar
   3    1   24 1
   4    2    3 ar
   5    2   25 1
   6    3    4 ar
   7    3   23 1
   8    4    5 ar
   9    5    6 ar
  10    5   26 1
  11    6    7 1
  12    7    8 1
  13    7   27 1
  14    7   28 1
  15    8   10 1
  16    8    9 1
  17    9   12 1
  18    9   13 2
  19   10   11 1
  20   10   29 1
  21   10   30 1
  22   11   12 1
  23   11   31 1
  24   11   32 1
  25   12   14 1
  26   13   15 1
  27   13   20 1
  28   14   18 1
  29   14   19 1
  30   14   33 1
  31   15   16 1
  32   15   19 1
  33   15   34 1
  34   16   17 1
  35   16   35 1
  36   16   36 1
  37   17   18 1
  38   17   37 1
  39   17   38 1
  40   18   39 1
  41   18   40 1
  42   20   21 2
  43   20   22 2

#	End of record

