#	Name: ASD01916527
#	Creating user name:	WinNT
#	Creation time:	15. 06. 2019 20:07

#	Modifying user name:	WinNT
#	Modification time:	15. 06. 2019 20:07

#	Program:	/corina/corina34_cracker 3.40 0067  02.08.2006

@<TRIPOS>MOLECULE
ASD01916527
  48   51    0    0    0
SMALL
NO_CHARGES


@<TRIPOS>ATOM
   1 C1            -0.0171     1.4102     0.0098 C.ar    
   2 C2             0.0021    -0.0041     0.0020 C.ar    
   3 C3            -1.1913    -0.7256     0.0414 C.ar    
   4 C4            -2.3838    -0.0644     0.0741 C.ar    
   5 C5            -2.4215     1.3385     0.0663 C.ar    
   6 C6            -1.2404     2.0765     0.0357 C.ar    
   7 N7             1.1599     2.0755     0.0021 N.2     
   8 C8             2.3197     1.4679    -0.0397 C.2     
   9 N9             2.4198     0.1197    -0.1575 N.am    
  10 C10            1.3101    -0.6626    -0.0625 C.2     
  11 C11           -3.6829     2.0160     0.0900 C.1     
  12 C12           -4.7170     2.5715     0.1095 C.1     
  13 C13           -5.9783     3.2490     0.1331 C.ar    
  14 N14           -6.0124     4.5781     0.1257 N.ar    
  15 C15           -7.1500     5.2396     0.1463 C.ar    
  16 C16           -8.3648     4.5666     0.1769 C.ar    
  17 C17           -8.3728     3.1734     0.1856 C.ar    
  18 C18           -7.1627     2.5070     0.1581 C.ar    
  19 O19            1.4013    -1.8763    -0.0316 O.2     
  20 C20            3.5358     2.3451     0.1020 C.3     
  21 C21            4.7921     1.6925    -0.4309 C.3     
  22 C22            4.8963     0.2360    -0.0271 C.3     
  23 C23            3.6792    -0.5618    -0.4369 C.3     
  24 C24            6.1345    -0.3742    -0.6870 C.3     
  25 C25            5.0554     0.1528     1.4923 C.3     
  26 O26           -9.5331     5.2598     0.1984 O.3     
  27 C27           -9.4416     6.6858     0.1881 C.3     
  28 H28           -1.1710    -1.8054     0.0456 H       
  29 H29           -3.3065    -0.6249     0.1060 H       
  30 H30           -1.2727     3.1560     0.0320 H       
  31 H31           -7.1389     6.3195     0.1398 H       
  32 H32           -9.3039     2.6267     0.2095 H       
  33 H33           -7.1321     1.4275     0.1635 H       
  34 H34            3.3645     3.2745    -0.4412 H       
  35 H35            3.6806     2.5782     1.1569 H       
  36 H36            4.7909     1.7587    -1.5189 H       
  37 H37            5.6596     2.2290    -0.0466 H       
  38 H38            3.6883    -1.5122     0.0968 H       
  39 H39            3.7376    -0.7640    -1.5064 H       
  40 H40            7.0237     0.1637    -0.3583 H       
  41 H41            6.2183    -1.4230    -0.4024 H       
  42 H42            6.0436    -0.2979    -1.7705 H       
  43 H43            4.1895     0.6074     1.9737 H       
  44 H44            5.1312    -0.8922     1.7930 H       
  45 H45            5.9586     0.6838     1.7927 H       
  46 H46           -8.8862     7.0206     1.0642 H       
  47 H47           -8.9252     7.0102    -0.7153 H       
  48 H48          -10.4436     7.1143     0.2075 H       
@<TRIPOS>BOND
   1    1    2 ar
   2    1    7 1
   3    1    6 ar
   4    2    3 ar
   5    2   10 1
   6    3    4 ar
   7    3   28 1
   8    4    5 ar
   9    4   29 1
  10    5    6 ar
  11    5   11 1
  12    6   30 1
  13    7    8 2
  14    8    9 1
  15    8   20 1
  16    9   10 am
  17    9   23 1
  18   10   19 2
  19   11   12 3
  20   12   13 1
  21   13   14 ar
  22   13   18 ar
  23   14   15 ar
  24   15   16 ar
  25   15   31 1
  26   16   26 1
  27   16   17 ar
  28   17   18 ar
  29   17   32 1
  30   18   33 1
  31   20   21 1
  32   20   34 1
  33   20   35 1
  34   21   22 1
  35   21   36 1
  36   21   37 1
  37   22   23 1
  38   22   24 1
  39   22   25 1
  40   23   38 1
  41   23   39 1
  42   24   40 1
  43   24   41 1
  44   24   42 1
  45   25   43 1
  46   25   44 1
  47   25   45 1
  48   26   27 1
  49   27   46 1
  50   27   47 1
  51   27   48 1

#	End of record

