#	Name: ASD03430380
#	Creating user name:	WinNT
#	Creation time:	15. 06. 2019 20:41

#	Modifying user name:	WinNT
#	Modification time:	15. 06. 2019 20:41

#	Program:	/corina/corina34_cracker 3.40 0067  02.08.2006

@<TRIPOS>MOLECULE
ASD03430380
  39   42    0    0    0
SMALL
NO_CHARGES


@<TRIPOS>ATOM
   1 N1            -0.4618     1.4119     1.0204 N.am    
   2 C2            -0.9700     0.4606     1.8227 C.2     
   3 C3             0.1463    -0.0441     2.6880 C.2     
   4 C4             1.3266     0.7348     2.2735 C.ar    
   5 C5             2.6592     0.7408     2.6901 C.ar    
   6 C6             3.5573     1.6079     2.0969 C.ar    
   7 C7             3.1351     2.4647     1.0952 C.ar    
   8 C8             1.8174     2.4662     0.6757 C.ar    
   9 C9             0.8975     1.6041     1.2570 C.ar    
  10 O10           -2.1216     0.0797     1.8431 O.2     
  11 O11            0.0898    -0.9046     3.5420 O.2     
  12 C12           -1.2376     2.1488     0.0198 C.3     
  13 C13           -1.7454     1.1912    -1.0271 C.ar    
  14 C14           -2.7836     1.5646    -1.8600 C.ar    
  15 C15           -3.2495     0.6862    -2.8203 C.ar    
  16 C16           -2.6769    -0.5655    -2.9481 C.ar    
  17 C17           -1.6381    -0.9385    -2.1158 C.ar    
  18 C18           -1.1693    -0.0585    -1.1584 C.ar    
  19 C19           -2.4053     2.8269     0.6891 C.ar    
  20 C20           -2.3625     4.1848     0.9444 C.ar    
  21 C21           -3.4335     4.8067     1.5583 C.ar    
  22 C22           -4.5475     4.0709     1.9165 C.ar    
  23 C23           -4.5907     2.7132     1.6604 C.ar    
  24 C24           -3.5215     2.0920     1.0425 C.ar    
  25 Cl25           3.1853    -0.3347     3.9471 Cl      
  26 H26            4.5892     1.6171     2.4154 H       
  27 H27            3.8425     3.1398     0.6365 H       
  28 H28            1.5028     3.1406    -0.1071 H       
  29 H29           -0.6030     2.8993    -0.4515 H       
  30 H30           -3.2310     2.5425    -1.7602 H       
  31 H31           -4.0611     0.9776    -3.4705 H       
  32 H32           -3.0413    -1.2521    -3.6979 H       
  33 H33           -1.1909    -1.9166    -2.2154 H       
  34 H34           -0.3553    -0.3486    -0.5106 H       
  35 H35           -1.4921     4.7597     0.6645 H       
  36 H36           -3.3998     5.8675     1.7584 H       
  37 H37           -5.3840     4.5567     2.3968 H       
  38 H38           -5.4610     2.1382     1.9406 H       
  39 H39           -3.5567     1.0319     0.8391 H       
@<TRIPOS>BOND
   1    1    2 am
   2    1    9 1
   3    1   12 1
   4    2    3 1
   5    2   10 2
   6    3    4 1
   7    3   11 2
   8    4    5 ar
   9    4    9 ar
  10    5    6 ar
  11    5   25 1
  12    6    7 ar
  13    6   26 1
  14    7    8 ar
  15    7   27 1
  16    8    9 ar
  17    8   28 1
  18   12   13 1
  19   12   19 1
  20   12   29 1
  21   13   14 ar
  22   13   18 ar
  23   14   15 ar
  24   14   30 1
  25   15   16 ar
  26   15   31 1
  27   16   17 ar
  28   16   32 1
  29   17   18 ar
  30   17   33 1
  31   18   34 1
  32   19   20 ar
  33   19   24 ar
  34   20   21 ar
  35   20   35 1
  36   21   22 ar
  37   21   36 1
  38   22   23 ar
  39   22   37 1
  40   23   24 ar
  41   23   38 1
  42   24   39 1

#	End of record

