#	Name: ASD01916262
#	Creating user name:	WinNT
#	Creation time:	15. 06. 2019 20:07

#	Modifying user name:	WinNT
#	Modification time:	15. 06. 2019 20:07

#	Program:	/corina/corina34_cracker 3.40 0067  02.08.2006

@<TRIPOS>MOLECULE
ASD01916262
  37   39    0    0    0
SMALL
NO_CHARGES


@<TRIPOS>ATOM
   1 C1            -0.0526     1.3262    -0.2459 C.ar    
   2 C2             0.0331    -0.0536    -0.1710 C.ar    
   3 C3             1.2283    -0.6576     0.1723 C.ar    
   4 C4             2.3515     0.1249     0.4437 C.ar    
   5 C5             2.2626     1.5153     0.3671 C.ar    
   6 C6             1.0607     2.1111     0.0228 C.ar    
   7 O7             0.9711     3.4649    -0.0526 O.3     
   8 C8             1.4670     4.0765    -1.1604 C.ar    
   9 C9             1.4017     5.4589    -1.3018 C.ar    
  10 N10            1.8960     6.0164    -2.3949 N.ar    
  11 C11            2.4439     5.2805    -3.3410 C.ar    
  12 N12            2.5242     3.9686    -3.2441 N.ar    
  13 C13            2.0581     3.3367    -2.1796 C.ar    
  14 F14           -1.0540    -0.8115    -0.4337 F       
  15 C15            3.6312    -0.5171     0.8116 C.2     
  16 N16            3.7145    -1.8603     0.8854 N.am    
  17 O17            4.6083     0.1663     1.0476 O.2     
  18 C18            4.9437    -2.4697     1.1278 C.ar    
  19 C19            5.0453    -3.8556     1.0872 C.ar    
  20 C20            7.3596    -3.6303     1.6049 C.ar    
  21 C21            7.1875    -2.2600     1.6239 C.ar    
  22 N22            6.0056    -1.7234     1.3892 N.ar    
  23 C23            6.2723    -4.4479     1.3294 C.ar    
  24 C24            6.4245    -5.9468     1.2954 C.3     
  25 F25            6.7536    -6.3528    -0.0024 F       
  26 F26            7.4405    -6.3326     2.1764 F       
  27 F27            5.2207    -6.5467     1.6804 F       
  28 H28           -0.9873     1.7935    -0.5185 H       
  29 H29            1.2926    -1.7341     0.2308 H       
  30 H30            3.1288     2.1255     0.5765 H       
  31 H31            0.9538     6.0680    -0.5307 H       
  32 H32            2.8383     5.7665    -4.2212 H       
  33 H33            2.1274     2.2614    -2.1067 H       
  34 H34            2.9187    -2.4027     0.7697 H       
  35 H35            4.1782    -4.4617     0.8700 H       
  36 H36            8.3310    -4.0609     1.7981 H       
  37 H37            8.0306    -1.6198     1.8377 H       
@<TRIPOS>BOND
   1    1    2 ar
   2    1    6 ar
   3    1   28 1
   4    2    3 ar
   5    2   14 1
   6    3    4 ar
   7    3   29 1
   8    4    5 ar
   9    4   15 1
  10    5    6 ar
  11    5   30 1
  12    6    7 1
  13    7    8 1
  14    8    9 ar
  15    8   13 ar
  16    9   10 ar
  17    9   31 1
  18   10   11 ar
  19   11   12 ar
  20   11   32 1
  21   12   13 ar
  22   13   33 1
  23   15   16 am
  24   15   17 2
  25   16   18 1
  26   16   34 1
  27   18   19 ar
  28   18   22 ar
  29   19   23 ar
  30   19   35 1
  31   20   21 ar
  32   20   23 ar
  33   20   36 1
  34   21   22 ar
  35   21   37 1
  36   23   24 1
  37   24   25 1
  38   24   26 1
  39   24   27 1

#	End of record

