#	Name: ASD01140027
#	Creating user name:	WinNT
#	Creation time:	15. 06. 2019 18:59

#	Modifying user name:	WinNT
#	Modification time:	15. 06. 2019 18:59

#	Program:	/corina/corina34_cracker 3.40 0067  02.08.2006

@<TRIPOS>MOLECULE
ASD01140027
  47   50    0    0    0
SMALL
NO_CHARGES


@<TRIPOS>ATOM
   1 C1            -0.0167     1.3780     0.0096 C.ar    
   2 C2             0.0021    -0.0041     0.0020 C.ar    
   3 C3             1.2096    -0.6718    -0.0185 C.ar    
   4 C4             2.4047     0.0339    -0.0318 C.ar    
   5 C5             2.3879     1.4108    -0.0132 C.ar    
   6 C6             1.1707     2.0804     0.0021 C.ar    
   7 C7             3.6882    -0.7564    -0.0817 C.3     
   8 N8             4.8257     0.1314     0.1813 N.am    
   9 C9             4.8377     1.4361    -0.5006 C.3     
  10 C10            3.6431     2.2426     0.0062 C.3     
  11 C11            3.8442    -1.3870    -1.4670 C.3     
  12 C12            5.1532    -2.2018    -1.5407 C.3     
  13 C13            5.7281    -1.8139    -2.9210 C.3     
  14 C14            4.7162    -0.8454    -3.4985 C.2     
  15 O15            3.9855    -0.3491    -2.4833 O.3     
  16 O16            4.5879    -0.5668    -4.6672 O.2     
  17 H17            3.6596    -1.5425     0.6728 H       
  18 H18            2.9886    -2.0241    -1.6907 H       
  19 C19            5.8204    -0.2326     1.0147 C.2     
  20 O20            5.7860    -1.3153     1.5653 O.2     
  21 O21            6.8521     0.6033     1.2371 O.3     
  22 C22            7.8874     0.1453     2.1463 C.3     
  23 C23            8.9514     1.2052     2.2709 C.ar    
  24 C24            8.8471     2.1778     3.2476 C.ar    
  25 C25            9.8230     3.1501     3.3619 C.ar    
  26 C26           10.9036     3.1495     2.4998 C.ar    
  27 C27           11.0084     2.1763     1.5236 C.ar    
  28 C28           10.0347     1.2015     1.4121 C.ar    
  29 H29           -0.9584     1.9066     0.0170 H       
  30 H30           -0.9244    -0.5590     0.0125 H       
  31 H31            1.2248    -1.7517    -0.0240 H       
  32 H32            1.1538     3.1602     0.0080 H       
  33 H33            5.7632     1.9639    -0.2704 H       
  34 H34            4.7539     1.2901    -1.5775 H       
  35 H35            3.5041     3.1162    -0.6308 H       
  36 H36            3.8395     2.5716     1.0266 H       
  37 H37            5.8353    -1.9082    -0.7429 H       
  38 H38            4.9446    -3.2708    -1.4969 H       
  39 H39            6.6969    -1.3277    -2.8061 H       
  40 H40            5.8170    -2.6947    -3.5569 H       
  41 H41            7.4509    -0.0483     3.1261 H       
  42 H42            8.3316    -0.7716     1.7589 H       
  43 H43            8.0028     2.1783     3.9212 H       
  44 H44            9.7411     3.9104     4.1245 H       
  45 H45           11.6657     3.9095     2.5886 H       
  46 H46           11.8524     2.1760     0.8498 H       
  47 H47           10.1185     0.4390     0.6519 H       
@<TRIPOS>BOND
   1    1    2 ar
   2    1    6 ar
   3    1   29 1
   4    2    3 ar
   5    2   30 1
   6    3    4 ar
   7    3   31 1
   8    4    5 ar
   9    4    7 1
  10    5    6 ar
  11    5   10 1
  12    6   32 1
  13    7    8 1
  14    7   11 1
  15    7   17 1
  16    8    9 1
  17    8   19 am
  18    9   10 1
  19    9   33 1
  20    9   34 1
  21   10   35 1
  22   10   36 1
  23   11   12 1
  24   11   18 1
  25   11   15 1
  26   12   13 1
  27   12   37 1
  28   12   38 1
  29   13   14 1
  30   13   39 1
  31   13   40 1
  32   14   15 1
  33   14   16 2
  34   19   20 2
  35   19   21 1
  36   21   22 1
  37   22   23 1
  38   22   41 1
  39   22   42 1
  40   23   24 ar
  41   23   28 ar
  42   24   25 ar
  43   24   43 1
  44   25   26 ar
  45   25   44 1
  46   26   27 ar
  47   26   45 1
  48   27   28 ar
  49   27   46 1
  50   28   47 1

#	End of record

