#	Name: ASD02198227
#	Creating user name:	WinNT
#	Creation time:	15. 06. 2019 20:19

#	Modifying user name:	WinNT
#	Modification time:	15. 06. 2019 20:19

#	Program:	/corina/corina34_cracker 3.40 0067  02.08.2006

@<TRIPOS>MOLECULE
ASD02198227
  47   49    0    0    0
SMALL
NO_CHARGES


@<TRIPOS>ATOM
   1 C1            -0.0166     1.3753     0.0096 C.2     
   2 C2             0.0021    -0.0041     0.0020 C.2     
   3 C3            -1.1878    -0.8008     0.0091 C.1     
   4 S4             1.5675     2.0054    -0.0021 S.3     
   5 C5             2.2772     0.3990    -0.0175 C.2     
   6 C6             1.2824    -0.5520    -0.0132 C.2     
   7 C7             3.6579     0.1249    -0.0322 C.2     
   8 C8             4.6308     1.2351    -0.0350 C.2     
   9 O9             4.0505    -1.0301    -0.0426 O.2     
  10 N10            1.5294    -1.9154    -0.0224 N.pl3   
  11 N11           -1.1593     2.1393     0.0194 N.pl3   
  12 N12           -2.1317    -1.4328     0.0147 N.1     
  13 C13           -1.0630     3.6011     0.0268 C.3     
  14 C14           -2.3370     4.1992    -0.5733 C.3     
  15 O15            4.3523     2.5520    -0.0242 O.3     
  16 C16           -0.8970     4.0939     1.4658 C.3     
  17 N17            5.3581     3.2224    -0.0300 N.2     
  18 C18            6.4373     2.4802    -0.0451 C.2     
  19 C19            5.9936     1.1303    -0.0430 C.2     
  20 C20            7.8438     2.9548    -0.0560 C.ar    
  21 C21            8.1210     4.3201    -0.0499 C.ar    
  22 C22            8.8914     2.0365    -0.0666 C.ar    
  23 C23           10.1973     2.4832    -0.0768 C.ar    
  24 C24           10.4668     3.8399    -0.0760 C.ar    
  25 C25            9.4306     4.7559    -0.0602 C.ar    
  26 C26           -3.5291     3.8674     0.3266 C.3     
  27 C27           -2.1860     5.7179    -0.6805 C.3     
  28 H28            2.4424    -2.2428    -0.0326 H       
  29 H29            0.7893    -2.5424    -0.0187 H       
  30 H30           -2.0294     1.7105     0.0213 H       
  31 H31           -0.2021     3.9115    -0.5652 H       
  32 H32           -2.5029     3.7796    -1.5655 H       
  33 H33           -1.7579     3.7835     2.0578 H       
  34 H34            0.0106     3.6678     1.8933 H       
  35 H35           -0.8254     5.1815     1.4713 H       
  36 H36            6.5928     0.2319    -0.0522 H       
  37 H37            7.3126     5.0362    -0.0376 H       
  38 H38            8.6821     0.9770    -0.0665 H       
  39 H39           11.0102     1.7721    -0.0850 H       
  40 H40           11.4901     4.1851    -0.0832 H       
  41 H41            9.6465     5.8141    -0.0596 H       
  42 H42           -3.6367     2.7854     0.4030 H       
  43 H43           -3.3632     4.2870     1.3188 H       
  44 H44           -4.4367     4.2935    -0.1010 H       
  45 H45           -1.3367     5.9543    -1.3216 H       
  46 H46           -3.0936     6.1440    -1.1080 H       
  47 H47           -2.0201     6.1375     0.3117 H       
@<TRIPOS>BOND
   1    1    2 2
   2    1    4 1
   3    1   11 1
   4    2    3 1
   5    2    6 1
   6    3   12 3
   7    4    5 1
   8    5    6 2
   9    5    7 1
  10    6   10 1
  11    7    8 1
  12    7    9 2
  13    8   15 1
  14    8   19 2
  15   10   28 1
  16   10   29 1
  17   11   13 1
  18   11   30 1
  19   13   14 1
  20   13   16 1
  21   13   31 1
  22   14   26 1
  23   14   27 1
  24   14   32 1
  25   15   17 1
  26   16   33 1
  27   16   34 1
  28   16   35 1
  29   17   18 2
  30   18   19 1
  31   18   20 1
  32   19   36 1
  33   20   21 ar
  34   20   22 ar
  35   21   25 ar
  36   21   37 1
  37   22   23 ar
  38   22   38 1
  39   23   24 ar
  40   23   39 1
  41   24   25 ar
  42   24   40 1
  43   25   41 1
  44   26   42 1
  45   26   43 1
  46   26   44 1
  47   27   45 1
  48   27   46 1
  49   27   47 1

#	End of record

