#	Name: ASD01881257
#	Creating user name:	WinNT
#	Creation time:	15. 06. 2019 19:42

#	Modifying user name:	WinNT
#	Modification time:	15. 06. 2019 19:42

#	Program:	/corina/corina34_cracker 3.40 0067  02.08.2006

@<TRIPOS>MOLECULE
ASD01881257
  64   66    0    0    0
SMALL
NO_CHARGES


@<TRIPOS>ATOM
   1 C1            -0.0179     1.4705     0.0101 C.2     
   2 C2             0.0021    -0.0041     0.0020 C.ar    
   3 C3             1.2209    -0.6884    -0.0133 C.ar    
   4 C4             1.2351    -2.0651    -0.0209 C.ar    
   5 C5             0.0397    -2.7746    -0.0133 C.ar    
   6 C6            -1.1746    -2.0979     0.0015 C.ar    
   7 C7            -1.1977    -0.7214     0.0154 C.ar    
   8 O8             1.0260     2.0922     0.0035 O.2     
   9 O9            -1.1939     2.1283     0.0193 O.3     
  10 O10            0.0581    -4.1314    -0.0208 O.3     
  11 C11           -1.2062    -4.7974    -0.0124 C.3     
  12 C12           -0.9852    -6.3114    -0.0227 C.3     
  13 C13           -2.3388    -7.0244    -0.0136 C.3     
  14 C14           -2.1178    -8.5384    -0.0239 C.3     
  15 O15           -3.3821    -9.2044    -0.0155 O.3     
  16 C16           -3.3637   -10.5609    -0.0230 C.ar    
  17 C17           -4.5581   -11.2676    -0.0154 C.ar    
  18 C18           -4.5417   -12.6513    -0.0235 C.ar    
  19 C19           -3.3104   -13.3316    -0.0394 C.ar    
  20 C20           -2.1145   -12.6012    -0.0468 C.ar    
  21 C21           -2.1467   -11.2370    -0.0440 C.ar    
  22 C22           -5.8715   -10.5289     0.0021 C.3     
  23 O23           -5.7056   -13.3473    -0.0157 O.3     
  24 C24           -3.2786   -14.7962    -0.0476 C.2     
  25 O25           -4.3160   -15.4256    -0.0407 O.2     
  26 C26           -1.9576   -15.5211    -0.0646 C.3     
  27 C27           -2.2044   -17.0310    -0.0703 C.3     
  28 C28           -0.8695   -17.7828    -0.2136 C.3     
  29 C29           -0.7165   -18.6540     1.0503 C.3     
  30 C30           -2.1679   -18.8505     1.5542 C.3     
  31 C31           -2.8160   -17.4716     1.2757 C.3     
  32 C32           -1.1376     3.5792     0.0269 C.3     
  33 H33            2.1501    -0.1380    -0.0195 H       
  34 H34            2.1763    -2.5946    -0.0331 H       
  35 H35           -2.1011    -2.6529     0.0069 H       
  36 H36           -2.1414    -0.1965     0.0321 H       
  37 H37           -1.7586    -4.5170     0.8844 H       
  38 H38           -1.7756    -4.5074    -0.8954 H       
  39 H39           -0.4328    -6.5918    -0.9195 H       
  40 H40           -0.4158    -6.6014     0.8604 H       
  41 H41           -2.8913    -6.7440     0.8832 H       
  42 H42           -2.9082    -6.7344    -0.8967 H       
  43 H43           -1.5654    -8.8188    -0.9207 H       
  44 H44           -1.5485    -8.8284     0.8591 H       
  45 H45           -1.1665   -13.1185    -0.0590 H       
  46 H46           -1.2225   -10.6783    -0.0543 H       
  47 H47           -6.1984   -10.3446    -1.0213 H       
  48 H48           -6.6194   -11.1296     0.5197 H       
  49 H49           -5.7468    -9.5782     0.5205 H       
  50 H50           -6.0520   -13.5441    -0.8968 H       
  51 H51           -1.4007   -15.2406    -0.9586 H       
  52 H52           -1.3830   -15.2502     0.8212 H       
  53 H53           -2.8724   -17.2968    -0.8896 H       
  54 H54           -0.8900   -18.4141    -1.1020 H       
  55 H55           -0.0458   -17.0720    -0.2791 H       
  56 H56           -0.2664   -19.6145     0.7994 H       
  57 H57           -0.1190   -18.1361     1.8006 H       
  58 H58           -2.6704   -19.6349     0.9883 H       
  59 H59           -2.1795   -19.0744     2.6209 H       
  60 H60           -2.5576   -16.7627     2.0623 H       
  61 H61           -3.8982   -17.5692     1.1892 H       
  62 H62           -2.1504     3.9820     0.0339 H       
  63 H63           -0.6058     3.9175     0.9162 H       
  64 H64           -0.6143     3.9271    -0.8637 H       
@<TRIPOS>BOND
   1    1    2 1
   2    1    8 2
   3    1    9 1
   4    2    3 ar
   5    2    7 ar
   6    3    4 ar
   7    3   33 1
   8    4    5 ar
   9    4   34 1
  10    5    6 ar
  11    5   10 1
  12    6    7 ar
  13    6   35 1
  14    7   36 1
  15    9   32 1
  16   10   11 1
  17   11   12 1
  18   11   37 1
  19   11   38 1
  20   12   13 1
  21   12   39 1
  22   12   40 1
  23   13   14 1
  24   13   41 1
  25   13   42 1
  26   14   15 1
  27   14   43 1
  28   14   44 1
  29   15   16 1
  30   16   17 ar
  31   16   21 ar
  32   17   18 ar
  33   17   22 1
  34   18   19 ar
  35   18   23 1
  36   19   20 ar
  37   19   24 1
  38   20   21 ar
  39   20   45 1
  40   21   46 1
  41   22   47 1
  42   22   48 1
  43   22   49 1
  44   23   50 1
  45   24   25 2
  46   24   26 1
  47   26   27 1
  48   26   51 1
  49   26   52 1
  50   27   28 1
  51   27   31 1
  52   27   53 1
  53   28   29 1
  54   28   54 1
  55   28   55 1
  56   29   30 1
  57   29   56 1
  58   29   57 1
  59   30   31 1
  60   30   58 1
  61   30   59 1
  62   31   60 1
  63   31   61 1
  64   32   62 1
  65   32   63 1
  66   32   64 1

#	End of record

