#	Name: ASD03240380
#	Creating user name:	WinNT
#	Creation time:	15. 06. 2019 20:34

#	Modifying user name:	WinNT
#	Modification time:	15. 06. 2019 20:34

#	Program:	/corina/corina34_cracker 3.40 0067  02.08.2006

@<TRIPOS>MOLECULE
ASD03240380
  47   47    0    0    0
SMALL
NO_CHARGES


@<TRIPOS>ATOM
   1 C1            -0.0187     1.5258     0.0104 C.3     
   2 C2             0.0021    -0.0041     0.0020 C.3     
   3 C3            -1.4333    -0.5336     0.0129 C.3     
   4 C4            -1.4126    -2.0635     0.0045 C.3     
   5 C5            -2.8479    -2.5931     0.0153 C.3     
   6 C6            -2.8272    -4.1229     0.0069 C.3     
   7 C7            -4.2559    -4.6531     0.1434 C.3     
   8 C8            -4.2253    -6.1554     0.2586 C.2     
   9 O9            -3.1698    -6.7415     0.2340 O.2     
  10 C10           -5.5120    -6.9262     0.4044 C.3     
  11 C11           -5.2026    -8.4215     0.5005 C.3     
  12 C12           -6.4893    -9.1924     0.6463 C.ar    
  13 C13           -7.1574    -9.6380    -0.4785 C.ar    
  14 C14           -8.3385   -10.3458    -0.3500 C.ar    
  15 C15           -8.8544   -10.6095     0.9083 C.ar    
  16 C16           -8.1816   -10.1607     2.0411 C.ar    
  17 C17           -6.9960    -9.4571     1.9055 C.ar    
  18 O18           -8.6841   -10.4171     3.2785 O.3     
  19 C19           -7.9402    -9.9260     4.3954 C.3     
  20 O20          -10.0160   -11.3050     1.0364 O.3     
  21 O21           -2.2631    -4.5849    -1.2221 O.3     
  22 H22            1.0039     1.9031     0.0027 H       
  23 H23           -0.5459     1.8868    -0.8726 H       
  24 H24           -0.5289     1.8773     0.9072 H       
  25 H25            0.5123    -0.3556    -0.8948 H       
  26 H26            0.5293    -0.3651     0.8851 H       
  27 H27           -1.9435    -0.1821     0.9097 H       
  28 H28           -1.9605    -0.1726    -0.8702 H       
  29 H29           -0.9024    -2.4150    -0.8923 H       
  30 H30           -0.8854    -2.4246     0.8875 H       
  31 H31           -3.3581    -2.2415     0.9121 H       
  32 H32           -3.3751    -2.2320    -0.8677 H       
  33 H33           -2.2249    -4.4827     0.8411 H       
  34 H34           -4.7169    -4.2296     1.0358 H       
  35 H35           -4.8348    -4.3677    -0.7349 H       
  36 H36           -6.0286    -6.6033     1.3083 H       
  37 H37           -6.1465    -6.7414    -0.4624 H       
  38 H38           -4.6861    -8.7445    -0.4034 H       
  39 H39           -4.5681    -8.6063     1.3673 H       
  40 H40           -6.7564    -9.4327    -1.4600 H       
  41 H41           -8.8587   -10.6926    -1.2305 H       
  42 H42           -6.4720    -9.1078     2.7828 H       
  43 H43           -7.8612    -8.8408     4.3305 H       
  44 H44           -8.4498   -10.1986     5.3196 H       
  45 H45           -6.9421   -10.3640     4.3881 H       
  46 H46           -9.8961   -12.2623     1.1019 H       
  47 H47           -2.7489    -4.3018    -2.0088 H       
@<TRIPOS>BOND
   1    1    2 1
   2    1   22 1
   3    1   23 1
   4    1   24 1
   5    2    3 1
   6    2   25 1
   7    2   26 1
   8    3    4 1
   9    3   27 1
  10    3   28 1
  11    4    5 1
  12    4   29 1
  13    4   30 1
  14    5    6 1
  15    5   31 1
  16    5   32 1
  17    6    7 1
  18    6   21 1
  19    6   33 1
  20    7    8 1
  21    7   34 1
  22    7   35 1
  23    8    9 2
  24    8   10 1
  25   10   11 1
  26   10   36 1
  27   10   37 1
  28   11   12 1
  29   11   38 1
  30   11   39 1
  31   12   13 ar
  32   12   17 ar
  33   13   14 ar
  34   13   40 1
  35   14   15 ar
  36   14   41 1
  37   15   16 ar
  38   15   20 1
  39   16   17 ar
  40   16   18 1
  41   17   42 1
  42   18   19 1
  43   19   43 1
  44   19   44 1
  45   19   45 1
  46   20   46 1
  47   21   47 1

#	End of record

