#	Name: ASD01913849
#	Creating user name:	WinNT
#	Creation time:	15. 06. 2019 20:02

#	Modifying user name:	WinNT
#	Modification time:	15. 06. 2019 20:02

#	Program:	/corina/corina34_cracker 3.40 0067  02.08.2006

@<TRIPOS>MOLECULE
ASD01913849
  40   42    0    0    0
SMALL
NO_CHARGES


@<TRIPOS>ATOM
   1 C1            -0.0195     1.4278    -0.0131 C.ar    
   2 C2             0.0006    -0.0040    -0.0141 C.1     
   3 C3             0.0170    -1.1779    -0.0150 C.1     
   4 C4             0.0370    -2.6098    -0.0160 C.ar    
   5 C5            -1.1524    -3.3387     0.1330 C.ar    
   6 C6             0.1560    -5.3344    -0.0290 C.ar    
   7 N7             1.2610    -4.6185    -0.1734 N.ar    
   8 C8             1.2401    -3.3018    -0.1712 C.ar    
   9 C9            -1.0818    -4.7173     0.1251 C.ar    
  10 C10            1.1642     2.1551    -0.1614 C.ar    
  11 N11            1.1458     3.4718    -0.1599 N.ar    
  12 C12           -1.1915     3.5074     0.1253 C.ar    
  13 C13           -1.2274     2.1236     0.1309 C.ar    
  14 C14            0.0249     4.1532    -0.0208 C.ar    
  15 N15            0.2331    -6.7251    -0.0385 N.am    
  16 C16            0.1551    -7.3610    -1.2124 C.2     
  17 O17            0.1737    -8.6983    -1.3237 O.3     
  18 C18            0.6534    -9.4538    -0.1774 C.3     
  19 C19           -0.0193    -8.8893     1.0814 C.3     
  20 C20            0.4014    -7.4229     1.2335 C.3     
  21 C21            0.2865   -10.9301    -0.3413 C.3     
  22 C22            2.1720    -9.3079    -0.0612 C.3     
  23 O23            0.0627    -6.6968    -2.2256 O.2     
  24 Cl24          -2.6557     4.4236     0.2997 Cl      
  25 H25           -2.0997    -2.8338     0.2513 H       
  26 H26            2.1619    -2.7520    -0.2909 H       
  27 H27           -1.9773    -5.3105     0.2377 H       
  28 H28            2.1024     1.6330    -0.2778 H       
  29 H29           -2.1620     1.5941     0.2425 H       
  30 H30            0.0558     5.2328    -0.0254 H       
  31 H31           -1.1025    -8.9554     0.9799 H       
  32 H32            0.3034    -9.4552     1.9553 H       
  33 H33            1.4453    -7.3761     1.5437 H       
  34 H34           -0.2213    -6.9442     1.9894 H       
  35 H35            0.7468   -11.3202    -1.2490 H       
  36 H36            0.6479   -11.4921     0.5198 H       
  37 H37           -0.7967   -11.0296    -0.4116 H       
  38 H38            2.4272    -8.2560     0.0673 H       
  39 H39            2.5269    -9.8755     0.7990 H       
  40 H40            2.6439    -9.6881    -0.9672 H       
@<TRIPOS>BOND
   1    1    2 1
   2    1   10 ar
   3    1   13 ar
   4    2    3 3
   5    3    4 1
   6    4    5 ar
   7    4    8 ar
   8    5    9 ar
   9    5   25 1
  10    6    7 ar
  11    6   15 1
  12    6    9 ar
  13    7    8 ar
  14    8   26 1
  15    9   27 1
  16   10   11 ar
  17   10   28 1
  18   11   14 ar
  19   12   13 ar
  20   12   24 1
  21   12   14 ar
  22   13   29 1
  23   14   30 1
  24   15   16 am
  25   15   20 1
  26   16   17 1
  27   16   23 2
  28   17   18 1
  29   18   19 1
  30   18   21 1
  31   18   22 1
  32   19   20 1
  33   19   31 1
  34   19   32 1
  35   20   33 1
  36   20   34 1
  37   21   35 1
  38   21   36 1
  39   21   37 1
  40   22   38 1
  41   22   39 1
  42   22   40 1

#	End of record

