#	Name: ASD01913795
#	Creating user name:	WinNT
#	Creation time:	15. 06. 2019 20:02

#	Modifying user name:	WinNT
#	Modification time:	15. 06. 2019 20:02

#	Program:	/corina/corina34_cracker 3.40 0067  02.08.2006

@<TRIPOS>MOLECULE
ASD01913795
  37   39    0    0    0
SMALL
NO_CHARGES


@<TRIPOS>ATOM
   1 C1            -0.0168     1.3912     0.0097 C.ar    
   2 C2             0.0021    -0.0041     0.0020 C.ar    
   3 C3             1.2204    -0.6594    -0.0131 C.ar    
   4 C4             2.3820     0.1007    -0.0201 C.ar    
   5 C5             2.2905     1.4803    -0.0118 C.ar    
   6 N6             1.1180     2.0808     0.0026 N.ar    
   7 C7            -1.2697     2.0847     0.0194 C.1     
   8 C8            -2.2967     2.6533     0.0273 C.1     
   9 C9            -3.5846     3.3662     0.0372 C.3     
  10 C10           -3.3321     4.8752     0.0443 C.3     
  11 O11           -5.3504     5.9951    -1.0155 O.3     
  12 N12           -6.3664     6.5572    -0.6650 N.2     
  13 C13           -6.4334     6.5916     0.6404 C.2     
  14 N14           -5.3257     5.9769     1.1134 N.2     
  15 C15           -4.6505     5.6051     0.0544 C.2     
  16 C16           -7.5213     7.1931     1.4513 C.ar    
  17 C17           -8.6089     7.7969     0.8238 C.ar    
  18 C18           -9.5503     8.3155     2.9637 C.ar    
  19 C19           -7.4614     7.1510     2.8426 C.ar    
  20 C20           -9.6179     8.3547     1.5827 C.ar    
  21 C21           -8.4759     7.7119     3.5918 C.ar    
  22 C22          -10.6545     8.9272     3.7870 C.3     
  23 H23           -0.9212    -0.5644     0.0082 H       
  24 H24            1.2668    -1.7384    -0.0190 H       
  25 H25            3.3484    -0.3812    -0.0315 H       
  26 H26            3.1928     2.0739    -0.0172 H       
  27 H27           -4.1555     3.0975    -0.8515 H       
  28 H28           -4.1471     3.0878     0.9284 H       
  29 H29           -2.7611     5.1440     0.9330 H       
  30 H30           -2.7695     5.1536    -0.8469 H       
  31 H31           -8.6623     7.8286    -0.2544 H       
  32 H32           -6.6230     6.6799     3.3340 H       
  33 H33          -10.4614     8.8230     1.0973 H       
  34 H34           -8.4279     7.6844     4.6703 H       
  35 H35          -11.4193     8.1761     3.9843 H       
  36 H36          -10.2466     9.2873     4.7314 H       
  37 H37          -11.0961     9.7606     3.2406 H       
@<TRIPOS>BOND
   1    1    2 ar
   2    1    6 ar
   3    1    7 1
   4    2    3 ar
   5    2   23 1
   6    3    4 ar
   7    3   24 1
   8    4    5 ar
   9    4   25 1
  10    5    6 ar
  11    5   26 1
  12    7    8 3
  13    8    9 1
  14    9   10 1
  15    9   27 1
  16    9   28 1
  17   10   15 1
  18   10   29 1
  19   10   30 1
  20   11   12 1
  21   11   15 1
  22   12   13 2
  23   13   14 1
  24   13   16 1
  25   14   15 2
  26   16   17 ar
  27   16   19 ar
  28   17   20 ar
  29   17   31 1
  30   18   20 ar
  31   18   21 ar
  32   18   22 1
  33   19   21 ar
  34   19   32 1
  35   20   33 1
  36   21   34 1
  37   22   35 1
  38   22   36 1
  39   22   37 1

#	End of record

