#	Name: ASD05130102
#	Creating user name:	WinNT
#	Creation time:	15. 06. 2019 20:56

#	Modifying user name:	WinNT
#	Modification time:	15. 06. 2019 20:56

#	Program:	/corina/corina34_cracker 3.40 0067  02.08.2006

@<TRIPOS>MOLECULE
ASD05130102
  57   60    0    0    0
SMALL
NO_CHARGES


@<TRIPOS>ATOM
   1 N1             0.2025     1.2297     0.2279 N.am    
   2 C2             0.6646     0.2262     0.9999 C.2     
   3 O3             1.7834     0.2881     1.4721 O.2     
   4 N4            -0.1134    -0.8459     1.2485 N.am    
   5 C5             0.4023    -1.9345     1.9605 C.ar    
   6 C6            -0.4237    -2.6712     2.7990 C.ar    
   7 C7             0.0893    -3.7467     3.5013 C.ar    
   8 C8             1.4253    -4.0878     3.3681 C.ar    
   9 C9             2.2484    -3.3546     2.5340 C.ar    
  10 C10            1.7396    -2.2834     1.8255 C.ar    
  11 F11           -0.7127    -4.4644     4.3179 F       
  12 C12            0.9754     2.3838     0.0423 C.ar    
  13 C13            0.3545     3.6052    -0.2018 C.ar    
  14 C14            1.1141     4.7469    -0.3856 C.ar    
  15 C15            2.4930     4.6802    -0.3282 C.ar    
  16 C16            3.1227     3.4591    -0.0839 C.ar    
  17 C17            2.3570     2.3099     0.1073 C.ar    
  18 N18            6.6610     3.8230     1.2086 N.am    
  19 C19            5.3164     3.8906     1.1515 C.2     
  20 C20            4.6013     3.3852    -0.0225 C.2     
  21 C21            5.3074     2.8439    -1.0619 C.2     
  22 C22            6.7188     2.7846    -0.9785 C.ar    
  23 C23            7.4812     2.2390    -2.0187 C.ar    
  24 N24            8.7922     2.1914    -1.9253 N.ar    
  25 C25            9.4433     2.6493    -0.8613 C.ar    
  26 C26            8.7654     3.2052     0.2144 C.ar    
  27 C27            7.3784     3.2806     0.1673 C.ar    
  28 O28            4.6932     4.3730     2.0805 O.2     
  29 N29           10.8278     2.5695    -0.8249 N.pl3   
  30 C30           11.5600     3.0700     0.3412 C.3     
  31 C31            7.3651     4.3375     2.3858 C.3     
  32 C32            7.0595     5.8274     2.5521 C.3     
  33 C33            6.8993     3.5793     3.6304 C.3     
  34 F34           -0.9934     3.6762    -0.2598 F       
  35 Cl35           3.4419     6.1151    -0.5606 Cl      
  36 H36           -0.6632     1.1514    -0.2024 H       
  37 H37           -1.0308    -0.8628     0.9338 H       
  38 H38           -1.4651    -2.4047     2.9028 H       
  39 H39            1.8246    -4.9277     3.9171 H       
  40 H40            3.2897    -3.6227     2.4324 H       
  41 H41            2.3827    -1.7147     1.1703 H       
  42 H42            0.6280     5.6926    -0.5748 H       
  43 H43            2.8400     1.3636     0.3010 H       
  44 H44            4.7944     2.4667    -1.9343 H       
  45 H45            6.9907     1.8554    -2.9011 H       
  46 H46            9.3065     3.5737     1.0733 H       
  47 H47           11.3111     2.1824    -1.5715 H       
  48 H48           11.3539     4.1325     0.4711 H       
  49 H49           11.2415     2.5267     1.2309 H       
  50 H50           12.6293     2.9233     0.1893 H       
  51 H51            8.4385     4.1990     2.2564 H       
  52 H52            5.9861     5.9659     2.6814 H       
  53 H53            7.5834     6.2102     3.4279 H       
  54 H54            7.3913     6.3676     1.6654 H       
  55 H55            7.1171     2.5179     3.5119 H       
  56 H56            7.4232     3.9621     4.5063 H       
  57 H57            5.8259     3.7178     3.7597 H       
@<TRIPOS>BOND
   1    1    2 am
   2    1   12 1
   3    1   36 1
   4    2    3 2
   5    2    4 am
   6    4    5 1
   7    4   37 1
   8    5    6 ar
   9    5   10 ar
  10    6    7 ar
  11    6   38 1
  12    7    8 ar
  13    7   11 1
  14    8    9 ar
  15    8   39 1
  16    9   10 ar
  17    9   40 1
  18   10   41 1
  19   12   13 ar
  20   12   17 ar
  21   13   14 ar
  22   13   34 1
  23   14   15 ar
  24   14   42 1
  25   15   16 ar
  26   15   35 1
  27   16   17 ar
  28   16   20 1
  29   17   43 1
  30   18   19 am
  31   18   27 1
  32   18   31 1
  33   19   20 1
  34   19   28 2
  35   20   21 2
  36   21   22 1
  37   21   44 1
  38   22   23 ar
  39   22   27 ar
  40   23   24 ar
  41   23   45 1
  42   24   25 ar
  43   25   26 ar
  44   25   29 1
  45   26   27 ar
  46   26   46 1
  47   29   30 1
  48   29   47 1
  49   30   48 1
  50   30   49 1
  51   30   50 1
  52   31   32 1
  53   31   33 1
  54   31   51 1
  55   32   52 1
  56   32   53 1
  57   32   54 1
  58   33   55 1
  59   33   56 1
  60   33   57 1

#	End of record

