#	Name: ASD01882134
#	Creating user name:	WinNT
#	Creation time:	15. 06. 2019 19:44

#	Modifying user name:	WinNT
#	Modification time:	15. 06. 2019 19:44

#	Program:	/corina/corina34_cracker 3.40 0067  02.08.2006

@<TRIPOS>MOLECULE
ASD01882134
  55   58    0    0    0
SMALL
NO_CHARGES


@<TRIPOS>ATOM
   1 C1            -0.9096     1.0820     0.5679 C.2     
   2 N2            -1.0368    -0.2377     0.6020 N.2     
   3 C3             0.0254    -1.0371     0.7446 C.2     
   4 C4             1.3192    -0.4692     0.8624 C.2     
   5 C5             1.4359     0.8747     0.8263 C.2     
   6 N6             0.3167     1.6453     0.6787 N.pl3   
   7 O7            -1.8915     1.9986     0.4240 O.3     
   8 C8             0.1836     3.1105     0.6114 C.3     
   9 C9            -1.3281     3.3379     0.4381 C.3     
  10 O10           -0.1180    -2.2498     0.7736 O.2     
  11 C11           -1.6100     4.0512    -0.8858 C.3     
  12 O12           -3.0150     4.2773    -1.0153 O.3     
  13 C13           -3.4373     4.9060    -2.1437 C.ar    
  14 C14           -4.7884     5.1576    -2.3348 C.ar    
  15 C15           -5.2151     5.7967    -3.4826 C.ar    
  16 C16           -4.2970     6.1851    -4.4411 C.ar    
  17 C17           -2.9504     5.9351    -4.2533 C.ar    
  18 C18           -2.5179     5.3021    -3.1038 C.ar    
  19 C19           -6.6823     6.0703    -3.6908 C.3     
  20 C20           -7.4302     4.7455    -3.8532 C.3     
  21 C21           -7.2372     6.8242    -2.4806 C.3     
  22 C22           -4.7654     6.8817    -5.6927 C.3     
  23 C23           -4.2432     8.3198    -5.7017 C.3     
  24 C24           -4.7187     9.0270    -6.9724 C.3     
  25 C25           -4.1868     8.2836    -8.1993 C.3     
  26 C26           -4.7090     6.8455    -8.1902 C.3     
  27 C27           -4.2335     6.1382    -6.9196 C.3     
  28 H28            2.1902    -1.0970     0.9787 H       
  29 H29            2.4073     1.3385     0.9138 H       
  30 H30            0.5378     3.5693     1.5345 H       
  31 H31            0.7284     3.5049    -0.2463 H       
  32 H32           -1.7286     3.9113     1.2742 H       
  33 H33           -1.0852     5.0064    -0.9028 H       
  34 H34           -1.2639     3.4317    -1.7131 H       
  35 H35           -5.5058     4.8538    -1.5869 H       
  36 H36           -2.2354     6.2391    -5.0034 H       
  37 H37           -1.4653     5.1113    -2.9553 H       
  38 H38           -6.8154     6.6750    -4.5879 H       
  39 H39           -7.2971     4.1408    -2.9562 H       
  40 H40           -8.4914     4.9434    -4.0038 H       
  41 H41           -7.0348     4.2084    -4.7154 H       
  42 H42           -6.7044     7.7681    -2.3649 H       
  43 H43           -8.2985     7.0222    -2.6312 H       
  44 H44           -7.1041     6.2195    -1.5835 H       
  45 H45           -5.8551     6.8907    -5.7174 H       
  46 H46           -4.6221     8.8495    -4.8277 H       
  47 H47           -3.1535     8.3108    -5.6770 H       
  48 H48           -5.8083     9.0360    -6.9972 H       
  49 H49           -4.3466    10.0516    -6.9789 H       
  50 H50           -4.5255     8.7874    -9.1046 H       
  51 H51           -3.0971     8.2746    -8.1746 H       
  52 H52           -5.7987     6.8545    -8.2150 H       
  53 H53           -4.3301     6.3158    -9.0643 H       
  54 H54           -3.1438     6.1293    -6.8948 H       
  55 H55           -4.6055     5.1137    -6.9131 H       
@<TRIPOS>BOND
   1    1    2 2
   2    1    6 1
   3    1    7 1
   4    2    3 1
   5    3    4 1
   6    3   10 2
   7    4    5 2
   8    4   28 1
   9    5    6 1
  10    5   29 1
  11    6    8 1
  12    7    9 1
  13    8    9 1
  14    8   30 1
  15    8   31 1
  16    9   11 1
  17    9   32 1
  18   11   12 1
  19   11   33 1
  20   11   34 1
  21   12   13 1
  22   13   14 ar
  23   13   18 ar
  24   14   15 ar
  25   14   35 1
  26   15   16 ar
  27   15   19 1
  28   16   17 ar
  29   16   22 1
  30   17   18 ar
  31   17   36 1
  32   18   37 1
  33   19   20 1
  34   19   21 1
  35   19   38 1
  36   20   39 1
  37   20   40 1
  38   20   41 1
  39   21   42 1
  40   21   43 1
  41   21   44 1
  42   22   23 1
  43   22   27 1
  44   22   45 1
  45   23   24 1
  46   23   46 1
  47   23   47 1
  48   24   25 1
  49   24   48 1
  50   24   49 1
  51   25   26 1
  52   25   50 1
  53   25   51 1
  54   26   27 1
  55   26   52 1
  56   26   53 1
  57   27   54 1
  58   27   55 1

#	End of record

