#	Name: ASD04920003
#	Creating user name:	WinNT
#	Creation time:	15. 06. 2019 20:56

#	Modifying user name:	WinNT
#	Modification time:	15. 06. 2019 20:56

#	Program:	/corina/corina34_cracker 3.40 0067  02.08.2006

@<TRIPOS>MOLECULE
ASD04920003
  42   43    0    0    0
SMALL
NO_CHARGES


@<TRIPOS>ATOM
   1 S1            -0.0172     1.4168     0.0098 S.o2    
   2 S2            -1.9272     5.2408    -3.3337 S.3     
   3 F3            -3.1280     2.9020    -7.7048 F       
   4 F4            -3.5774     7.6219    -7.5321 F       
   5 O5             0.0021    -0.0041     0.0020 O.2     
   6 O6             1.1617     2.2101     0.0028 O.2     
   7 O7            -3.7931     5.2679    -8.9255 O.3     
   8 O8            -4.5743     5.2846   -11.4123 O.2     
   9 N9            -0.9002     1.8797    -1.3124 N.am    
  10 N10           -6.7538     5.0595   -11.0642 N.am    
  11 C11           -1.1366     3.3017    -1.5741 C.3     
  12 C12           -1.6344     3.4802    -3.0097 C.3     
  13 C13           -0.9297     1.8941     1.4396 C.ar    
  14 C14           -2.4857     5.2488    -5.0049 C.ar    
  15 C15           -1.8430     1.0209     2.0000 C.ar    
  16 C16           -0.7281     3.1397     2.0041 C.ar    
  17 C17           -2.8171     6.4489    -5.6209 C.ar    
  18 C18           -2.5892     4.0556    -5.7085 C.ar    
  19 C19           -2.5589     1.3954     3.1217 C.ar    
  20 C20           -1.4439     3.5143     3.1258 C.ar    
  21 C21           -3.3629     5.2615    -7.6341 C.ar    
  22 C22           -3.0273     4.0624    -7.0204 C.ar    
  23 C23           -3.2550     6.4548    -6.9328 C.ar    
  24 C24           -2.3611     2.6430     3.6832 C.ar    
  25 C25           -5.1998     5.1390    -9.1413 C.3     
  26 C26           -5.4856     5.1664   -10.6207 C.2     
  27 H27           -6.9378     5.0771   -12.0164 H       
  28 H28           -7.4826     4.9650   -10.4311 H       
  29 H29           -1.2609     1.2094    -1.9136 H       
  30 H30           -1.8873     3.6790    -0.8796 H       
  31 H31           -0.2072     3.8551    -1.4403 H       
  32 H32           -2.5639     2.9267    -3.1435 H       
  33 H33           -0.8838     3.1028    -3.7042 H       
  34 H34           -1.9975     0.0462     1.5614 H       
  35 H35           -0.0110     3.8202     1.5691 H       
  36 H36           -2.7331     7.3772    -5.0754 H       
  37 H37           -2.3274     3.1228    -5.2313 H       
  38 H38           -3.2730     0.7134     3.5591 H       
  39 H39           -1.2861     4.4873     3.5671 H       
  40 H40           -2.9207     2.9358     4.5593 H       
  41 H41           -5.5468     4.1948    -8.7217 H       
  42 H42           -5.7191     5.9651    -8.6556 H       
@<TRIPOS>BOND
   1    1    5 2
   2    1    6 2
   3    1    9 am
   4    1   13 1
   5    2   12 1
   6    2   14 1
   7    3   22 1
   8    4   23 1
   9    7   21 1
  10    7   25 1
  11    8   26 2
  12    9   11 1
  13    9   29 1
  14   10   26 am
  15   10   27 1
  16   10   28 1
  17   11   12 1
  18   11   30 1
  19   11   31 1
  20   12   32 1
  21   12   33 1
  22   13   15 ar
  23   13   16 ar
  24   14   17 ar
  25   14   18 ar
  26   15   19 ar
  27   15   34 1
  28   16   20 ar
  29   16   35 1
  30   17   23 ar
  31   17   36 1
  32   18   22 ar
  33   18   37 1
  34   19   24 ar
  35   19   38 1
  36   20   24 ar
  37   20   39 1
  38   21   22 ar
  39   21   23 ar
  40   24   40 1
  41   25   26 1
  42   25   41 1
  43   25   42 1

#	End of record

