#	Name: ASD05503031
#	Creating user name:	WinNT
#	Creation time:	15. 06. 2019 21:01

#	Modifying user name:	WinNT
#	Modification time:	15. 06. 2019 21:01

#	Program:	/corina/corina34_cracker 3.40 0067  02.08.2006

@<TRIPOS>MOLECULE
ASD05503031
  39   40    0    0    0
SMALL
NO_CHARGES


@<TRIPOS>ATOM
   1 C1            -0.1502     1.3617     0.4402 C.ar    
   2 C2            -0.0926    -0.0174     0.2839 C.ar    
   3 C3             1.1376    -0.6543     0.2034 C.ar    
   4 C4             2.3066     0.0892     0.2794 C.ar    
   5 C5             2.2421     1.4684     0.4358 C.ar    
   6 C6             1.0158     2.0993     0.5155 C.ar    
   7 N7            -1.2738    -0.7636     0.2081 N.am    
   8 C8            -1.3337    -1.8520    -0.5845 C.2     
   9 C9            -2.5626    -2.7242    -0.5752 C.3     
  10 O10           -0.3985    -2.1295    -1.3052 O.2     
  11 C11           -2.3733    -3.8825    -1.5567 C.3     
  12 C12           -3.6209    -4.7681    -1.5472 C.3     
  13 N13            3.5485    -0.5489     0.1991 N.am    
  14 C14            4.5815     0.0618    -0.4142 C.2     
  15 C15            5.8620    -0.6517    -0.5901 C.ar    
  16 O16            4.4590     1.2004    -0.8227 O.2     
  17 C17            6.0057    -1.9597    -0.1219 C.ar    
  18 C18            7.2032    -2.6213    -0.2891 C.ar    
  19 C19            8.2647    -1.9913    -0.9209 C.ar    
  20 C20            8.1289    -0.6930    -1.3876 C.ar    
  21 C21            6.9334    -0.0228    -1.2310 C.ar    
  22 Br22           6.7492     1.7481    -1.8680 Br      
  23 F23            9.4360    -2.6451    -1.0818 F       
  24 H24           -1.1074     1.8584     0.4984 H       
  25 H25            1.1850    -1.7264     0.0822 H       
  26 H26            3.1517     2.0477     0.4954 H       
  27 H27            0.9683     3.1714     0.6371 H       
  28 H28           -2.0496    -0.4975     0.7261 H       
  29 H29           -2.7195    -3.1202     0.4282 H       
  30 H30           -3.4293    -2.1340    -0.8725 H       
  31 H31           -2.2164    -3.4866    -2.5600 H       
  32 H32           -1.5065    -4.4728    -1.2593 H       
  33 H33           -3.4861    -5.5933    -2.2465 H       
  34 H34           -3.7779    -5.1640    -0.5439 H       
  35 H35           -4.4877    -4.1778    -1.8446 H       
  36 H36            3.6663    -1.4311     0.5849 H       
  37 H37            5.1801    -2.4517     0.3707 H       
  38 H38            7.3151    -3.6326     0.0730 H       
  39 H39            8.9591    -0.2071    -1.8785 H       
@<TRIPOS>BOND
   1    1    2 ar
   2    1    6 ar
   3    1   24 1
   4    2    3 ar
   5    2    7 1
   6    3    4 ar
   7    3   25 1
   8    4    5 ar
   9    4   13 1
  10    5    6 ar
  11    5   26 1
  12    6   27 1
  13    7    8 am
  14    7   28 1
  15    8    9 1
  16    8   10 2
  17    9   11 1
  18    9   29 1
  19    9   30 1
  20   11   12 1
  21   11   31 1
  22   11   32 1
  23   12   33 1
  24   12   34 1
  25   12   35 1
  26   13   14 am
  27   13   36 1
  28   14   15 1
  29   14   16 2
  30   15   17 ar
  31   15   21 ar
  32   17   18 ar
  33   17   37 1
  34   18   19 ar
  35   18   38 1
  36   19   20 ar
  37   19   23 1
  38   20   21 ar
  39   20   39 1
  40   21   22 1

#	End of record

