#	Name: ASD01884930
#	Creating user name:	WinNT
#	Creation time:	15. 06. 2019 19:49

#	Modifying user name:	WinNT
#	Modification time:	15. 06. 2019 19:49

#	Program:	/corina/corina34_cracker 3.40 0067  02.08.2006

@<TRIPOS>MOLECULE
ASD01884930
  44   48    0    0    0
SMALL
NO_CHARGES


@<TRIPOS>ATOM
   1 C1             0.0200     1.4016     0.1563 C.ar    
   2 C2             0.0677     0.0224     0.1541 C.ar    
   3 C3            -1.1105    -0.7142     0.0254 C.ar    
   4 C4            -2.3322    -0.0536    -0.1005 C.ar    
   5 C5            -2.3736     1.3250    -0.0977 C.ar    
   6 C6            -1.2015     2.0562     0.0357 C.ar    
   7 C7            -1.0634    -2.1948     0.0221 C.2     
   8 C8            -1.6566    -2.9148     1.0435 C.2     
   9 C9            -0.4159    -2.8875    -1.0298 C.2     
  10 C10           -0.3750    -4.2328    -1.0315 C.2     
  11 N11           -0.9532    -4.9521    -0.0249 N.pl3   
  12 C12           -1.5954    -4.3194     1.0119 C.2     
  13 Cl13          -2.4637    -2.0970     2.3449 Cl      
  14 C14           -1.0642    -6.2854     0.2278 C.2     
  15 N15           -1.7270    -6.4206     1.3474 N.2     
  16 N16           -2.0466    -5.2670     1.8193 N.2     
  17 C17           -0.5225    -7.4021    -0.6271 C.3     
  18 C18           -0.5829    -8.8208    -0.0574 C.3     
  19 O19           -1.2462     3.4144     0.0386 O.3     
  20 C20           -1.5256    -8.4107    -1.1905 C.3     
  21 F21            1.1596     2.1164     0.2812 F       
  22 C22           -1.0521     4.0616    -1.1404 C.ar    
  23 C23           -0.7416     3.3485    -2.2941 C.ar    
  24 C24           -0.5527     4.0526    -3.4725 C.ar    
  25 C25           -0.6779     5.4290    -3.4637 C.ar    
  26 N26           -0.9729     6.0751    -2.3525 N.ar    
  27 C27           -1.1664     5.4428    -1.2123 C.ar    
  28 C28           -1.5018     6.2289     0.0288 C.3     
  29 H29            1.0155    -0.4861     0.2515 H       
  30 H30           -3.2455    -0.6213    -0.2006 H       
  31 H31           -3.3198     1.8363    -0.1956 H       
  32 H32            0.0465    -2.3342    -1.8338 H       
  33 H33            0.1210    -4.7501    -1.8394 H       
  34 H34            0.3354    -7.1448    -1.2482 H       
  35 H35            0.2356    -9.4972    -0.3036 H       
  36 H36           -1.0143    -8.9465     0.9357 H       
  37 H37           -2.5773    -8.2666    -0.9429 H       
  38 H38           -1.3274    -8.8173    -2.1822 H       
  39 H39           -0.6498     2.2727    -2.2716 H       
  40 H40           -0.3102     3.5319    -4.3871 H       
  41 H41           -0.5318     5.9830    -4.3792 H       
  42 H42           -2.5836     6.3338     0.1112 H       
  43 H43           -1.1198     5.7051     0.9050 H       
  44 H44           -1.0446     7.2165    -0.0320 H       
@<TRIPOS>BOND
   1    1    2 ar
   2    1   21 1
   3    1    6 ar
   4    2    3 ar
   5    2   29 1
   6    3    4 ar
   7    3    7 1
   8    4    5 ar
   9    4   30 1
  10    5    6 ar
  11    5   31 1
  12    6   19 1
  13    7    8 2
  14    7    9 1
  15    8   13 1
  16    8   12 1
  17    9   10 2
  18    9   32 1
  19   10   11 1
  20   10   33 1
  21   11   12 1
  22   11   14 1
  23   12   16 2
  24   14   15 2
  25   14   17 1
  26   15   16 1
  27   17   20 1
  28   17   18 1
  29   17   34 1
  30   18   20 1
  31   18   35 1
  32   18   36 1
  33   19   22 1
  34   20   37 1
  35   20   38 1
  36   22   23 ar
  37   22   27 ar
  38   23   24 ar
  39   23   39 1
  40   24   25 ar
  41   24   40 1
  42   25   26 ar
  43   25   41 1
  44   26   27 ar
  45   27   28 1
  46   28   42 1
  47   28   43 1
  48   28   44 1

#	End of record

