#	Name: ASD01901611
#	Creating user name:	WinNT
#	Creation time:	15. 06. 2019 19:54

#	Modifying user name:	WinNT
#	Modification time:	15. 06. 2019 19:54

#	Program:	/corina/corina34_cracker 3.40 0067  02.08.2006

@<TRIPOS>MOLECULE
ASD01901611
  42   45    0    0    0
SMALL
NO_CHARGES


@<TRIPOS>ATOM
   1 C1            -1.2304     1.4969    -1.6484 C.3     
   2 O2            -1.0332     0.1053    -1.3900 O.3     
   3 C3            -0.3809    -0.1686    -0.1485 C.3     
   4 C4            -0.2233    -1.6809     0.0221 C.3     
   5 O5             0.6553    -2.1849    -0.9859 O.3     
   6 C6             0.9030    -3.5171    -0.9759 C.ar    
   7 N7             0.3389    -4.2874    -0.0676 N.ar    
   8 C8             0.5452    -5.5972    -0.0101 C.ar    
   9 C9             1.3594    -6.2366    -0.8921 C.ar    
  10 C10            2.0005    -5.4818    -1.8950 C.ar    
  11 C11            2.8517    -6.0695    -2.8377 C.ar    
  12 C12            3.4500    -5.2760    -3.7960 C.ar    
  13 N13            4.2995    -5.8540    -4.7388 N.pl3   
  14 C14            5.3534    -5.1105    -5.2793 C.2     
  15 N15            5.7145    -3.9087    -4.9152 N.2     
  16 N16            6.8079    -3.4854    -5.6778 N.pl3   
  17 H17            7.2548    -2.6287    -5.5930 H       
  18 C18            7.1468    -4.4738    -6.5636 C.ar    
  19 C19            8.1308    -4.5991    -7.5436 C.ar    
  20 C20            8.1826    -5.7716    -8.2715 C.ar    
  21 C21            7.2657    -6.7820    -8.0121 C.ar    
  22 N22            6.3447    -6.6480    -7.0852 N.ar    
  23 C23            6.2543    -5.5418    -6.3507 C.ar    
  24 C24            3.2119    -3.8970    -3.8310 C.ar    
  25 C25            2.3879    -3.3055    -2.9241 C.ar    
  26 C26            1.7605    -4.0842    -1.9410 C.ar    
  27 H27           -0.2649     2.0020    -1.6740 H       
  28 H28           -1.7309     1.6207    -2.6087 H       
  29 H29           -1.8458     1.9292    -0.8595 H       
  30 H30            0.6023     0.3020    -0.1430 H       
  31 H31           -0.9787     0.2292     0.6716 H       
  32 H32            0.1930    -1.8941     1.0067 H       
  33 H33           -1.1975    -2.1606    -0.0721 H       
  34 H34            0.0521    -6.1721     0.7598 H       
  35 H35            1.5124    -7.3036    -0.8249 H       
  36 H36            3.0390    -7.1330    -2.8154 H       
  37 H37            4.1594    -6.7718    -5.0198 H       
  38 H38            8.8336    -3.8002    -7.7288 H       
  39 H39            8.9318    -5.9020    -9.0384 H       
  40 H40            7.3107    -7.6966    -8.5847 H       
  41 H41            3.6895    -3.2936    -4.5887 H       
  42 H42            2.2141    -2.2403    -2.9640 H       
@<TRIPOS>BOND
   1    1    2 1
   2    1   27 1
   3    1   28 1
   4    1   29 1
   5    2    3 1
   6    3    4 1
   7    3   30 1
   8    3   31 1
   9    4    5 1
  10    4   32 1
  11    4   33 1
  12    5    6 1
  13    6   26 ar
  14    6    7 ar
  15    7    8 ar
  16    8    9 ar
  17    8   34 1
  18    9   10 ar
  19    9   35 1
  20   10   26 ar
  21   10   11 ar
  22   11   12 ar
  23   11   36 1
  24   12   13 1
  25   12   24 ar
  26   13   14 1
  27   13   37 1
  28   14   23 1
  29   14   15 2
  30   15   16 1
  31   16   17 1
  32   16   18 1
  33   18   23 ar
  34   18   19 ar
  35   19   20 ar
  36   19   38 1
  37   20   21 ar
  38   20   39 1
  39   21   22 ar
  40   21   40 1
  41   22   23 ar
  42   24   25 ar
  43   24   41 1
  44   25   26 ar
  45   25   42 1

#	End of record

