#	Name: ASD01914284
#	Creating user name:	WinNT
#	Creation time:	15. 06. 2019 20:03

#	Modifying user name:	WinNT
#	Modification time:	15. 06. 2019 20:03

#	Program:	/corina/corina34_cracker 3.40 0067  02.08.2006

@<TRIPOS>MOLECULE
ASD01914284
  34   36    0    0    0
SMALL
NO_CHARGES


@<TRIPOS>ATOM
   1 N1            -0.0169     1.3986     0.0097 N.pl3   
   2 N2             0.0021    -0.0041     0.0020 N.2     
   3 N3             1.2208    -0.4155    -0.0118 N.2     
   4 C4             2.0689     0.6325    -0.0143 C.ar    
   5 C5             1.2958     1.8066    -0.0006 C.ar    
   6 C6             1.9211     3.0486     0.0001 C.ar    
   7 C7             3.2961     3.1198    -0.0127 C.ar    
   8 C8             4.0606     1.9605    -0.0266 C.ar    
   9 C9             3.4661     0.7327    -0.0275 C.ar    
  10 C10           -1.2024     2.2592     0.0203 C.3     
  11 C11           -1.6076     2.5515     1.4664 C.3     
  12 C12           -2.8457     3.4503     1.4775 C.3     
  13 C13           -3.2355     3.7315     2.8688 C.1     
  14 C14           -3.5464     3.9558     3.9784 C.1     
  15 C15           -3.9257     4.2293     5.3319 C.ar    
  16 C16           -5.0354     5.0347     5.5907 C.ar    
  17 C17           -5.3890     5.2896     6.9038 C.ar    
  18 C18           -4.6219     4.7314     7.9172 C.ar    
  19 C19           -3.5347     3.9426     7.5896 C.ar    
  20 N20           -3.2217     3.7102     6.3312 N.ar    
  21 H21            1.3311     3.9531     0.0102 H       
  22 H22            3.7834     4.0837    -0.0121 H       
  23 H23            5.1382     2.0317    -0.0373 H       
  24 H24            4.0720    -0.1613    -0.0381 H       
  25 H25           -0.9763     3.1955    -0.4900 H       
  26 H26           -2.0220     1.7551    -0.4918 H       
  27 H27           -1.8338     1.6152     1.9767 H       
  28 H28           -0.7881     3.0556     1.9786 H       
  29 H29           -2.6196     4.3866     0.9672 H       
  30 H30           -3.6653     2.9462     0.9653 H       
  31 H31           -5.6100     5.4533     4.7777 H       
  32 H32           -6.2426     5.9095     7.1352 H       
  33 H33           -4.8719     4.9121     8.9522 H       
  34 H34           -2.9361     3.5075     8.3763 H       
@<TRIPOS>BOND
   1    1    2 1
   2    1    5 1
   3    1   10 1
   4    2    3 2
   5    3    4 1
   6    4    5 ar
   7    4    9 ar
   8    5    6 ar
   9    6    7 ar
  10    6   21 1
  11    7    8 ar
  12    7   22 1
  13    8    9 ar
  14    8   23 1
  15    9   24 1
  16   10   11 1
  17   10   25 1
  18   10   26 1
  19   11   12 1
  20   11   27 1
  21   11   28 1
  22   12   13 1
  23   12   29 1
  24   12   30 1
  25   13   14 3
  26   14   15 1
  27   15   16 ar
  28   15   20 ar
  29   16   17 ar
  30   16   31 1
  31   17   18 ar
  32   17   32 1
  33   18   19 ar
  34   18   33 1
  35   19   20 ar
  36   19   34 1

#	End of record

