#	Name: ASD01478094
#	Creating user name:	WinNT
#	Creation time:	15. 06. 2019 19:21

#	Modifying user name:	WinNT
#	Modification time:	15. 06. 2019 19:21

#	Program:	/corina/corina34_cracker 3.40 0067  02.08.2006

@<TRIPOS>MOLECULE
ASD01478094
  90   92    0    0    0
SMALL
NO_CHARGES


@<TRIPOS>ATOM
   1 C1             1.4580     1.5347     0.0943 C.2     
   2 N2             1.2226     0.2120     0.2013 N.am    
   3 O3             2.5693     1.9326    -0.1943 O.2     
   4 O4             0.4606     2.4149     0.3017 O.3     
   5 C5             2.3064    -0.7461    -0.0303 C.3     
   6 C6             1.7158    -2.0894    -0.4633 C.3     
   7 C7             2.8489    -3.0518    -0.8251 C.3     
   8 N8             2.2835    -4.2915    -1.3633 N.am    
   9 S9             2.4731    -5.7147    -0.5382 S.o2    
  10 O10            2.3431    -6.7551    -1.4974 O.2     
  11 O11            3.6222    -5.5530     0.2820 O.2     
  12 C12            1.0999    -5.8710     0.5547 C.ar    
  13 C13           -0.0512    -6.5085     0.1298 C.ar    
  14 C14           -1.1292    -6.6323     0.9847 C.ar    
  15 C15           -1.0562    -6.1164     2.2705 C.ar    
  16 C16            0.0998    -5.4773     2.6944 C.ar    
  17 C17            1.1772    -5.3610     1.8375 C.ar    
  18 O18           -2.1156    -6.2366     3.1132 O.3     
  19 C19           -1.9696    -5.6818     4.4220 C.3     
  20 C20            1.5503    -4.2722    -2.6315 C.3     
  21 C21            2.5149    -3.9460    -3.7734 C.3     
  22 C22            3.5654    -5.0527    -3.8854 C.3     
  23 C23            1.7360    -3.8474    -5.0866 C.3     
  24 O24            0.9475    -2.6397     0.6086 O.3     
  25 C25            3.1064    -0.9330     1.2604 C.3     
  26 C26            3.7887     0.3616     1.6204 C.ar    
  27 C27            3.1444     1.2818     2.4260 C.ar    
  28 C28            3.7703     2.4693     2.7562 C.ar    
  29 C29            5.0406     2.7364     2.2811 C.ar    
  30 C30            5.6853     1.8159     1.4762 C.ar    
  31 C31            5.0612     0.6265     1.1496 C.ar    
  32 C32            0.7865     3.8237     0.1696 C.3     
  33 C33           -0.4497     4.5910    -0.3036 C.3     
  34 O34           -0.3727     4.7939    -1.7160 O.3     
  35 C35           -1.2507     5.8094    -2.2060 C.3     
  36 C36           -0.4455     7.0721    -2.5192 C.3     
  37 O37           -0.8070     8.1072    -1.6027 O.3     
  38 C38            0.2907     8.9185    -1.1797 C.3     
  39 C39            0.2088     9.1392     0.3321 C.3     
  40 O40            1.4358     8.7306     0.9402 O.3     
  41 C41            1.2685     8.0419     2.1810 C.3     
  42 C42            1.8421     6.6286     2.0612 C.3     
  43 O43            0.8088     5.7277     1.6578 O.3     
  44 C44            1.2393     4.3716     1.5244 C.3     
  45 H45            0.3355    -0.1057     0.4316 H       
  46 H46            2.9637    -0.3687    -0.8137 H       
  47 H47            1.0739    -1.9412    -1.3317 H       
  48 H48            3.4921    -2.5905    -1.5745 H       
  49 H49            3.4336    -3.2764     0.0669 H       
  50 H50           -0.1076    -6.9096    -0.8714 H       
  51 H51           -2.0282    -7.1300     0.6523 H       
  52 H52            0.1591    -5.0748     3.6948 H       
  53 H53            2.0791    -4.8678     2.1685 H       
  54 H54           -1.7775    -4.6117     4.3437 H       
  55 H55           -2.8850    -5.8460     4.9905 H       
  56 H56           -1.1348    -6.1645     4.9302 H       
  57 H57            1.0988    -5.2490    -2.8051 H       
  58 H58            0.7690    -3.5134    -2.5879 H       
  59 H59            3.0087    -2.9954    -3.5716 H       
  60 H60            4.2527    -4.8203    -4.6989 H       
  61 H61            4.1203    -5.1230    -2.9499 H       
  62 H62            3.0716    -6.0033    -4.0873 H       
  63 H63            0.9876    -3.0589    -5.0068 H       
  64 H64            2.4232    -3.6150    -5.9001 H       
  65 H65            1.2422    -4.7979    -5.2884 H       
  66 H66            1.4558    -2.7983     1.4158 H       
  67 H67            2.4330    -1.2250     2.0662 H       
  68 H68            3.8562    -1.7104     1.1138 H       
  69 H69            2.1519     1.0731     2.7972 H       
  70 H70            3.2666     3.1885     3.3850 H       
  71 H71            5.5293     3.6645     2.5384 H       
  72 H72            6.6777     2.0247     1.1047 H       
  73 H73            5.5663    -0.0944     0.5237 H       
  74 H74            1.5894     3.9442    -0.5578 H       
  75 H75           -1.3459     4.0174    -0.0672 H       
  76 H76           -0.4929     5.5565     0.2004 H       
  77 H77           -1.7425     5.4578    -3.1129 H       
  78 H78           -2.0021     6.0360    -1.4496 H       
  79 H79            0.6189     6.8574    -2.4233 H       
  80 H80           -0.6603     7.3968    -3.5373 H       
  81 H81            1.2277     8.4179    -1.4237 H       
  82 H82            0.2492     9.8807    -1.6901 H       
  83 H83            0.0364    10.1959     0.5362 H       
  84 H84           -0.6128     8.5512     0.7411 H       
  85 H85            1.7931     8.5813     2.9696 H       
  86 H86            0.2075     7.9839     2.4242 H       
  87 H87            2.6401     6.6221     1.3187 H       
  88 H88            2.2410     6.3153     3.0260 H       
  89 H89            0.8031     3.7717     2.3231 H       
  90 H90            2.3265     4.3275     1.5892 H       
@<TRIPOS>BOND
   1    1    2 am
   2    1    3 2
   3    1    4 1
   4    2    5 1
   5    2   45 1
   6    4   32 1
   7    5    6 1
   8    5   25 1
   9    5   46 1
  10    6    7 1
  11    6   24 1
  12    6   47 1
  13    7    8 1
  14    7   48 1
  15    7   49 1
  16    8    9 am
  17    8   20 1
  18    9   10 2
  19    9   11 2
  20    9   12 1
  21   12   13 ar
  22   12   17 ar
  23   13   14 ar
  24   13   50 1
  25   14   15 ar
  26   14   51 1
  27   15   16 ar
  28   15   18 1
  29   16   17 ar
  30   16   52 1
  31   17   53 1
  32   18   19 1
  33   19   54 1
  34   19   55 1
  35   19   56 1
  36   20   21 1
  37   20   57 1
  38   20   58 1
  39   21   22 1
  40   21   23 1
  41   21   59 1
  42   22   60 1
  43   22   61 1
  44   22   62 1
  45   23   63 1
  46   23   64 1
  47   23   65 1
  48   24   66 1
  49   25   26 1
  50   25   67 1
  51   25   68 1
  52   26   27 ar
  53   26   31 ar
  54   27   28 ar
  55   27   69 1
  56   28   29 ar
  57   28   70 1
  58   29   30 ar
  59   29   71 1
  60   30   31 ar
  61   30   72 1
  62   31   73 1
  63   32   33 1
  64   32   44 1
  65   32   74 1
  66   33   34 1
  67   33   75 1
  68   33   76 1
  69   34   35 1
  70   35   36 1
  71   35   77 1
  72   35   78 1
  73   36   37 1
  74   36   79 1
  75   36   80 1
  76   37   38 1
  77   38   39 1
  78   38   81 1
  79   38   82 1
  80   39   40 1
  81   39   83 1
  82   39   84 1
  83   40   41 1
  84   41   42 1
  85   41   85 1
  86   41   86 1
  87   42   43 1
  88   42   87 1
  89   42   88 1
  90   43   44 1
  91   44   89 1
  92   44   90 1

#	End of record

