#	Name: ASD01910109
#	Creating user name:	WinNT
#	Creation time:	15. 06. 2019 19:55

#	Modifying user name:	WinNT
#	Modification time:	15. 06. 2019 19:55

#	Program:	/corina/corina34_cracker 3.40 0067  02.08.2006

@<TRIPOS>MOLECULE
ASD01910109
  43   46    0    0    0
SMALL
NO_CHARGES


@<TRIPOS>ATOM
   1 C1             0.1129     0.5046     0.4060 C.ar    
   2 C2             0.3427    -0.8572     0.4522 C.ar    
   3 C3             1.6355    -1.3543     0.3884 C.ar    
   4 C4             2.7032    -0.4788     0.2770 C.ar    
   5 C5             2.4687     0.9106     0.2294 C.ar    
   6 C6             1.1717     1.3929     0.2946 C.ar    
   7 C7             4.1692    -0.6447     0.1865 C.2     
   8 N8             4.7335     0.5730     0.0932 N.am    
   9 C9             3.8002     1.5416     0.1115 C.2     
  10 C10            6.1748     0.8126    -0.0134 C.3     
  11 C11            6.6005     0.6824    -1.4531 C.ar    
  12 C12            6.4505     1.7553    -2.3219 C.ar    
  13 C13            6.8439     1.6318    -3.6484 C.ar    
  14 C14            7.3829     0.4434    -4.0996 C.ar    
  15 C15            7.5314    -0.6244    -3.2315 C.ar    
  16 C16            7.1456    -0.5023    -1.9083 C.ar    
  17 N17            5.9037     2.9580    -1.8623 N.am    
  18 C18            5.3573     3.8271    -2.7355 C.2     
  19 C19            4.8854     5.1471    -2.2671 C.ar    
  20 N20            5.0020     5.4724    -0.9845 N.ar    
  21 C21            4.5955     6.6355    -0.5276 C.ar    
  22 C22            4.0246     7.5765    -1.3719 C.ar    
  23 C23            3.8810     7.2854    -2.7168 C.ar    
  24 C24            4.3241     6.0483    -3.1787 C.ar    
  25 O25            5.2525     3.5253    -3.9085 O.2     
  26 O26            4.0155     2.7348     0.0430 O.2     
  27 O27            4.7648    -1.7031     0.1955 O.2     
  28 Cl28           8.2095    -2.1171    -3.8021 Cl      
  29 O29            4.2046     5.7186    -4.4891 O.3     
  30 H30           -0.8989     0.8795     0.4524 H       
  31 H31           -0.4903    -1.5390     0.5391 H       
  32 H32            1.8093    -2.4196     0.4257 H       
  33 H33            0.9860     2.4562     0.2582 H       
  34 H34            6.4036     1.8167     0.3438 H       
  35 H35            6.7105     0.0810     0.5915 H       
  36 H36            6.7279     2.4646    -4.3263 H       
  37 H37            7.6887     0.3468    -5.1309 H       
  38 H38            7.2628    -1.3369    -1.2330 H       
  39 H39            5.9177     3.1664    -0.9151 H       
  40 H40            4.7074     6.8623     0.5224 H       
  41 H41            3.6947     8.5283    -0.9825 H       
  42 H42            3.4395     8.0022    -3.3933 H       
  43 H43            4.9673     5.9682    -5.0286 H       
@<TRIPOS>BOND
   1    1    2 ar
   2    1    6 ar
   3    1   30 1
   4    2    3 ar
   5    2   31 1
   6    3    4 ar
   7    3   32 1
   8    4    5 ar
   9    4    7 1
  10    5    6 ar
  11    5    9 1
  12    6   33 1
  13    7    8 am
  14    7   27 2
  15    8    9 am
  16    8   10 1
  17    9   26 2
  18   10   11 1
  19   10   34 1
  20   10   35 1
  21   11   12 ar
  22   11   16 ar
  23   12   13 ar
  24   12   17 1
  25   13   14 ar
  26   13   36 1
  27   14   15 ar
  28   14   37 1
  29   15   16 ar
  30   15   28 1
  31   16   38 1
  32   17   18 am
  33   17   39 1
  34   18   19 1
  35   18   25 2
  36   19   20 ar
  37   19   24 ar
  38   20   21 ar
  39   21   22 ar
  40   21   40 1
  41   22   23 ar
  42   22   41 1
  43   23   24 ar
  44   23   42 1
  45   24   29 1
  46   29   43 1

#	End of record

