#	Name: ASD00170775
#	Creating user name:	WinNT
#	Creation time:	15. 06. 2019 18:32

#	Modifying user name:	WinNT
#	Modification time:	15. 06. 2019 18:32

#	Program:	/corina/corina34_cracker 3.40 0067  02.08.2006

@<TRIPOS>MOLECULE
ASD00170775
  59   63    0    0    0
SMALL
NO_CHARGES


@<TRIPOS>ATOM
   1 Cl1            3.3438     6.8176    -5.5332 Cl      
   2 C2             2.4238     6.6414    -4.0716 C.ar    
   3 C3             2.9107     5.8546    -3.0407 C.ar    
   4 C4             2.1847     5.7112    -1.8772 C.ar    
   5 C5             0.9564     6.3609    -1.7395 C.ar    
   6 C6             0.4709     7.1526    -2.7822 C.ar    
   7 C7             1.2085     7.2926    -3.9388 C.ar    
   8 C8             0.1730     6.2108    -0.4948 C.2     
   9 O9             0.5568     5.4547     0.3786 O.2     
  10 C10           -1.0662     6.9725    -0.3124 C.2     
  11 C11           -2.3135     6.4540    -0.5729 C.2     
  12 S12           -3.5196     7.6161    -0.2488 S.3     
  13 C13           -2.3256     8.8073     0.2412 C.2     
  14 C14           -1.0918     8.2917     0.1483 C.2     
  15 C15            0.1528     9.0659     0.4987 C.3     
  16 C16            0.4568     8.8956     1.9884 C.3     
  17 C17            0.6244     7.4087     2.3080 C.3     
  18 C18            1.7481     9.6401     2.3338 C.3     
  19 C19           -0.6979     9.4675     2.8133 C.3     
  20 C20           -2.6368    10.1791     0.6953 C.ar    
  21 C21           -1.9798    11.2805     0.1347 C.ar    
  22 C22           -2.3080    12.5439     0.5946 C.ar    
  23 C23           -3.2654    12.6767     1.5839 C.ar    
  24 N24           -3.8688    11.6202     2.0943 N.ar    
  25 C25           -3.5951    10.3985     1.6864 C.ar    
  26 N26           -2.5561     5.1688    -1.0342 N.am    
  27 C27           -2.6591     4.0838    -0.2455 C.2     
  28 O28           -2.5560     4.0748     0.9645 O.2     
  29 C29           -2.9186     2.9049    -1.0979 C.ar    
  30 C30           -2.9569     3.3874    -2.4223 C.ar    
  31 C31           -2.7250     4.8439    -2.3286 C.2     
  32 O32           -2.6860     5.6170    -3.2644 O.2     
  33 C33           -3.1855     2.5089    -3.4693 C.ar    
  34 C34           -3.3750     1.1612    -3.2066 C.ar    
  35 C35           -3.3375     0.6881    -1.9082 C.ar    
  36 C36           -3.1098     1.5549    -0.8507 C.ar    
  37 H37            3.8606     5.3523    -3.1486 H       
  38 H38            2.5651     5.0972    -1.0743 H       
  39 H39           -0.4786     7.6572    -2.6815 H       
  40 H40            0.8340     7.9047    -4.7460 H       
  41 H41            0.9912     8.6911    -0.0885 H       
  42 H42           -0.0021    10.1220     0.2779 H       
  43 H43            1.4470     7.0012     1.7204 H       
  44 H44            0.8410     7.2874     3.3694 H       
  45 H45           -0.2955     6.8783     2.0620 H       
  46 H46            1.6287    10.6993     2.1061 H       
  47 H47            1.9647     9.5188     3.3951 H       
  48 H48            2.5707     9.2326     1.7461 H       
  49 H49           -1.5946     8.8711     2.6455 H       
  50 H50           -0.4367     9.4411     3.8712 H       
  51 H51           -0.8849    10.4979     2.5109 H       
  52 H52           -1.2356    11.1479    -0.6367 H       
  53 H53           -1.8213    13.4169     0.1855 H       
  54 H54           -3.5231    13.6615     1.9448 H       
  55 H55           -4.1102     9.5584     2.1284 H       
  56 H56           -3.2163     2.8729    -4.4856 H       
  57 H57           -3.5536     0.4759    -4.0220 H       
  58 H58           -3.4869    -0.3642    -1.7164 H       
  59 H59           -3.0812     1.1795     0.1616 H       
@<TRIPOS>BOND
   1    1    2 1
   2    2    3 ar
   3    2    7 ar
   4    3    4 ar
   5    3   37 1
   6    4    5 ar
   7    4   38 1
   8    5    6 ar
   9    5    8 1
  10    6    7 ar
  11    6   39 1
  12    7   40 1
  13    8    9 2
  14    8   10 1
  15   10   11 2
  16   10   14 1
  17   11   12 1
  18   11   26 1
  19   12   13 1
  20   13   14 2
  21   13   20 1
  22   14   15 1
  23   15   16 1
  24   15   41 1
  25   15   42 1
  26   16   17 1
  27   16   18 1
  28   16   19 1
  29   17   43 1
  30   17   44 1
  31   17   45 1
  32   18   46 1
  33   18   47 1
  34   18   48 1
  35   19   49 1
  36   19   50 1
  37   19   51 1
  38   20   21 ar
  39   20   25 ar
  40   21   22 ar
  41   21   52 1
  42   22   23 ar
  43   22   53 1
  44   23   24 ar
  45   23   54 1
  46   24   25 ar
  47   25   55 1
  48   26   27 am
  49   26   31 am
  50   27   28 2
  51   27   29 1
  52   29   30 ar
  53   29   36 ar
  54   30   31 1
  55   30   33 ar
  56   31   32 2
  57   33   34 ar
  58   33   56 1
  59   34   35 ar
  60   34   57 1
  61   35   36 ar
  62   35   58 1
  63   36   59 1

#	End of record

