#	Name: ASD01920016
#	Creating user name:	WinNT
#	Creation time:	15. 06. 2019 20:11

#	Modifying user name:	WinNT
#	Modification time:	15. 06. 2019 20:11

#	Program:	/corina/corina34_cracker 3.40 0067  02.08.2006

@<TRIPOS>MOLECULE
ASD01920016
  45   48    0    0    0
SMALL
NO_CHARGES


@<TRIPOS>ATOM
   1 N1            -0.0176     1.3627     0.1069 N.am    
   2 C2             0.0023    -0.0037    -0.0000 C.2     
   3 C3            -1.1525    -0.7275    -0.0904 C.2     
   4 C4            -2.3851    -0.0664    -0.0736 C.2     
   5 C5            -2.3957     1.3365     0.0369 C.2     
   6 C6            -1.1849     2.0415     0.1325 C.2     
   7 O7            -3.6723    -0.4334    -0.1396 O.3     
   8 N8            -4.4361     0.5033    -0.0876 N.2     
   9 C9            -3.8258     1.6595     0.0213 C.2     
  10 C10           -4.4481     3.0030     0.1103 C.ar    
  11 O11           -1.1872     3.2568     0.2289 O.2     
  12 C12            1.2464     2.0974     0.2008 C.3     
  13 C13            1.2993    -0.7078    -0.0184 C.ar    
  14 C14           -5.6178     3.2801    -0.5950 C.ar    
  15 C15           -6.1924     4.5319    -0.5086 C.ar    
  16 C16           -5.6094     5.5108     0.2759 C.ar    
  17 C17           -4.4482     5.2414     0.9778 C.ar    
  18 C18           -3.8685     3.9911     0.9040 C.ar    
  19 C19            2.3140    -0.2841    -0.8809 C.ar    
  20 C20            3.5228    -0.9433    -0.8956 C.ar    
  21 C21            3.7347    -2.0301    -0.0529 C.ar    
  22 C22            2.7265    -2.4544     0.8071 C.ar    
  23 C23            1.5173    -1.7961     0.8308 C.ar    
  24 N24            4.9587    -2.6950    -0.0705 N.pl3   
  25 C25            6.0211    -2.2498    -0.9757 C.3     
  26 C26            5.1834    -3.8394     0.8160 C.3     
  27 H27           -1.1141    -1.8035    -0.1747 H       
  28 H28            1.6351     2.2810    -0.8008 H       
  29 H29            1.0770     3.0488     0.7049 H       
  30 H30            1.9674     1.5089     0.7682 H       
  31 H31           -6.0734     2.5169    -1.2084 H       
  32 H32           -7.0988     4.7478    -1.0547 H       
  33 H33           -6.0622     6.4891     0.3404 H       
  34 H34           -3.9969     6.0096     1.5882 H       
  35 H35           -2.9619     3.7819     1.4523 H       
  36 H36            2.1500     0.5591    -1.5355 H       
  37 H37            4.3072    -0.6166    -1.5621 H       
  38 H38            2.8941    -3.2983     1.4599 H       
  39 H39            0.7352    -2.1260     1.4985 H       
  40 H40            6.6391    -1.5061    -0.4726 H       
  41 H41            6.6376    -3.1027    -1.2595 H       
  42 H42            5.5770    -1.8094    -1.8684 H       
  43 H43            4.8847    -4.7565     0.3083 H       
  44 H44            6.2405    -3.8957     1.0757 H       
  45 H45            4.5923    -3.7175     1.7237 H       
@<TRIPOS>BOND
   1    1    2 1
   2    1   12 1
   3    1    6 am
   4    2    3 2
   5    2   13 1
   6    3    4 1
   7    3   27 1
   8    4    5 2
   9    4    7 1
  10    5    6 1
  11    5    9 1
  12    6   11 2
  13    7    8 1
  14    8    9 2
  15    9   10 1
  16   10   14 ar
  17   10   18 ar
  18   12   28 1
  19   12   29 1
  20   12   30 1
  21   13   19 ar
  22   13   23 ar
  23   14   15 ar
  24   14   31 1
  25   15   16 ar
  26   15   32 1
  27   16   17 ar
  28   16   33 1
  29   17   18 ar
  30   17   34 1
  31   18   35 1
  32   19   20 ar
  33   19   36 1
  34   20   21 ar
  35   20   37 1
  36   21   22 ar
  37   21   24 1
  38   22   23 ar
  39   22   38 1
  40   23   39 1
  41   24   25 1
  42   24   26 1
  43   25   40 1
  44   25   41 1
  45   25   42 1
  46   26   43 1
  47   26   44 1
  48   26   45 1

#	End of record

