#	Name: ASD07300158
#	Creating user name:	WinNT
#	Creation time:	15. 06. 2019 21:09

#	Modifying user name:	WinNT
#	Modification time:	15. 06. 2019 21:09

#	Program:	/corina/corina34_cracker 3.40 0067  02.08.2006

@<TRIPOS>MOLECULE
ASD07300158
  42   45    0    0    0
SMALL
NO_CHARGES


@<TRIPOS>ATOM
   1 C1            -0.0293     1.3865     0.1045 C.ar    
   2 C2            -0.0119    -0.0106     0.1588 C.ar    
   3 C3             1.2032    -0.6776     0.1151 C.ar    
   4 C4             2.3631     0.0774     0.0183 C.ar    
   5 C5             2.2718     1.4557    -0.0309 C.ar    
   6 N6             1.1026     2.0647     0.0118 N.ar    
   7 C7            -2.1232     0.6630     0.2640 C.2     
   8 N8            -1.3637     1.7704     0.1727 N.am    
   9 N9            -1.3358    -0.4295     0.2525 N.am    
  10 O10           -3.3375     0.6506     0.3410 O.2     
  11 C11           -1.7933    -1.8189     0.3333 C.3     
  12 C12           -1.8685    -2.2465     1.8004 C.3     
  13 C13           -1.8388     3.0902     0.1501 C.ar    
  14 C14           -3.2026     3.3386     0.2255 C.ar    
  15 C15           -3.6698     4.6377     0.2032 C.ar    
  16 C16           -2.7764     5.6949     0.1054 C.ar    
  17 C17           -1.4133     5.4470     0.0296 C.ar    
  18 C18           -0.9449     4.1484     0.0581 C.ar    
  19 O19           -3.2368     6.9738     0.0835 O.3     
  20 C20           -4.5755     7.1668    -0.0014 C.2     
  21 N21           -5.4734     6.2311    -0.1881 N.2     
  22 C22           -6.6965     6.7879    -0.2184 C.2     
  23 C23           -6.5595     8.1159    -0.0450 C.2     
  24 N24           -5.2136     8.3634     0.0988 N.pl3   
  25 C25           -4.5865     9.6695     0.3155 C.3     
  26 Cl26          -7.8370     9.2906    -0.0051 Cl      
  27 Cl27          -8.1948     5.9405    -0.4432 Cl      
  28 H28            1.2455    -1.7561     0.1557 H       
  29 H29            3.3277    -0.4069    -0.0178 H       
  30 H30            3.1741     2.0445    -0.1059 H       
  31 H31           -2.7806    -1.9033    -0.1208 H       
  32 H32           -1.0929    -2.4636    -0.1976 H       
  33 H33           -2.2089    -3.2802     1.8606 H       
  34 H34           -0.8812    -2.1621     2.2546 H       
  35 H35           -2.5690    -1.6018     2.3314 H       
  36 H36           -3.8981     2.5158     0.3012 H       
  37 H37           -4.7307     4.8310     0.2614 H       
  38 H38           -0.7183     6.2701    -0.0471 H       
  39 H39            0.1164     3.9558     0.0039 H       
  40 H40           -4.3485    10.1225    -0.6469 H       
  41 H41           -5.2733    10.3162     0.8616 H       
  42 H42           -3.6711     9.5417     0.8932 H       
@<TRIPOS>BOND
   1    1    2 ar
   2    1    6 ar
   3    1    8 1
   4    2    3 ar
   5    2    9 1
   6    3    4 ar
   7    3   28 1
   8    4    5 ar
   9    4   29 1
  10    5    6 ar
  11    5   30 1
  12    7    8 am
  13    7    9 am
  14    7   10 2
  15    8   13 1
  16    9   11 1
  17   11   12 1
  18   11   31 1
  19   11   32 1
  20   12   33 1
  21   12   34 1
  22   12   35 1
  23   13   14 ar
  24   13   18 ar
  25   14   15 ar
  26   14   36 1
  27   15   16 ar
  28   15   37 1
  29   16   17 ar
  30   16   19 1
  31   17   18 ar
  32   17   38 1
  33   18   39 1
  34   19   20 1
  35   20   21 2
  36   20   24 1
  37   21   22 1
  38   22   23 2
  39   22   27 1
  40   23   24 1
  41   23   26 1
  42   24   25 1
  43   25   40 1
  44   25   41 1
  45   25   42 1

#	End of record

