#	Name: ASD01815971
#	Creating user name:	WinNT
#	Creation time:	15. 06. 2019 19:34

#	Modifying user name:	WinNT
#	Modification time:	15. 06. 2019 19:34

#	Program:	/corina/corina34_cracker 3.40 0067  02.08.2006

@<TRIPOS>MOLECULE
ASD01815971
  52   56    0    0    0
SMALL
NO_CHARGES


@<TRIPOS>ATOM
   1 C1             0.0425     1.4705    -0.0421 C.ar    
   2 C2             0.0374     0.0851    -0.0422 C.ar    
   3 C3             1.2216    -0.6224    -0.0459 C.ar    
   4 C4             2.4367     0.0535    -0.0496 C.ar    
   5 C5             2.4385     1.4583    -0.0495 C.ar    
   6 C6             1.2377     2.1603    -0.0457 C.ar    
   7 N7             3.6286    -0.6504    -0.0529 N.pl3   
   8 C8             4.8308    -0.0526    -0.0561 C.2     
   9 C9             4.9574     1.3143    -0.0568 C.2     
  10 C10            3.7388     2.1555    -0.0535 C.2     
  11 C11            6.0711     2.2579    -0.0607 C.2     
  12 N12            5.5197     3.4907    -0.0600 N.am    
  13 N13            4.1256     3.3987    -0.0557 N.2     
  14 C14            6.2425     4.6905    -0.0630 C.ar    
  15 O15            7.2610     1.9872    -0.0632 O.2     
  16 C16            3.5758    -2.1145    -0.0523 C.3     
  17 C17            3.5537    -2.6169    -1.4729 C.ar    
  18 C18            4.7412    -2.8900    -2.1267 C.ar    
  19 C19            4.7245    -3.3506    -3.4285 C.ar    
  20 C20            3.5129    -3.5394    -4.0813 C.ar    
  21 C21            2.3219    -3.2641    -3.4216 C.ar    
  22 C22            2.3456    -2.8091    -2.1179 C.ar    
  23 C23            6.6879     5.2317    -1.2616 C.ar    
  24 C24            7.4005     6.4150    -1.2614 C.ar    
  25 C25            7.6715     7.0615    -0.0693 C.ar    
  26 C26            7.2302     6.5269     1.1270 C.ar    
  27 C27            6.5108     5.3456     1.1341 C.ar    
  28 F28            6.0792     4.8232     2.3029 F       
  29 N29            3.4924    -4.0046    -5.3981 N.pl3   
  30 C30            4.7471    -4.1710    -6.1358 C.3     
  31 C31            2.2162    -4.3261    -6.0416 C.3     
  32 H32           -0.8917     2.0124    -0.0438 H       
  33 H33           -0.9029    -0.4462    -0.0390 H       
  34 H34            1.2050    -1.7023    -0.0456 H       
  35 H35            1.2407     3.2403    -0.0460 H       
  36 H36            5.7217    -0.6631    -0.0577 H       
  37 H37            4.4537    -2.5095     0.4591 H       
  38 H38            2.6749    -2.4454     0.4642 H       
  39 H39            5.6829    -2.7427    -1.6187 H       
  40 H40            5.6523    -3.5633    -3.9387 H       
  41 H41            1.3782    -3.4098    -3.9262 H       
  42 H42            1.4200    -2.5952    -1.6043 H       
  43 H43            6.4777     4.7276    -2.1933 H       
  44 H44            7.7468     6.8358    -2.1938 H       
  45 H45            8.2295     7.9862    -0.0728 H       
  46 H46            7.4439     7.0341     2.0562 H       
  47 H47            5.1302    -5.1793    -5.9783 H       
  48 H48            4.5671    -4.0128    -7.1992 H       
  49 H49            5.4775    -3.4449    -5.7789 H       
  50 H50            1.4091    -4.2320    -5.3151 H       
  51 H51            2.0426    -3.6377    -6.8686 H       
  52 H52            2.2472    -5.3479    -6.4198 H       
@<TRIPOS>BOND
   1    1    2 ar
   2    1    6 ar
   3    1   32 1
   4    2    3 ar
   5    2   33 1
   6    3    4 ar
   7    3   34 1
   8    4    5 ar
   9    4    7 1
  10    5    6 ar
  11    5   10 1
  12    6   35 1
  13    7    8 1
  14    7   16 1
  15    8    9 2
  16    8   36 1
  17    9   10 1
  18    9   11 1
  19   10   13 2
  20   11   12 am
  21   11   15 2
  22   12   13 1
  23   12   14 1
  24   14   23 ar
  25   14   27 ar
  26   16   17 1
  27   16   37 1
  28   16   38 1
  29   17   18 ar
  30   17   22 ar
  31   18   19 ar
  32   18   39 1
  33   19   20 ar
  34   19   40 1
  35   20   21 ar
  36   20   29 1
  37   21   22 ar
  38   21   41 1
  39   22   42 1
  40   23   24 ar
  41   23   43 1
  42   24   25 ar
  43   24   44 1
  44   25   26 ar
  45   25   45 1
  46   26   27 ar
  47   26   46 1
  48   27   28 1
  49   29   30 1
  50   29   31 1
  51   30   47 1
  52   30   48 1
  53   30   49 1
  54   31   50 1
  55   31   51 1
  56   31   52 1

#	End of record

