#	Name: ASD03092512
#	Creating user name:	WinNT
#	Creation time:	15. 06. 2019 20:32

#	Modifying user name:	WinNT
#	Modification time:	15. 06. 2019 20:32

#	Program:	/corina/corina34_cracker 3.40 0067  02.08.2006

@<TRIPOS>MOLECULE
ASD03092512
  39   41    0    0    0
SMALL
NO_CHARGES


@<TRIPOS>ATOM
   1 O1            -0.0160     1.3323     0.0094 O.3     
   2 C2             0.0021    -0.0041     0.0020 C.2     
   3 C3             1.3022    -0.4169    -0.0126 C.2     
   4 C4             2.1079     0.8128    -0.0137 C.2     
   5 C5             1.2311     1.8283     0.0001 C.2     
   6 C6             1.7959    -1.8055    -0.0248 C.2     
   7 O7             1.0073    -2.7313    -0.0222 O.2     
   8 N8             3.1213    -2.0494    -0.0387 N.am    
   9 C9             3.6121    -3.4297    -0.0508 C.3     
  10 N10            9.2404    -3.4235     0.1687 N.pl3   
  11 C11            9.4220    -3.4304     1.5249 C.2     
  12 C12            8.2319    -3.4345     2.1459 C.2     
  13 C13            7.2042    -3.4300     1.1020 C.ar    
  14 C14            5.8079    -3.4321     1.1146 C.ar    
  15 C15            5.1190    -3.4269    -0.0652 C.ar    
  16 C16            5.7960    -3.4197    -1.2772 C.ar    
  17 C17            7.1731    -3.4180    -1.3127 C.ar    
  18 C18            7.8949    -3.4231    -0.1234 C.ar    
  19 C19           10.7598    -3.4333     2.2187 C.3     
  20 C20            1.5893     3.2921     0.0041 C.3     
  21 C21           -1.2081    -0.9022     0.0087 C.3     
  22 H22            3.1855     0.8842    -0.0231 H       
  23 H23            3.7503    -1.3110    -0.0408 H       
  24 H24            3.2581    -3.9489     0.8398 H       
  25 H25            3.2412    -3.9394    -0.9401 H       
  26 H26            9.9534    -3.4159    -0.4889 H       
  27 H27            8.0639    -3.4402     3.2127 H       
  28 H28            5.2745    -3.4386     2.0536 H       
  29 H29            5.2375    -3.4157    -2.2016 H       
  30 H30            7.6906    -3.4127    -2.2606 H       
  31 H31           11.0817    -2.4064     2.3915 H       
  32 H32           10.6730    -3.9524     3.1732 H       
  33 H33           11.4924    -3.9432     1.5930 H       
  34 H34            0.6775     3.8893     0.0161 H       
  35 H35            2.1835     3.5183     0.8895 H       
  36 H36            2.1660     3.5275    -0.8904 H       
  37 H37           -2.1122    -0.2935     0.0202 H       
  38 H38           -1.2019    -1.5268    -0.8845 H       
  39 H39           -1.1853    -1.5358     0.8954 H       
@<TRIPOS>BOND
   1    1    2 1
   2    1    5 1
   3    2    3 2
   4    2   21 1
   5    3    4 1
   6    3    6 1
   7    4    5 2
   8    4   22 1
   9    5   20 1
  10    6    7 2
  11    6    8 am
  12    8    9 1
  13    8   23 1
  14    9   15 1
  15    9   24 1
  16    9   25 1
  17   10   11 1
  18   10   18 1
  19   10   26 1
  20   11   12 2
  21   11   19 1
  22   12   13 1
  23   12   27 1
  24   13   14 ar
  25   13   18 ar
  26   14   15 ar
  27   14   28 1
  28   15   16 ar
  29   16   17 ar
  30   16   29 1
  31   17   18 ar
  32   17   30 1
  33   19   31 1
  34   19   32 1
  35   19   33 1
  36   20   34 1
  37   20   35 1
  38   20   36 1
  39   21   37 1
  40   21   38 1
  41   21   39 1

#	End of record

