#	Name: ASD01882427
#	Creating user name:	WinNT
#	Creation time:	15. 06. 2019 19:44

#	Modifying user name:	WinNT
#	Modification time:	15. 06. 2019 19:44

#	Program:	/corina/corina34_cracker 3.40 0067  02.08.2006

@<TRIPOS>MOLECULE
ASD01882427
  53   57    0    0    0
SMALL
NO_CHARGES


@<TRIPOS>ATOM
   1 C1            -0.0036     1.4595     0.1789 C.2     
   2 C2             0.0170    -0.0042     0.1798 C.2     
   3 C3             1.2465    -0.6462    -0.0133 C.2     
   4 C4             2.4044     0.1333    -0.1991 C.2     
   5 C5             2.3458     1.4783    -0.1932 C.2     
   6 N6             1.1712     2.1454    -0.0093 N.pl3   
   7 N7            -0.4516     3.5390     0.2411 N.2     
   8 N8            -0.9570     2.3582     0.3221 N.2     
   9 C9             0.8372     3.4679     0.0395 C.2     
  10 C10           -1.1853    -0.7578     0.3730 C.1     
  11 N11           -2.1391    -1.3556     0.5262 N.1     
  12 N12            1.3225    -2.0264    -0.0210 N.pl3   
  13 C13            2.0977    -2.7391     1.0035 C.3     
  14 C14            3.0920    -3.6741     0.3078 C.3     
  15 C15            2.3356    -4.5892    -0.6578 C.3     
  16 C16            1.6398    -3.7427    -1.7262 C.3     
  17 C17            0.6245    -2.8088    -1.0503 C.3     
  18 C18            3.3063    -5.5335    -1.3189 C.ar    
  19 C19            3.1552    -6.8991    -1.1659 C.ar    
  20 C20            4.0457    -7.7652    -1.7723 C.ar    
  21 C21            5.0869    -7.2659    -2.5321 C.ar    
  22 C22            5.2375    -5.9004    -2.6859 C.ar    
  23 C23            4.3445    -5.0344    -2.0831 C.ar    
  24 C24            1.7815     4.6324    -0.1134 C.3     
  25 C25            1.8758     5.0221    -1.5899 C.3     
  26 C26            2.7223     6.2810    -1.8419 C.3     
  27 C27            3.2818     5.5613    -3.0803 C.3     
  28 C28            2.9491     4.2407    -2.3659 C.3     
  29 H29            3.3555    -0.3561    -0.3485 H       
  30 H30            3.2542     2.0442    -0.3380 H       
  31 H31            2.6403    -2.0200     1.6172 H       
  32 H32            1.4243    -3.3233     1.6307 H       
  33 H33            3.8206    -3.0827    -0.2467 H       
  34 H34            3.6064    -4.2789     1.0547 H       
  35 H35            1.5902    -5.1623    -0.1064 H       
  36 H36            2.3821    -3.1507    -2.2616 H       
  37 H37            1.1207    -4.3964    -2.4271 H       
  38 H38           -0.1666    -3.3985    -0.5871 H       
  39 H39            0.1948    -2.1357    -1.7921 H       
  40 H40            2.3417    -7.2892    -0.5722 H       
  41 H41            3.9280    -8.8321    -1.6521 H       
  42 H42            5.7830    -7.9426    -3.0053 H       
  43 H43            6.0512    -5.5103    -3.2793 H       
  44 H44            4.4599    -3.9676    -2.2063 H       
  45 H45            1.4098     5.4796     0.4630 H       
  46 H46            2.7689     4.3498     0.2516 H       
  47 H47            0.9050     5.0424    -2.0852 H       
  48 H48            2.1303     7.1646    -2.0806 H       
  49 H49            3.4692     6.4666    -1.0701 H       
  50 H50            2.6960     5.7283    -3.9842 H       
  51 H51            4.3497     5.7189    -3.2316 H       
  52 H52            3.7581     3.8685    -1.7374 H       
  53 H53            2.5404     3.4772    -3.0277 H       
@<TRIPOS>BOND
   1    1    2 1
   2    1    6 1
   3    1    8 2
   4    2    3 2
   5    2   10 1
   6    3    4 1
   7    3   12 1
   8    4    5 2
   9    4   29 1
  10    5    6 1
  11    5   30 1
  12    6    9 1
  13    7    8 1
  14    7    9 2
  15    9   24 1
  16   10   11 3
  17   12   13 1
  18   12   17 1
  19   13   14 1
  20   13   31 1
  21   13   32 1
  22   14   15 1
  23   14   33 1
  24   14   34 1
  25   15   16 1
  26   15   18 1
  27   15   35 1
  28   16   17 1
  29   16   36 1
  30   16   37 1
  31   17   38 1
  32   17   39 1
  33   18   19 ar
  34   18   23 ar
  35   19   20 ar
  36   19   40 1
  37   20   21 ar
  38   20   41 1
  39   21   22 ar
  40   21   42 1
  41   22   23 ar
  42   22   43 1
  43   23   44 1
  44   24   25 1
  45   24   45 1
  46   24   46 1
  47   25   26 1
  48   25   28 1
  49   25   47 1
  50   26   27 1
  51   26   48 1
  52   26   49 1
  53   27   28 1
  54   27   50 1
  55   27   51 1
  56   28   52 1
  57   28   53 1

#	End of record

