#	Name: ASD03570043
#	Creating user name:	WinNT
#	Creation time:	15. 06. 2019 20:43

#	Modifying user name:	WinNT
#	Modification time:	15. 06. 2019 20:43

#	Program:	/corina/corina34_cracker 3.40 0067  02.08.2006

@<TRIPOS>MOLECULE
ASD03570043
  59   62    0    0    0
SMALL
NO_CHARGES


@<TRIPOS>ATOM
   1 C1             0.5372     0.1115     0.4935 C.ar    
   2 C2             0.8350    -0.1464     1.8242 C.ar    
   3 C3             2.0551    -0.6975     2.1633 C.ar    
   4 C4             2.9800    -0.9919     1.1782 C.ar    
   5 C5             2.6861    -0.7355    -0.1482 C.ar    
   6 C6             1.4666    -0.1851    -0.4929 C.ar    
   7 C7             1.1465     0.0931    -1.9389 C.3     
   8 C8             2.3200    -0.3493    -2.8153 C.3     
   9 C9            -0.1106    -0.6808    -2.3411 C.3     
  10 C10            0.9051     1.5920    -2.1285 C.3     
  11 O11           -0.6648     0.6485     0.1567 O.3     
  12 C12           -1.7343    -0.1836     0.0758 C.ar    
  13 C13           -4.0907    -0.5215    -0.2278 C.ar    
  14 C14           -3.8611    -1.8822    -0.0807 C.ar    
  15 C15           -2.5751    -2.3311     0.1438 C.ar    
  16 N16           -1.5630    -1.4863     0.2149 N.ar    
  17 C17           -3.0068     0.3445    -0.1481 C.ar    
  18 N18           -3.1884     1.7251    -0.2897 N.pl3   
  19 C19           -4.4675     2.2525    -0.3526 C.2     
  20 C20           -6.6967     2.2133    -0.4118 C.2     
  21 C21           -6.5559     3.5524    -0.4805 C.2     
  22 S22           -4.8329     3.9191    -0.4577 S.3     
  23 N23           -5.5601     1.5514    -0.3458 N.2     
  24 C24           -8.0409     1.5320    -0.4078 C.3     
  25 C25           -7.6536     4.5389    -0.5630 C.ar    
  26 C26           -7.7206     5.5898     0.3535 C.ar    
  27 C27           -8.7460     6.5081     0.2727 C.ar    
  28 C28           -9.7108     6.3887    -0.7183 C.ar    
  29 C29           -9.6479     5.3452    -1.6318 C.ar    
  30 C30           -8.6229     4.4256    -1.5612 C.ar    
  31 O31          -10.7202     7.2959    -0.7942 O.3     
  32 C32          -11.6790     7.1138    -1.8381 C.3     
  33 F33          -12.3018     5.8702    -1.6875 F       
  34 F34          -12.6403     8.1280    -1.7705 F       
  35 F35          -11.0335     7.1650    -3.0783 F       
  36 F36           -8.5137     1.4256    -1.7201 F       
  37 F37           -7.9143     0.2541     0.1474 F       
  38 F38           -8.9425     2.2838     0.3532 F       
  39 H39            0.1133     0.0839     2.5940 H       
  40 H40            2.2874    -0.8984     3.1987 H       
  41 H41            3.9337    -1.4224     1.4455 H       
  42 H42            3.4102    -0.9660    -0.9156 H       
  43 H43            2.4920    -1.4172    -2.6802 H       
  44 H44            2.0884    -0.1481    -3.8613 H       
  45 H45            3.2155     0.2020    -2.5288 H       
  46 H46           -0.9792    -0.2446    -1.8477 H       
  47 H47           -0.2409    -0.6258    -3.4218 H       
  48 H48           -0.0072    -1.7233    -2.0401 H       
  49 H49            1.8007     2.1434    -1.8421 H       
  50 H50            0.6735     1.7933    -3.1745 H       
  51 H51            0.0691     1.9072    -1.5042 H       
  52 H52           -5.0874    -0.1449    -0.4042 H       
  53 H53           -4.6811    -2.5827    -0.1368 H       
  54 H54           -2.3937    -3.3895     0.2590 H       
  55 H55           -2.4185     2.3126    -0.3438 H       
  56 H56           -6.9706     5.6831     1.1250 H       
  57 H57           -8.7988     7.3212     0.9816 H       
  58 H58          -10.4005     5.2559    -2.4012 H       
  59 H59           -8.5723     3.6164    -2.2747 H       
@<TRIPOS>BOND
   1    1    2 ar
   2    1    6 ar
   3    1   11 1
   4    2    3 ar
   5    2   39 1
   6    3    4 ar
   7    3   40 1
   8    4    5 ar
   9    4   41 1
  10    5    6 ar
  11    5   42 1
  12    6    7 1
  13    7    8 1
  14    7    9 1
  15    7   10 1
  16    8   43 1
  17    8   44 1
  18    8   45 1
  19    9   46 1
  20    9   47 1
  21    9   48 1
  22   10   49 1
  23   10   50 1
  24   10   51 1
  25   11   12 1
  26   12   17 ar
  27   12   16 ar
  28   13   14 ar
  29   13   17 ar
  30   13   52 1
  31   14   15 ar
  32   14   53 1
  33   15   16 ar
  34   15   54 1
  35   17   18 1
  36   18   19 1
  37   18   55 1
  38   19   23 2
  39   19   22 1
  40   20   21 2
  41   20   23 1
  42   20   24 1
  43   21   22 1
  44   21   25 1
  45   24   36 1
  46   24   37 1
  47   24   38 1
  48   25   26 ar
  49   25   30 ar
  50   26   27 ar
  51   26   56 1
  52   27   28 ar
  53   27   57 1
  54   28   29 ar
  55   28   31 1
  56   29   30 ar
  57   29   58 1
  58   30   59 1
  59   31   32 1
  60   32   33 1
  61   32   34 1
  62   32   35 1

#	End of record

