#	Name: ASD07300001
#	Creating user name:	WinNT
#	Creation time:	15. 06. 2019 21:09

#	Modifying user name:	WinNT
#	Modification time:	15. 06. 2019 21:09

#	Program:	/corina/corina34_cracker 3.40 0067  02.08.2006

@<TRIPOS>MOLECULE
ASD07300001
  26   27    0    0    0
SMALL
NO_CHARGES


@<TRIPOS>ATOM
   1 C1            -0.0180     1.4737     0.0101 C.2     
   2 C2             0.0021    -0.0041     0.0020 C.2     
   3 C3            -1.3294    -0.4088     0.0125 C.2     
   4 C4            -2.1363     0.8432     0.0270 C.2     
   5 N5            -1.2946     1.8909     0.0304 N.am    
   6 O6             0.9605     2.1935     0.0047 O.2     
   7 O7            -3.3480     0.9064     0.0385 O.2     
   8 C8             1.1844    -0.8680    -0.0143 C.2     
   9 O9             1.0542    -2.0743    -0.0200 O.2     
  10 C10           -1.8356    -1.7886     0.0095 C.ar    
  11 C11           -2.5485    -2.2774     1.1140 C.ar    
  12 C12           -3.0183    -3.5594     1.1090 C.ar    
  13 C13           -2.7891    -4.3850     0.0035 C.ar    
  14 C14           -2.0780    -3.8996    -1.0988 C.ar    
  15 C15           -1.6114    -2.6164    -1.1002 C.ar    
  16 C16            2.5627    -0.2589    -0.0241 C.3     
  17 C17           -3.2827    -5.7292     0.0003 C.1     
  18 N18           -3.6743    -6.7956    -0.0021 N.1     
  19 H19           -1.5711     2.8206     0.0393 H       
  20 H20           -2.7254    -1.6404     1.9679 H       
  21 H21           -3.5670    -3.9364     1.9594 H       
  22 H22           -1.9014    -4.5389    -1.9511 H       
  23 H23           -1.0627    -2.2418    -1.9516 H       
  24 H24            2.9049    -0.1179     1.0011 H       
  25 H25            3.2498    -0.9231    -0.5484 H       
  26 H26            2.5304     0.7050    -0.5322 H       
@<TRIPOS>BOND
   1    1    2 1
   2    1    6 2
   3    1    5 am
   4    2    3 2
   5    2    8 1
   6    3    4 1
   7    3   10 1
   8    4    5 am
   9    4    7 2
  10    5   19 1
  11    8   16 1
  12    8    9 2
  13   10   11 ar
  14   10   15 ar
  15   11   12 ar
  16   11   20 1
  17   12   13 ar
  18   12   21 1
  19   13   17 1
  20   13   14 ar
  21   14   15 ar
  22   14   22 1
  23   15   23 1
  24   16   24 1
  25   16   25 1
  26   16   26 1
  27   17   18 3

#	End of record

