#	Name: ASD06170051
#	Creating user name:	WinNT
#	Creation time:	15. 06. 2019 21:05

#	Modifying user name:	WinNT
#	Modification time:	15. 06. 2019 21:05

#	Program:	/corina/corina34_cracker 3.40 0067  02.08.2006

@<TRIPOS>MOLECULE
ASD06170051
  68   72    0    0    0
SMALL
NO_CHARGES


@<TRIPOS>ATOM
   1 N1             0.5485     1.9719    -0.6813 N.pl3   
   2 N2             0.1496     0.6547    -0.4355 N.am    
   3 C3             1.2037    -0.0287     0.0568 C.2     
   4 C4             2.3252     0.9219     0.1207 C.2     
   5 C5             1.8442     2.1283    -0.3493 C.2     
   6 C6             3.6870     0.6430     0.5921 C.2     
   7 O7             4.5238     1.5266     0.5923 O.2     
   8 N8             4.0108    -0.5917     1.0248 N.am    
   9 C9            -1.1282     0.1328    -0.6617 C.ar    
  10 C10           -1.2811    -1.0481    -1.3765 C.ar    
  11 C11           -2.5442    -1.5610    -1.5977 C.ar    
  12 C12           -3.6560    -0.8998    -1.1087 C.ar    
  13 C13           -3.5071     0.2762    -0.3965 C.ar    
  14 C14           -2.2464     0.7913    -0.1669 C.ar    
  15 C15           -0.3134     3.0242    -1.2251 C.3     
  16 C16           -0.6539     4.0078    -0.1354 C.2     
  17 C17           -1.5344     5.1928    -0.4381 C.3     
  18 C18           -1.7221     6.0262     0.8313 C.3     
  19 O19           -0.2212     3.8465     0.9804 O.2     
  20 O20            1.2231    -1.2005     0.3841 O.2     
  21 C21            2.6363     3.4046    -0.4709 C.3     
  22 C22            5.3390    -0.8941     1.3491 C.ar    
  23 C23            6.1705     0.0927     1.8629 C.ar    
  24 C24            7.4813    -0.2069     2.1831 C.ar    
  25 C25            7.9661    -1.4951     1.9906 C.ar    
  26 C26            7.1351    -2.4793     1.4776 C.ar    
  27 C27            5.8234    -2.1817     1.1623 C.ar    
  28 O28            9.2558    -1.7902     2.3051 O.3     
  29 N29           10.1595    -2.4296     6.2779 N.ar    
  30 C30            8.9338    -2.1257     5.9204 C.ar    
  31 C31            8.5921    -1.9033     4.5927 C.ar    
  32 C32            9.5606    -2.0015     3.6089 C.ar    
  33 C33           10.8771    -2.3294     4.0052 C.ar    
  34 C34           11.9118    -2.4464     3.0656 C.ar    
  35 C35           13.1693    -2.7629     3.4787 C.ar    
  36 C36           13.4453    -2.9740     4.8327 C.ar    
  37 C37           12.4513    -2.8670     5.7789 C.ar    
  38 C38           11.1453    -2.5411     5.3797 C.ar    
  39 O39           14.7089    -3.2888     5.2190 O.3     
  40 C40           15.6965    -3.3857     4.1908 C.3     
  41 F41            8.2911     0.7523     2.6826 F       
  42 H42            3.3236    -1.2708     1.1117 H       
  43 H43           -0.4133    -1.5645    -1.7594 H       
  44 H44           -2.6639    -2.4792    -2.1535 H       
  45 H45           -4.6427    -1.3026    -1.2836 H       
  46 H46           -4.3774     0.7901    -0.0159 H       
  47 H47           -2.1306     1.7077     0.3928 H       
  48 H48            0.2081     3.5408    -2.0309 H       
  49 H49           -1.2300     2.5792    -1.6123 H       
  50 H50           -1.0668     5.8054    -1.2090 H       
  51 H51           -2.5050     4.8437    -0.7904 H       
  52 H52           -0.7515     6.3753     1.1836 H       
  53 H53           -2.3589     6.8833     0.6123 H       
  54 H54           -2.1896     5.4137     1.6022 H       
  55 H55            2.5510     3.9747     0.4542 H       
  56 H56            3.6837     3.1660    -0.6554 H       
  57 H57            2.2470     3.9963    -1.2994 H       
  58 H58            5.7931     1.0936     2.0119 H       
  59 H59            7.5123    -3.4802     1.3282 H       
  60 H60            5.1757    -2.9500     0.7666 H       
  61 H61            8.1698    -2.0463     6.6796 H       
  62 H62            7.5746    -1.6554     4.3289 H       
  63 H63           11.7109    -2.2860     2.0167 H       
  64 H64           13.9631    -2.8524     2.7519 H       
  65 H65           12.6748    -3.0327     6.8225 H       
  66 H66           16.6587    -3.6422     4.6342 H       
  67 H67           15.4063    -4.1594     3.4800 H       
  68 H68           15.7780    -2.4296     3.6739 H       
@<TRIPOS>BOND
   1    1    2 1
   2    1    5 1
   3    1   15 1
   4    2    3 am
   5    2    9 1
   6    3    4 1
   7    3   20 2
   8    4    5 2
   9    4    6 1
  10    5   21 1
  11    6    7 2
  12    6    8 am
  13    8   22 1
  14    8   42 1
  15    9   10 ar
  16    9   14 ar
  17   10   11 ar
  18   10   43 1
  19   11   12 ar
  20   11   44 1
  21   12   13 ar
  22   12   45 1
  23   13   14 ar
  24   13   46 1
  25   14   47 1
  26   15   16 1
  27   15   48 1
  28   15   49 1
  29   16   17 1
  30   16   19 2
  31   17   18 1
  32   17   50 1
  33   17   51 1
  34   18   52 1
  35   18   53 1
  36   18   54 1
  37   21   55 1
  38   21   56 1
  39   21   57 1
  40   22   23 ar
  41   22   27 ar
  42   23   24 ar
  43   23   58 1
  44   24   25 ar
  45   24   41 1
  46   25   26 ar
  47   25   28 1
  48   26   27 ar
  49   26   59 1
  50   27   60 1
  51   28   32 1
  52   29   30 ar
  53   29   38 ar
  54   30   31 ar
  55   30   61 1
  56   31   32 ar
  57   31   62 1
  58   32   33 ar
  59   33   34 ar
  60   33   38 ar
  61   34   35 ar
  62   34   63 1
  63   35   36 ar
  64   35   64 1
  65   36   37 ar
  66   36   39 1
  67   37   38 ar
  68   37   65 1
  69   39   40 1
  70   40   66 1
  71   40   67 1
  72   40   68 1

#	End of record

