#	Name: ASD06390022
#	Creating user name:	WinNT
#	Creation time:	15. 06. 2019 21:06

#	Modifying user name:	WinNT
#	Modification time:	15. 06. 2019 21:06

#	Program:	/corina/corina34_cracker 3.40 0067  02.08.2006

@<TRIPOS>MOLECULE
ASD06390022
  27   28    0    0    0
SMALL
NO_CHARGES


@<TRIPOS>ATOM
   1 N1            -0.0165     1.3647     0.0095 N.pl3   
   2 C2             0.0021    -0.0041     0.0020 C.2     
   3 C3             1.2700    -0.4441    -0.0124 C.2     
   4 C4             2.1340     0.7392    -0.0143 C.ar    
   5 C5             3.5180     0.9305    -0.0269 C.ar    
   6 C6             4.0278     2.1991    -0.0254 C.ar    
   7 C7             3.1801     3.2997    -0.0109 C.ar    
   8 C8             1.8118     3.1326     0.0017 C.ar    
   9 C9             1.2719     1.8502    -0.0001 C.ar    
  10 C10            1.7196    -1.8824    -0.0237 C.3     
  11 C11            1.8583    -2.3620    -1.4699 C.3     
  12 N12            2.2966    -3.7641    -1.4809 N.3     
  13 C13           -1.2199    -0.8860     0.0094 C.3     
  14 Cl14           3.8506     4.9010    -0.0081 Cl      
  15 Cl15           4.5865    -0.4376    -0.0439 Cl      
  16 H16           -0.8179     1.9112     0.0165 H       
  17 H17            5.0976     2.3468    -0.0351 H       
  18 H18            1.1610     3.9944     0.0132 H       
  19 H19            2.6822    -1.9661     0.4808 H       
  20 H20            0.9834    -2.4973     0.4940 H       
  21 H21            0.8957    -2.2783    -1.9744 H       
  22 H22            2.5945    -1.7472    -1.9876 H       
  23 H23            1.6637    -4.3450    -0.9517 H       
  24 H24            2.3957    -4.1046    -2.4256 H       
  25 H25           -1.5244    -1.0935    -1.0164 H       
  26 H26           -0.9887    -1.8229     0.5163 H       
  27 H27           -2.0303    -0.3796     0.5336 H       
@<TRIPOS>BOND
   1    1    2 1
   2    1    9 1
   3    1   16 1
   4    2    3 2
   5    2   13 1
   6    3    4 1
   7    3   10 1
   8    4    5 ar
   9    4    9 ar
  10    5    6 ar
  11    5   15 1
  12    6    7 ar
  13    6   17 1
  14    7    8 ar
  15    7   14 1
  16    8    9 ar
  17    8   18 1
  18   10   11 1
  19   10   19 1
  20   10   20 1
  21   11   12 1
  22   11   21 1
  23   11   22 1
  24   12   23 1
  25   12   24 1
  26   13   25 1
  27   13   26 1
  28   13   27 1

#	End of record

