#	Name: ASD01230396
#	Creating user name:	WinNT
#	Creation time:	15. 06. 2019 19:14

#	Modifying user name:	WinNT
#	Modification time:	15. 06. 2019 19:14

#	Program:	/corina/corina34_cracker 3.40 0067  02.08.2006

@<TRIPOS>MOLECULE
ASD01230396
  36   38    0    0    0
SMALL
NO_CHARGES


@<TRIPOS>ATOM
   1 S1            -0.0204     1.6502     0.0111 S.o2    
   2 N2             0.0021    -0.0041     0.0020 N.am    
   3 C3             1.0256    -0.6894    -0.4563 C.2     
   4 N4             2.1713    -0.1507    -0.9688 N.pl3   
   5 C5             2.3936     1.2863    -1.1471 C.3     
   6 C6             1.7498     2.0759    -0.0035 C.3     
   7 C7             0.8928    -2.1077    -0.3981 C.2     
   8 C8             1.9093    -2.9032    -0.8069 C.2     
   9 C9             3.0927    -2.3153    -1.2868 C.2     
  10 C10            3.1981    -0.9765    -1.3566 C.2     
  11 S11           -0.5972    -2.8269     0.2079 S.o2    
  12 O12           -1.6241    -2.1831    -0.5340 O.2     
  13 O13           -0.3810    -4.2270     0.0969 O.2     
  14 C14           -0.6638    -2.3293     1.9510 C.3     
  15 C15           -1.9095    -2.8908     2.5865 C.ar    
  16 C16           -1.8794    -4.1374     3.1833 C.ar    
  17 C17           -3.0221    -4.6525     3.7661 C.ar    
  18 C18           -4.1949    -3.9208     3.7527 C.ar    
  19 C19           -4.2248    -2.6739     3.1567 C.ar    
  20 C20           -3.0810    -2.1569     2.5777 C.ar    
  21 O21           -0.6348     2.0061    -1.2198 O.2     
  22 O22           -0.6111     1.9928     1.2573 O.2     
  23 H23            3.4652     1.4851    -1.1626 H       
  24 H24            1.9560     1.6031    -2.0938 H       
  25 H25            1.8733     3.1452    -0.1748 H       
  26 H26            2.2071     1.7954     0.9453 H       
  27 H27            1.8121    -3.9780    -0.7645 H       
  28 H28            3.9172    -2.9389    -1.5995 H       
  29 H29            4.1135    -0.5393    -1.7270 H       
  30 H30            0.2139    -2.7120     2.4719 H       
  31 H31           -0.6804    -1.2415     2.0180 H       
  32 H32           -0.9631    -4.7090     3.1938 H       
  33 H33           -2.9987    -5.6267     4.2317 H       
  34 H34           -5.0878    -4.3236     4.2074 H       
  35 H35           -5.1412    -2.1024     3.1459 H       
  36 H36           -3.1034    -1.1812     2.1153 H       
@<TRIPOS>BOND
   1    1    2 am
   2    1    6 1
   3    1   21 2
   4    1   22 2
   5    2    3 2
   6    3    4 1
   7    3    7 1
   8    4    5 1
   9    4   10 1
  10    5    6 1
  11    5   23 1
  12    5   24 1
  13    6   25 1
  14    6   26 1
  15    7    8 2
  16    7   11 1
  17    8    9 1
  18    8   27 1
  19    9   10 2
  20    9   28 1
  21   10   29 1
  22   11   12 2
  23   11   13 2
  24   11   14 1
  25   14   15 1
  26   14   30 1
  27   14   31 1
  28   15   16 ar
  29   15   20 ar
  30   16   17 ar
  31   16   32 1
  32   17   18 ar
  33   17   33 1
  34   18   19 ar
  35   18   34 1
  36   19   20 ar
  37   19   35 1
  38   20   36 1

#	End of record

