#	Name: ASD01911912
#	Creating user name:	WinNT
#	Creation time:	15. 06. 2019 19:58

#	Modifying user name:	WinNT
#	Modification time:	15. 06. 2019 19:58

#	Program:	/corina/corina34_cracker 3.40 0067  02.08.2006

@<TRIPOS>MOLECULE
ASD01911912
  39   41    0    0    0
SMALL
NO_CHARGES


@<TRIPOS>ATOM
   1 C1            -1.0486    -0.4840    -2.0513 C.ar    
   2 C2            -1.0615     0.0599    -0.7710 C.ar    
   3 C3            -1.0258     1.4447    -0.6426 C.ar    
   4 N4            -0.9810     2.1897    -1.7348 N.ar    
   5 C5            -0.9702     1.6365    -2.9309 C.ar    
   6 N6            -1.0031     0.3291    -3.0938 N.ar    
   7 O7            -1.1084    -0.7409     0.3261 O.3     
   8 C8            -1.1451    -2.0854     0.1334 C.ar    
   9 C9             0.0139    -2.7701    -0.2047 C.ar    
  10 C10           -0.0224    -4.1395    -0.4018 C.ar    
  11 C11           -1.2141    -4.8290    -0.2617 C.ar    
  12 C12           -2.3757    -4.1472     0.0766 C.ar    
  13 C13           -2.3390    -2.7744     0.2800 C.ar    
  14 N14           -3.5800    -4.8437     0.2178 N.am    
  15 C15           -3.5757    -6.1115     0.6751 C.2     
  16 C16           -4.8354    -6.8835     0.7253 C.ar    
  17 O17           -2.5359    -6.6202     1.0464 O.2     
  18 C18           -6.0307    -6.3019     0.2997 C.ar    
  19 F19            1.1068    -4.8038    -0.7317 F       
  20 C20           -7.2048    -7.0254     0.3479 C.ar    
  21 C21           -7.2017    -8.3259     0.8169 C.ar    
  22 C22           -6.0175    -8.9130     1.2425 C.ar    
  23 C23           -4.8328    -8.1981     1.1930 C.ar    
  24 O24           -6.0204   -10.1918     1.7026 O.3     
  25 C25           -7.2770   -10.8720     1.7203 C.3     
  26 H26           -1.0709    -1.5545    -2.1921 H       
  27 H27           -1.0347     1.9048     0.3344 H       
  28 H28           -0.9337     2.2729    -3.8028 H       
  29 H29            0.9448    -2.2337    -0.3145 H       
  30 H30           -1.2407    -5.8977    -0.4158 H       
  31 H31           -3.2413    -2.2426     0.5434 H       
  32 H32           -4.4186    -4.4144    -0.0134 H       
  33 H33           -6.0368    -5.2860    -0.0669 H       
  34 H34           -8.1291    -6.5742     0.0186 H       
  35 H35           -8.1237    -8.8872     0.8527 H       
  36 H36           -3.9110    -8.6537     1.5234 H       
  37 H37           -7.1385   -11.8810     2.1088 H       
  38 H38           -7.9747   -10.3297     2.3583 H       
  39 H39           -7.6762   -10.9243     0.7074 H       
@<TRIPOS>BOND
   1    1    2 ar
   2    1    6 ar
   3    1   26 1
   4    2    3 ar
   5    2    7 1
   6    3    4 ar
   7    3   27 1
   8    4    5 ar
   9    5    6 ar
  10    5   28 1
  11    7    8 1
  12    8    9 ar
  13    8   13 ar
  14    9   10 ar
  15    9   29 1
  16   10   11 ar
  17   10   19 1
  18   11   12 ar
  19   11   30 1
  20   12   13 ar
  21   12   14 1
  22   13   31 1
  23   14   15 am
  24   14   32 1
  25   15   16 1
  26   15   17 2
  27   16   18 ar
  28   16   23 ar
  29   18   20 ar
  30   18   33 1
  31   20   21 ar
  32   20   34 1
  33   21   22 ar
  34   21   35 1
  35   22   23 ar
  36   22   24 1
  37   23   36 1
  38   24   25 1
  39   25   37 1
  40   25   38 1
  41   25   39 1

#	End of record

