#	Name: ASD03430793
#	Creating user name:	WinNT
#	Creation time:	15. 06. 2019 20:41

#	Modifying user name:	WinNT
#	Modification time:	15. 06. 2019 20:41

#	Program:	/corina/corina34_cracker 3.40 0067  02.08.2006

@<TRIPOS>MOLECULE
ASD03430793
  39   43    0    0    0
SMALL
NO_CHARGES


@<TRIPOS>ATOM
   1 C1            -0.0168     1.3850     0.0097 C.ar    
   2 C2             0.0021    -0.0041     0.0020 C.ar    
   3 C3             1.1941    -0.6895    -0.0185 C.ar    
   4 C4             2.4021     0.0023    -0.0216 C.ar    
   5 C5             2.3750     1.3913    -0.0161 C.ar    
   6 C6             1.1723     2.0804     0.0020 C.ar    
   7 C7             1.5389    -2.1541    -0.0531 C.3     
   8 C8             3.0228    -2.1575    -0.4452 C.3     
   9 C9             0.4144    -3.8642     1.0109 C.ar    
  10 C10            1.3070    -2.8261     1.2676 C.ar    
  11 C11            0.6992    -2.9140    -1.0393 C.2     
  12 N12            0.0793    -3.8889    -0.3449 N.am    
  13 O13            0.5983    -2.6935    -2.2277 O.2     
  14 C14            1.7790    -2.6068     2.5420 C.ar    
  15 C15            1.3677    -3.4205     3.5830 C.ar    
  16 C16            0.4819    -4.4538     3.3399 C.ar    
  17 C17            0.0064    -4.6781     2.0643 C.ar    
  18 O18            3.4620    -0.8542    -0.0165 O.3     
  19 C19           -1.3583     2.0693     0.0177 C.3     
  20 C20           -1.2158     3.5273     0.4496 C.3     
  21 C21           -0.1165     4.1778    -0.3985 C.3     
  22 C22            1.2281     3.5862     0.0195 C.3     
  23 H23           -0.9290    -0.5513     0.0126 H       
  24 H24            3.3040     1.9419    -0.0258 H       
  25 H25            3.5618    -2.9417     0.0863 H       
  26 H26            3.1381    -2.2695    -1.5233 H       
  27 H27           -0.5286    -4.5329    -0.7407 H       
  28 H28            2.4712    -1.7992     2.7294 H       
  29 H29            1.7381    -3.2491     4.5829 H       
  30 H30            0.1608    -5.0887     4.1524 H       
  31 H31           -0.6851    -5.4875     1.8823 H       
  32 H32           -1.7870     2.0315    -0.9838 H       
  33 H33           -2.0213     1.5522     0.7114 H       
  34 H34           -2.1589     4.0506     0.2923 H       
  35 H35           -0.9416     3.5728     1.5036 H       
  36 H36           -0.2963     3.9713    -1.4535 H       
  37 H37           -0.1120     5.2547    -0.2302 H       
  38 H38            1.4726     3.9253     1.0262 H       
  39 H39            2.0003     3.9254    -0.6710 H       
@<TRIPOS>BOND
   1    1    2 ar
   2    1    6 ar
   3    1   19 1
   4    2    3 ar
   5    2   23 1
   6    3    4 ar
   7    3    7 1
   8    4    5 ar
   9    4   18 1
  10    5    6 ar
  11    5   24 1
  12    6   22 1
  13    7    8 1
  14    7   10 1
  15    7   11 1
  16    8   18 1
  17    8   25 1
  18    8   26 1
  19    9   10 ar
  20    9   12 1
  21    9   17 ar
  22   10   14 ar
  23   11   12 am
  24   11   13 2
  25   12   27 1
  26   14   15 ar
  27   14   28 1
  28   15   16 ar
  29   15   29 1
  30   16   17 ar
  31   16   30 1
  32   17   31 1
  33   19   20 1
  34   19   32 1
  35   19   33 1
  36   20   21 1
  37   20   34 1
  38   20   35 1
  39   21   22 1
  40   21   36 1
  41   21   37 1
  42   22   38 1
  43   22   39 1

#	End of record

