#	Name: ASD03080241
#	Creating user name:	WinNT
#	Creation time:	15. 06. 2019 20:26

#	Modifying user name:	WinNT
#	Modification time:	15. 06. 2019 20:26

#	Program:	/corina/corina34_cracker 3.40 0067  02.08.2006

@<TRIPOS>MOLECULE
ASD03080241
  34   36    0    0    0
SMALL
NO_CHARGES


@<TRIPOS>ATOM
   1 Cl1            0.0021    -0.0041     0.0020 Cl      
   2 C2            -0.0215     1.7317     0.0116 C.ar    
   3 C3            -1.2222     2.4012     0.0323 C.ar    
   4 C4            -1.2472     3.7907     0.0396 C.ar    
   5 C5            -0.0914     4.5056     0.0268 C.ar    
   6 C6             1.1617     3.8464     0.0058 C.ar    
   7 C7             2.4501     4.4045    -0.0091 C.2     
   8 C8             3.4588     3.5273    -0.0275 C.2     
   9 S9             2.8489     1.8819    -0.0274 S.3     
  10 C10            1.1823     2.4465     0.0039 C.ar    
  11 C11            4.8830     3.8911    -0.0454 C.2     
  12 O12            5.2116     5.0624    -0.0440 O.2     
  13 N13            5.8246     2.9270    -0.0632 N.am    
  14 C14            7.2439     3.2896    -0.0810 C.3     
  15 H15            7.3801     4.1981    -0.6677 H       
  16 C16            8.0546     2.1510    -0.7062 C.3     
  17 C17            9.5421     2.5122    -0.6662 C.3     
  18 C18            9.9599     2.7729     0.7827 C.3     
  19 N19            9.1562     3.8706     1.3353 N.3     
  20 C20            7.7282     3.5287     1.3509 C.3     
  21 H21           -2.1484     1.8458     0.0427 H       
  22 H22           -2.1951     4.3079     0.0552 H       
  23 H23           -0.1290     5.5849     0.0324 H       
  24 H24            2.6153     5.4718    -0.0064 H       
  25 H25            5.5626     1.9931    -0.0643 H       
  26 H26            7.8875     1.2329    -0.1430 H       
  27 H27            7.7425     2.0068    -1.7406 H       
  28 H28           10.1280     1.6870    -1.0711 H       
  29 H29            9.7150     3.4086    -1.2617 H       
  30 H30            9.7997     1.8718     1.3746 H       
  31 H31           11.0152     3.0443     0.8131 H       
  32 H32            9.4771     4.1251     2.2575 H       
  33 H33            7.1626     4.3487     1.7934 H       
  34 H34            7.5783     2.6244     1.9407 H       
@<TRIPOS>BOND
   1    1    2 1
   2    2   10 ar
   3    2    3 ar
   4    3    4 ar
   5    3   21 1
   6    4    5 ar
   7    4   22 1
   8    5    6 ar
   9    5   23 1
  10    6   10 ar
  11    6    7 1
  12    7    8 2
  13    7   24 1
  14    8    9 1
  15    8   11 1
  16    9   10 1
  17   11   12 2
  18   11   13 am
  19   13   14 1
  20   13   25 1
  21   14   15 1
  22   14   20 1
  23   14   16 1
  24   16   17 1
  25   16   26 1
  26   16   27 1
  27   17   18 1
  28   17   28 1
  29   17   29 1
  30   18   19 1
  31   18   30 1
  32   18   31 1
  33   19   20 1
  34   19   32 1
  35   20   33 1
  36   20   34 1

#	End of record

