#	Name: ASD06140010
#	Creating user name:	WinNT
#	Creation time:	15. 06. 2019 21:05

#	Modifying user name:	WinNT
#	Modification time:	15. 06. 2019 21:05

#	Program:	/corina/corina34_cracker 3.40 0067  02.08.2006

@<TRIPOS>MOLECULE
ASD06140010
  39   41    0    0    0
SMALL
NO_CHARGES


@<TRIPOS>ATOM
   1 N1            -0.4843     0.8413     0.1060 N.am    
   2 C2            -0.4893    -0.4761     0.2232 C.2     
   3 C3            -1.7813    -1.1173    -0.0560 C.2     
   4 S4            -2.8564     0.2365    -0.4581 S.3     
   5 C5            -1.6099     1.4770    -0.2388 C.2     
   6 C6             0.7436     1.5996     0.3579 C.3     
   7 N7             1.3523     1.9814    -0.9188 N.pl3   
   8 C8             2.3425     1.1769    -1.4891 C.ar    
   9 C9             2.8376     1.4733    -2.7522 C.ar    
  10 O10            0.5011    -1.1091     0.5380 O.2     
  11 S11           -1.8064     3.1659    -0.4385 S.2     
  12 C12           -2.0829    -2.4391    -0.0161 C.2     
  13 C13           -3.4765    -2.8798    -0.1697 C.ar    
  14 C14            3.8163     0.6764    -3.3135 C.ar    
  15 C15            4.3033    -0.4163    -2.6184 C.ar    
  16 C16            3.8113    -0.7143    -1.3596 C.ar    
  17 C17            2.8374     0.0825    -0.7911 C.ar    
  18 C18            2.3073     2.6630    -3.5101 C.3     
  19 Cl19           5.5333    -1.4158    -3.3269 Cl      
  20 C20           -3.7605    -4.2029    -0.5266 C.ar    
  21 C21           -5.0700    -4.6087    -0.6687 C.ar    
  22 C22           -6.1037    -3.7105    -0.4597 C.ar    
  23 C23           -5.8307    -2.3991    -0.1066 C.ar    
  24 C24           -4.5265    -1.9800     0.0459 C.ar    
  25 Br25          -7.8968    -4.2774    -0.6579 Br      
  26 H26            0.5058     2.4966     0.9297 H       
  27 H27            1.4420     0.9828     0.9234 H       
  28 H28            1.0681     2.7926    -1.3683 H       
  29 H29           -1.2989    -3.1677     0.1285 H       
  30 H30            4.2014     0.9062    -4.2960 H       
  31 H31            4.1928    -1.5683    -0.8195 H       
  32 H32            2.4541    -0.1502     0.1914 H       
  33 H33            2.9044     3.5426    -3.2696 H       
  34 H34            2.3645     2.4667    -4.5808 H       
  35 H35            1.2694     2.8402    -3.2282 H       
  36 H36           -2.9556    -4.9041    -0.6906 H       
  37 H37           -5.2908    -5.6294    -0.9441 H       
  38 H38           -6.6419    -1.7045     0.0540 H       
  39 H39           -4.3152    -0.9573     0.3212 H       
@<TRIPOS>BOND
   1    1    2 am
   2    1    6 1
   3    1    5 am
   4    2    3 1
   5    2   10 2
   6    3    4 1
   7    3   12 2
   8    4    5 1
   9    5   11 2
  10    6    7 1
  11    6   26 1
  12    6   27 1
  13    7    8 1
  14    7   28 1
  15    8    9 ar
  16    8   17 ar
  17    9   14 ar
  18    9   18 1
  19   12   13 1
  20   12   29 1
  21   13   20 ar
  22   13   24 ar
  23   14   15 ar
  24   14   30 1
  25   15   16 ar
  26   15   19 1
  27   16   17 ar
  28   16   31 1
  29   17   32 1
  30   18   33 1
  31   18   34 1
  32   18   35 1
  33   20   21 ar
  34   20   36 1
  35   21   22 ar
  36   21   37 1
  37   22   23 ar
  38   22   25 1
  39   23   24 ar
  40   23   38 1
  41   24   39 1

#	End of record

