#	Name: ASD00431013
#	Creating user name:	WinNT
#	Creation time:	15. 06. 2019 18:35

#	Modifying user name:	WinNT
#	Modification time:	15. 06. 2019 18:35

#	Program:	/corina/corina34_cracker 3.40 0067  02.08.2006

@<TRIPOS>MOLECULE
ASD00431013
  14   14    0    0    0
SMALL
NO_CHARGES


@<TRIPOS>ATOM
   1 C1            -0.0162     1.3409     0.0094 C.2     
   2 C2             0.0021    -0.0041     0.0020 C.2     
   3 C3             1.3606    -0.3952    -0.0131 C.2     
   4 C4             2.0913     0.7342    -0.0140 C.2     
   5 O5             1.2521     1.7826    -0.0003 O.3     
   6 C6             3.5964     0.8101    -0.0275 C.3     
   7 N7             4.0726     0.8419    -1.4168 N.3     
   8 H8            -0.9007     1.9605     0.0172 H       
   9 H9            -0.8563    -0.6594     0.0072 H       
  10 H10            1.7391    -1.4067    -0.0218 H       
  11 H11            3.9192     1.7146     0.4881 H       
  12 H12            4.0088    -0.0631     0.4781 H       
  13 H13            5.0797     0.8929    -1.4527 H       
  14 H14            3.7321     0.0453    -1.9341 H       
@<TRIPOS>BOND
   1    1    2 2
   2    1    5 1
   3    1    8 1
   4    2    3 1
   5    2    9 1
   6    3    4 2
   7    3   10 1
   8    4    5 1
   9    4    6 1
  10    6    7 1
  11    6   11 1
  12    6   12 1
  13    7   13 1
  14    7   14 1

#	End of record

