#	Name: ASD07300187
#	Creating user name:	WinNT
#	Creation time:	15. 06. 2019 21:09

#	Modifying user name:	WinNT
#	Modification time:	15. 06. 2019 21:09

#	Program:	/corina/corina34_cracker 3.40 0067  02.08.2006

@<TRIPOS>MOLECULE
ASD07300187
  47   51    0    0    0
SMALL
NO_CHARGES


@<TRIPOS>ATOM
   1 C1            -0.0169     1.3940     0.0097 C.ar    
   2 C2             0.0021    -0.0041     0.0020 C.ar    
   3 C3             1.2200    -0.6674    -0.0132 C.ar    
   4 C4             2.3808     0.0923    -0.0202 C.ar    
   5 C5             2.2878     1.4713    -0.0119 C.ar    
   6 N6             1.1160     2.0768     0.0026 N.ar    
   7 C7            -2.1140     0.6621     0.0347 C.2     
   8 N8            -1.3544     1.7733     0.0301 N.am    
   9 N9            -1.3235    -0.4280     0.0124 N.am    
  10 O10           -3.3304     0.6451     0.0519 O.2     
  11 C11           -1.8311     3.0900     0.0441 C.ar    
  12 C12           -3.1993     3.3320     0.0641 C.ar    
  13 C13           -3.6714     4.6271     0.0779 C.ar    
  14 C14           -2.7743     5.6951     0.0722 C.ar    
  15 C15           -1.4014     5.4492     0.0525 C.ar    
  16 C16           -0.9350     4.1520     0.0437 C.ar    
  17 C17           -1.7363     9.0953     2.5910 C.2     
  18 N18           -1.8453     7.9396     2.0020 N.2     
  19 C19           -2.7730     8.0157     1.0166 C.ar    
  20 C20           -3.2632     9.3312     1.0141 C.ar    
  21 N21           -2.5877     9.9908     2.0221 N.pl3   
  22 C22           -3.2786     7.0882     0.0865 C.ar    
  23 C23           -4.2535     7.4885    -0.8182 C.ar    
  24 C24           -4.7262     8.7899    -0.8079 C.ar    
  25 C25           -4.2376     9.7075     0.0995 C.ar    
  26 C26           -0.8076     9.3955     3.7392 C.3     
  27 C27           -1.7801    -1.8200     0.0088 C.3     
  28 C28           -1.9251    -2.3129     1.4500 C.3     
  29 H29            1.2635    -1.7465    -0.0190 H       
  30 H30            3.3476    -0.3890    -0.0316 H       
  31 H31            3.1908     2.0638    -0.0173 H       
  32 H32           -3.8935     2.5047     0.0686 H       
  33 H33           -4.7349     4.8146     0.0928 H       
  34 H34           -0.7045     6.2743     0.0480 H       
  35 H35            0.1280     3.9610     0.0326 H       
  36 H36           -2.6999    10.9199     2.2772 H       
  37 H37           -4.6449     6.7808    -1.5340 H       
  38 H38           -5.4839     9.0896    -1.5168 H       
  39 H39           -4.6143    10.7197     0.0987 H       
  40 H40            0.1515     9.7380     3.3508 H       
  41 H41           -1.2444    10.1730     4.3660 H       
  42 H42           -0.6583     8.4927     4.3314 H       
  43 H43           -2.7439    -1.8850    -0.4961 H       
  44 H44           -1.0526    -2.4396    -0.5156 H       
  45 H45           -0.9613    -2.2479     1.9549 H       
  46 H46           -2.6525    -1.6932     1.9744 H       
  47 H47           -2.2648    -3.3486     1.4473 H       
@<TRIPOS>BOND
   1    1    2 ar
   2    1    6 ar
   3    1    8 1
   4    2    3 ar
   5    2    9 1
   6    3    4 ar
   7    3   29 1
   8    4    5 ar
   9    4   30 1
  10    5    6 ar
  11    5   31 1
  12    7    8 am
  13    7    9 am
  14    7   10 2
  15    8   11 1
  16    9   27 1
  17   11   12 ar
  18   11   16 ar
  19   12   13 ar
  20   12   32 1
  21   13   14 ar
  22   13   33 1
  23   14   15 ar
  24   14   22 1
  25   15   16 ar
  26   15   34 1
  27   16   35 1
  28   17   18 2
  29   17   21 1
  30   17   26 1
  31   18   19 1
  32   19   20 ar
  33   19   22 ar
  34   20   21 1
  35   20   25 ar
  36   21   36 1
  37   22   23 ar
  38   23   24 ar
  39   23   37 1
  40   24   25 ar
  41   24   38 1
  42   25   39 1
  43   26   40 1
  44   26   41 1
  45   26   42 1
  46   27   28 1
  47   27   43 1
  48   27   44 1
  49   28   45 1
  50   28   46 1
  51   28   47 1

#	End of record

