#	Name: ASD01816008
#	Creating user name:	WinNT
#	Creation time:	15. 06. 2019 19:34

#	Modifying user name:	WinNT
#	Modification time:	15. 06. 2019 19:34

#	Program:	/corina/corina34_cracker 3.40 0067  02.08.2006

@<TRIPOS>MOLECULE
ASD01816008
  44   48    0    0    0
SMALL
NO_CHARGES


@<TRIPOS>ATOM
   1 C1            -0.0167     1.3813     0.0096 C.ar    
   2 C2             0.0021    -0.0041     0.0020 C.ar    
   3 C3             1.1985    -0.6908    -0.0126 C.ar    
   4 C4             2.4014     0.0060    -0.0203 C.ar    
   5 C5             2.3791     1.4105    -0.0130 C.ar    
   6 C6             1.1663     2.0916     0.0022 C.ar    
   7 N7             3.6066    -0.6779    -0.0345 N.pl3   
   8 C8             4.7995    -0.0571    -0.0425 C.2     
   9 C9             4.9005     1.3118    -0.0370 C.2     
  10 C10            3.6669     2.1304    -0.0214 C.2     
  11 C11            5.9969     2.2757    -0.0429 C.2     
  12 N12            5.4232     3.4982    -0.0321 N.am    
  13 N13            4.0311     3.3807    -0.0193 N.2     
  14 C14            6.1239     4.7110    -0.0328 C.ar    
  15 O15            7.1915     2.0268    -0.0547 O.2     
  16 C16            3.5812    -2.0767    -0.0403 C.ar    
  17 C17            6.5520     5.2667    -1.2310 C.ar    
  18 C18            7.2428     6.4628    -1.2286 C.ar    
  19 C19            7.5093     7.1078    -0.0346 C.ar    
  20 C20            7.0853     6.5587     1.1614 C.ar    
  21 C21            6.3876     5.3644     1.1663 C.ar    
  22 F22            5.9731     4.8277     2.3347 F       
  23 C23            3.5797    -2.7780     1.1589 C.ar    
  24 C24            3.5515    -2.7672    -1.2450 C.ar    
  25 C25            3.5260    -4.1482    -1.2472 C.ar    
  26 C26            3.5299    -4.8432    -0.0519 C.ar    
  27 C27            3.5541    -4.1585     1.1496 C.ar    
  28 C28            3.6066    -2.0328     2.4686 C.3     
  29 H29           -0.9602     1.9068     0.0169 H       
  30 H30           -0.9288    -0.5516     0.0079 H       
  31 H31            1.2005    -1.7708    -0.0177 H       
  32 H32            1.1507     3.1715     0.0074 H       
  33 H33            5.7014    -0.6511    -0.0531 H       
  34 H34            6.3453     4.7640    -2.1642 H       
  35 H35            7.5757     6.8949    -2.1607 H       
  36 H36            8.0504     8.0425    -0.0364 H       
  37 H37            7.2950     7.0649     2.0920 H       
  38 H38            3.5480    -2.2250    -2.1790 H       
  39 H39            3.5025    -4.6857    -2.1837 H       
  40 H40            3.5099    -5.9230    -0.0564 H       
  41 H41            3.5571    -4.7043     2.0815 H       
  42 H42            2.5856    -1.8338     2.7944 H       
  43 H43            4.1165    -2.6362     3.2195 H       
  44 H44            4.1370    -1.0894     2.3390 H       
@<TRIPOS>BOND
   1    1    2 ar
   2    1    6 ar
   3    1   29 1
   4    2    3 ar
   5    2   30 1
   6    3    4 ar
   7    3   31 1
   8    4    5 ar
   9    4    7 1
  10    5    6 ar
  11    5   10 1
  12    6   32 1
  13    7    8 1
  14    7   16 1
  15    8    9 2
  16    8   33 1
  17    9   10 1
  18    9   11 1
  19   10   13 2
  20   11   12 am
  21   11   15 2
  22   12   13 1
  23   12   14 1
  24   14   17 ar
  25   14   21 ar
  26   16   23 ar
  27   16   24 ar
  28   17   18 ar
  29   17   34 1
  30   18   19 ar
  31   18   35 1
  32   19   20 ar
  33   19   36 1
  34   20   21 ar
  35   20   37 1
  36   21   22 1
  37   23   28 1
  38   23   27 ar
  39   24   25 ar
  40   24   38 1
  41   25   26 ar
  42   25   39 1
  43   26   27 ar
  44   26   40 1
  45   27   41 1
  46   28   42 1
  47   28   43 1
  48   28   44 1

#	End of record

