#	Name: ASD04590304
#	Creating user name:	WinNT
#	Creation time:	15. 06. 2019 20:50

#	Modifying user name:	WinNT
#	Modification time:	15. 06. 2019 20:50

#	Program:	/corina/corina34_cracker 3.40 0067  02.08.2006

@<TRIPOS>MOLECULE
ASD04590304
  36   39    0    0    0
SMALL
NO_CHARGES


@<TRIPOS>ATOM
   1 C1            -0.0168     1.3842     0.0097 C.ar    
   2 C2             0.0021    -0.0041     0.0020 C.ar    
   3 C3             1.1981    -0.6869    -0.0131 C.ar    
   4 C4             2.4028     0.0232    -0.0209 C.ar    
   5 C5             2.3770     1.4291    -0.0131 C.ar    
   6 C6             1.1625     2.0994     0.0022 C.ar    
   7 N7             3.7049    -0.3537    -0.0354 N.2     
   8 C8             4.4715     0.7100    -0.0370 C.2     
   9 N9             3.6973     1.8389    -0.0235 N.pl3   
  10 C10            5.9488     0.6927    -0.0513 C.2     
  11 C11            6.7666    -0.4608    -0.0658 C.2     
  12 C12            8.0587    -0.0512    -0.0766 C.2     
  13 N13            8.0651     1.3077    -0.0693 N.pl3   
  14 N14            6.7364     1.7504    -0.0584 N.2     
  15 N15            6.3201    -1.7922    -0.0685 N.am    
  16 C16            7.2124    -2.8022    -0.0830 C.2     
  17 C17            6.7433    -4.2009    -0.0859 C.ar    
  18 O18            8.4042    -2.5605    -0.0937 O.2     
  19 C19            6.0626    -6.1700    -1.2898 C.ar    
  20 C20            5.8616    -6.8301    -0.0912 C.ar    
  21 C21            6.0923    -6.1848     1.1101 C.ar    
  22 C22            6.5319    -4.8744     1.1220 C.ar    
  23 C23            6.5019    -4.8595    -1.2964 C.ar    
  24 F24            6.6972    -4.2162    -2.4683 F       
  25 F25            6.7570    -4.2460     2.2966 F       
  26 Cl26          -1.4932    -0.8859     0.0122 Cl      
  27 H27           -0.9614     1.9077     0.0170 H       
  28 H28            1.2055    -1.7668    -0.0186 H       
  29 H29            1.1405     3.1791     0.0082 H       
  30 H30            4.0156     2.7552    -0.0216 H       
  31 H31            8.9286    -0.6912    -0.0889 H       
  32 H32            8.8532     1.8731    -0.0742 H       
  33 H33            5.3695    -1.9849    -0.0599 H       
  34 H34            5.8801    -6.6813    -2.2234 H       
  35 H35            5.5179    -7.8540    -0.0933 H       
  36 H36            5.9328    -6.7077     2.0415 H       
@<TRIPOS>BOND
   1    1    2 ar
   2    1    6 ar
   3    1   27 1
   4    2    3 ar
   5    2   26 1
   6    3    4 ar
   7    3   28 1
   8    4    5 ar
   9    4    7 1
  10    5    6 ar
  11    5    9 1
  12    6   29 1
  13    7    8 2
  14    8    9 1
  15    8   10 1
  16    9   30 1
  17   10   11 1
  18   10   14 2
  19   11   12 2
  20   11   15 1
  21   12   13 1
  22   12   31 1
  23   13   14 1
  24   13   32 1
  25   15   16 am
  26   15   33 1
  27   16   17 1
  28   16   18 2
  29   17   22 ar
  30   17   23 ar
  31   19   20 ar
  32   19   23 ar
  33   19   34 1
  34   20   21 ar
  35   20   35 1
  36   21   22 ar
  37   21   36 1
  38   22   25 1
  39   23   24 1

#	End of record

