#	Name: ASD01910567
#	Creating user name:	WinNT
#	Creation time:	15. 06. 2019 19:56

#	Modifying user name:	WinNT
#	Modification time:	15. 06. 2019 19:56

#	Program:	/corina/corina34_cracker 3.40 0067  02.08.2006

@<TRIPOS>MOLECULE
ASD01910567
  41   44    0    0    0
SMALL
NO_CHARGES


@<TRIPOS>ATOM
   1 N1             0.1154     0.6669    -0.2256 N.2     
   2 C2             0.2547    -0.6355    -0.1936 C.2     
   3 N3             1.5831    -0.8928    -0.1467 N.2     
   4 C4             2.1685     0.2782    -0.1533 C.2     
   5 O5             1.2036     1.2021    -0.2030 O.3     
   6 C6            -0.8333    -1.6354    -0.2059 C.2     
   7 C7            -2.1689    -1.3674    -0.2533 C.2     
   8 C8            -2.8429    -2.5985    -0.2485 C.2     
   9 C9            -1.9109    -3.5769    -0.1989 C.2     
  10 N10           -0.6780    -2.9984    -0.1777 N.pl3   
  11 C11            3.9936     1.3620     1.1326 C.3     
  12 C12            3.6527     0.5364    -0.1121 C.3     
  13 C13            4.0713     1.3113    -1.3637 C.3     
  14 C14            5.5835     1.5454    -1.3387 C.3     
  15 C15            5.9463     2.3824    -0.1080 C.3     
  16 N16            5.4192     1.7148     1.0900 N.am    
  17 C17            6.2282     1.4311     2.1300 C.2     
  18 C18            5.6597     0.8777     3.3813 C.ar    
  19 O19            7.4238     1.6292     2.0414 O.2     
  20 C20            6.3176    -0.1386     4.0813 C.ar    
  21 C21            5.7537    -0.6261     5.2437 C.ar    
  22 N22            4.6116    -0.1470     5.6957 N.ar    
  23 C23            3.9573     0.8116     5.0671 C.ar    
  24 C24            4.4545     1.3610     3.8973 C.ar    
  25 Cl25          -4.5635    -2.8245    -0.2976 Cl      
  26 F26            2.7904     1.2662     5.5742 F       
  27 H27           -2.6243    -0.3887    -0.2880 H       
  28 H28           -2.1104    -4.6382    -0.1830 H       
  29 H29            0.1684    -3.4710    -0.1430 H       
  30 H30            3.3924     2.2710     1.1440 H       
  31 H31            3.7891     0.7748     2.0278 H       
  32 H32            4.1867    -0.4131    -0.0764 H       
  33 H33            3.8074     0.7368    -2.2516 H       
  34 H34            3.5555     2.2713    -1.3859 H       
  35 H35            6.0994     0.5864    -1.2915 H       
  36 H36            5.8843     2.0768    -2.2416 H       
  37 H37            7.0302     2.4685    -0.0313 H       
  38 H38            5.5043     3.3747    -0.1977 H       
  39 H39            7.2534    -0.5369     3.7177 H       
  40 H40            6.2552    -1.4112     5.7902 H       
  41 H41            3.9150     2.1455     3.3873 H       
@<TRIPOS>BOND
   1    1    2 2
   2    1    5 1
   3    2    3 1
   4    2    6 1
   5    3    4 2
   6    4    5 1
   7    4   12 1
   8    6    7 2
   9    6   10 1
  10    7    8 1
  11    7   27 1
  12    8    9 2
  13    8   25 1
  14    9   10 1
  15    9   28 1
  16   10   29 1
  17   11   12 1
  18   11   16 1
  19   11   30 1
  20   11   31 1
  21   12   13 1
  22   12   32 1
  23   13   14 1
  24   13   33 1
  25   13   34 1
  26   14   15 1
  27   14   35 1
  28   14   36 1
  29   15   16 1
  30   15   37 1
  31   15   38 1
  32   16   17 am
  33   17   18 1
  34   17   19 2
  35   18   20 ar
  36   18   24 ar
  37   20   21 ar
  38   20   39 1
  39   21   22 ar
  40   21   40 1
  41   22   23 ar
  42   23   24 ar
  43   23   26 1
  44   24   41 1

#	End of record

