#	Name: ASD01914516
#	Creating user name:	WinNT
#	Creation time:	15. 06. 2019 20:03

#	Modifying user name:	WinNT
#	Modification time:	15. 06. 2019 20:03

#	Program:	/corina/corina34_cracker 3.40 0067  02.08.2006

@<TRIPOS>MOLECULE
ASD01914516
  63   67    0    0    0
SMALL
NO_CHARGES


@<TRIPOS>ATOM
   1 N1             0.0268     1.3902    -0.1032 N.2     
   2 C2            -0.0386     0.0588     0.0783 C.2     
   3 C3             1.2326    -0.4203     0.1481 C.2     
   4 N4             2.0696     0.6508     0.0048 N.pl3   
   5 C5             1.2866     1.7580    -0.1490 C.2     
   6 C6            -1.2805    -0.7464     0.1843 C.ar    
   7 C7            -1.2084    -2.1072     0.4768 C.ar    
   8 C8            -2.5225    -0.1431    -0.0026 C.ar    
   9 C9            -3.6749    -0.8958     0.0968 C.ar    
  10 C10           -3.5982    -2.2491     0.3821 C.ar    
  11 C11           -2.3656    -2.8520     0.5744 C.ar    
  12 C12           -5.0188    -0.2443    -0.1047 C.3     
  13 F13           -4.7289    -2.9822     0.4786 F       
  14 C14            1.7755     3.1414    -0.3361 C.ar    
  15 C15            3.0836     3.4759     0.0157 C.ar    
  16 C16            3.5337     4.7680    -0.1617 C.ar    
  17 C17            2.6909     5.7311    -0.6873 C.ar    
  18 C18            1.3926     5.4060    -1.0378 C.ar    
  19 C19            0.9322     4.1162    -0.8706 C.ar    
  20 C20            3.5341     0.6167     0.0150 C.3     
  21 C21            4.0323     0.8495     1.4181 C.2     
  22 O22            3.2418     1.0265     2.3207 O.2     
  23 N23            5.3563     0.8611     1.6699 N.am    
  24 C24            5.8638     1.0865     3.0318 C.3     
  25 C25            6.3318     0.6425     0.5911 C.3     
  26 C26            7.3072    -0.4542     1.0316 C.3     
  27 N27            7.8890    -0.0943     2.3316 N.3     
  28 C28            6.8585    -0.0286     3.3714 C.3     
  29 C29            8.8955    -0.9800     2.6849 C.ar    
  30 N30            9.9127    -1.1641     1.8571 N.ar    
  31 N31            8.8177    -1.6161     3.8437 N.ar    
  32 C32            9.7598    -2.4683     4.2132 C.ar    
  33 C33           10.8402    -2.6913     3.3673 C.ar    
  34 C34           10.8907    -2.0014     2.1615 C.ar    
  35 O35           11.8277    -3.5603     3.7139 O.3     
  36 C36           12.8999    -3.7281     2.7843 C.3     
  37 H37            1.5248    -1.4503     0.2897 H       
  38 H38           -0.2480    -2.5780     0.6265 H       
  39 H39           -2.5832     0.9121    -0.2247 H       
  40 H40           -2.3103    -3.9075     0.7962 H       
  41 H41           -5.2933    -0.2959    -1.1583 H       
  42 H42           -5.7680    -0.7648     0.4919 H       
  43 H43           -4.9671     0.7990     0.2067 H       
  44 H44            3.7424     2.7250     0.4265 H       
  45 H45            4.5459     5.0282     0.1106 H       
  46 H46            3.0480     6.7411    -0.8243 H       
  47 H47            0.7395     6.1625    -1.4472 H       
  48 H48           -0.0815     3.8637    -1.1446 H       
  49 H49            3.8774    -0.3566    -0.3356 H       
  50 H50            3.9203     1.3963    -0.6417 H       
  51 H51            6.3661     2.0526     3.0801 H       
  52 H52            5.0350     1.0658     3.7395 H       
  53 H53            5.8123     0.3284    -0.3143 H       
  54 H54            6.8800     1.5652     0.4006 H       
  55 H55            6.7740    -1.4006     1.1212 H       
  56 H56            8.1020    -0.5526     0.2922 H       
  57 H57            7.3256     0.1817     4.3335 H       
  58 H58            6.3323    -0.9818     3.4227 H       
  59 H59            9.6906    -2.9837     5.1598 H       
  60 H60           11.7154    -2.1502     1.4802 H       
  61 H61           13.6170    -4.4460     3.1824 H       
  62 H62           12.5054    -4.0957     1.8371 H       
  63 H63           13.3953    -2.7704     2.6243 H       
@<TRIPOS>BOND
   1    1    2 1
   2    1    5 2
   3    2    3 2
   4    2    6 1
   5    3    4 1
   6    3   37 1
   7    4    5 1
   8    4   20 1
   9    5   14 1
  10    6    7 ar
  11    6    8 ar
  12    7   11 ar
  13    7   38 1
  14    8    9 ar
  15    8   39 1
  16    9   10 ar
  17    9   12 1
  18   10   11 ar
  19   10   13 1
  20   11   40 1
  21   12   41 1
  22   12   42 1
  23   12   43 1
  24   14   15 ar
  25   14   19 ar
  26   15   16 ar
  27   15   44 1
  28   16   17 ar
  29   16   45 1
  30   17   18 ar
  31   17   46 1
  32   18   19 ar
  33   18   47 1
  34   19   48 1
  35   20   21 1
  36   20   49 1
  37   20   50 1
  38   21   22 2
  39   21   23 am
  40   23   24 1
  41   23   25 1
  42   24   28 1
  43   24   51 1
  44   24   52 1
  45   25   26 1
  46   25   53 1
  47   25   54 1
  48   26   27 1
  49   26   55 1
  50   26   56 1
  51   27   28 1
  52   27   29 1
  53   28   57 1
  54   28   58 1
  55   29   30 ar
  56   29   31 ar
  57   30   34 ar
  58   31   32 ar
  59   32   33 ar
  60   32   59 1
  61   33   34 ar
  62   33   35 1
  63   34   60 1
  64   35   36 1
  65   36   61 1
  66   36   62 1
  67   36   63 1

#	End of record

