#	Name: ASD08150499
#	Creating user name:	WinNT
#	Creation time:	15. 06. 2019 21:16

#	Modifying user name:	WinNT
#	Modification time:	15. 06. 2019 21:16

#	Program:	/corina/corina34_cracker 3.40 0067  02.08.2006

@<TRIPOS>MOLECULE
ASD08150499
  73   79    0    0    0
SMALL
NO_CHARGES


@<TRIPOS>ATOM
   1 N1             0.4010     1.7294     1.0165 N.am    
   2 C2             0.0870     0.4436     1.2675 C.2     
   3 C3             1.0892    -0.4999     1.5714 C.2     
   4 C4             2.3923    -0.1222     1.6152 C.2     
   5 C5             2.7262     1.2296     1.3512 C.ar    
   6 C6             4.0620     1.6737     1.3831 C.ar    
   7 N7             4.3671     2.9213     1.1391 N.ar    
   8 C8             3.4374     3.8435     0.8466 C.ar    
   9 C9             2.0678     3.4858     0.7919 C.ar    
  10 C10            1.7041     2.1436     1.0519 C.ar    
  11 C11            1.1067     4.4544     0.4865 C.ar    
  12 C12            1.5062     5.7580     0.2400 C.ar    
  13 C13            2.8635     6.1044     0.2959 C.ar    
  14 C14            3.8099     5.1735     0.5916 C.ar    
  15 O15           -1.0797     0.0914     1.2318 O.2     
  16 C16            0.4934     6.7915    -0.0851 C.ar    
  17 C17           -0.6131     2.6469     0.7116 C.ar    
  18 C18           -1.1084     2.7296    -0.5836 C.ar    
  19 C19           -2.1075     3.6329    -0.8840 C.ar    
  20 C20           -2.6181     4.4597     0.1091 C.ar    
  21 C21           -2.1227     4.3769     1.4041 C.ar    
  22 C22           -1.1270     3.4695     1.7055 C.ar    
  23 N23           -3.6299     5.3751    -0.1951 N.3     
  24 C24           -4.7770     5.2120     0.7089 C.3     
  25 C25           -4.0474     5.2515    -1.5987 C.3     
  26 C26           -5.0967     6.3207    -1.9121 C.3     
  27 N27           -6.2438     6.1575    -1.0081 N.3     
  28 C28           -5.8262     6.2812     0.3954 C.3     
  29 C29            0.6409     8.1018     0.3841 C.ar    
  30 C30           -0.3273     9.0301     0.0555 C.ar    
  31 C31           -1.4099     8.6355    -0.7255 C.ar    
  32 N32           -1.5195     7.3868    -1.1536 N.ar    
  33 C33           -0.6144     6.4731    -0.8662 C.ar    
  34 N34           -2.3883     9.5634    -1.0600 N.3     
  35 C35           -3.6649     8.8988    -1.3567 C.3     
  36 C36           -1.9577    10.3988    -2.1897 C.3     
  37 C37           -3.0263    11.4567    -2.4749 C.3     
  38 N38           -4.3030    10.7921    -2.7716 N.3     
  39 C39           -4.7336     9.9567    -1.6419 C.3     
  40 C40           -2.6764     5.2735     2.4815 C.3     
  41 F41           -1.6966     5.4912     3.4561 F       
  42 F42           -3.0558     6.4975     1.9201 F       
  43 F43           -3.7906     4.6642     3.0683 F       
  44 H44            0.8194    -1.5265     1.7703 H       
  45 H45            3.1636    -0.8415     1.8482 H       
  46 H46            4.8489     0.9708     1.6137 H       
  47 H47            0.0609     4.1884     0.4429 H       
  48 H48            3.1615     7.1241     0.1016 H       
  49 H49            4.8510     5.4579     0.6304 H       
  50 H50           -0.7113     2.0872    -1.3556 H       
  51 H51           -2.4923     3.6974    -1.8911 H       
  52 H52           -0.7449     3.4020     2.7134 H       
  53 H53           -5.2127     4.2227     0.5686 H       
  54 H54           -4.4446     5.3203     1.7413 H       
  55 H55           -3.1832     5.3885    -2.2486 H       
  56 H56           -4.4748     4.2627    -1.7652 H       
  57 H57           -4.6610     7.3099    -1.7719 H       
  58 H58           -5.4290     6.2124    -2.9446 H       
  59 H59           -6.9740     6.8183    -1.2277 H       
  60 H60           -6.6905     6.1442     1.0453 H       
  61 H61           -5.3988     7.2700     0.5619 H       
  62 H62            1.4913     8.3801     0.9889 H       
  63 H63           -0.2457    10.0501     0.4008 H       
  64 H64           -0.7374     5.4649    -1.2333 H       
  65 H65           -3.5465     8.2570    -2.2297 H       
  66 H66           -3.9689     8.2964    -0.5007 H       
  67 H67           -1.0170    10.8900    -1.9409 H       
  68 H68           -1.8198     9.7741    -3.0722 H       
  69 H69           -3.1447    12.0985    -1.6018 H       
  70 H70           -2.7223    12.0591    -3.3309 H       
  71 H71           -5.0136    11.4660    -3.0145 H       
  72 H72           -5.6743     9.4655    -1.8906 H       
  73 H73           -4.8714    10.5815    -0.7594 H       
@<TRIPOS>BOND
   1    1    2 am
   2    1   10 1
   3    1   17 1
   4    2    3 1
   5    2   15 2
   6    3    4 2
   7    3   44 1
   8    4    5 1
   9    4   45 1
  10    5    6 ar
  11    5   10 ar
  12    6    7 ar
  13    6   46 1
  14    7    8 ar
  15    8    9 ar
  16    8   14 ar
  17    9   10 ar
  18    9   11 ar
  19   11   12 ar
  20   11   47 1
  21   12   13 ar
  22   12   16 1
  23   13   14 ar
  24   13   48 1
  25   14   49 1
  26   16   29 ar
  27   16   33 ar
  28   17   18 ar
  29   17   22 ar
  30   18   19 ar
  31   18   50 1
  32   19   20 ar
  33   19   51 1
  34   20   21 ar
  35   20   23 1
  36   21   22 ar
  37   21   40 1
  38   22   52 1
  39   23   24 1
  40   23   25 1
  41   24   28 1
  42   24   53 1
  43   24   54 1
  44   25   26 1
  45   25   55 1
  46   25   56 1
  47   26   27 1
  48   26   57 1
  49   26   58 1
  50   27   28 1
  51   27   59 1
  52   28   60 1
  53   28   61 1
  54   29   30 ar
  55   29   62 1
  56   30   31 ar
  57   30   63 1
  58   31   32 ar
  59   31   34 1
  60   32   33 ar
  61   33   64 1
  62   34   35 1
  63   34   36 1
  64   35   39 1
  65   35   65 1
  66   35   66 1
  67   36   37 1
  68   36   67 1
  69   36   68 1
  70   37   38 1
  71   37   69 1
  72   37   70 1
  73   38   39 1
  74   38   71 1
  75   39   72 1
  76   39   73 1
  77   40   41 1
  78   40   42 1
  79   40   43 1

#	End of record

