#	Name: ASD01001012
#	Creating user name:	WinNT
#	Creation time:	15. 06. 2019 18:54

#	Modifying user name:	WinNT
#	Modification time:	15. 06. 2019 18:54

#	Program:	/corina/corina34_cracker 3.40 0067  02.08.2006

@<TRIPOS>MOLECULE
ASD01001012
  57   60    0    0    0
SMALL
NO_CHARGES


@<TRIPOS>ATOM
   1 C1             1.4553     0.8606     2.1946 C.ar    
   2 C2             1.6455    -0.4138     1.6940 C.ar    
   3 C3             0.6330     1.7494     1.5278 C.ar    
   4 C4             1.0134    -0.7994     0.5267 C.ar    
   5 C5             0.0009     1.3639     0.3604 C.ar    
   6 C6             0.1908     0.0893    -0.1399 C.ar    
   7 C7             1.2216    -2.1884    -0.0196 C.3     
   8 C8             0.6504    -2.2716    -1.4116 C.ar    
   9 C9             2.6964    -2.4955    -0.0625 C.ar    
  10 S10            0.3846    -3.3906     1.0503 S.3     
  11 C11            1.0703    -1.3845    -2.3852 C.ar    
  12 C12           -0.2892    -3.2385    -1.7165 C.ar    
  13 C13            3.1323    -3.8018     0.0667 C.ar    
  14 C14            3.6088    -1.4706    -0.2367 C.ar    
  15 C15            0.5463    -1.4608    -3.6621 C.ar    
  16 C16           -0.8132    -3.3148    -2.9935 C.ar    
  17 C17            4.4817    -4.0888     0.0281 C.ar    
  18 C18            4.9606    -1.7461    -0.2773 C.ar    
  19 C19           -0.3972    -2.4244    -3.9656 C.ar    
  20 C20            5.4056    -3.0596    -0.1415 C.ar    
  21 C21           -1.3117    -2.7530     1.1315 C.3     
  22 C22           -2.1288    -3.6003     2.1090 C.3     
  23 N23           -1.5883    -3.4407     3.4656 N.3     
  24 C24            6.8577    -3.3619    -0.1838 C.ar    
  25 C25            7.3026    -4.6754    -0.0480 C.ar    
  26 C26            8.6542    -4.9513    -0.0885 C.ar    
  27 C27            9.5671    -3.9262    -0.2637 C.ar    
  28 C28            9.1306    -2.6199    -0.3986 C.ar    
  29 C29            7.7809    -2.3340    -0.3653 C.ar    
  30 I30           11.6172    -4.3531    -0.3242 I       
  31 C31           -3.5664    -3.1490     2.0847 C.2     
  32 O32           -3.9850    -2.4185     2.9513 O.2     
  33 O33           -4.3819    -3.5586     1.1004 O.3     
  34 H34            1.9455     1.1603     3.1090 H       
  35 H35            2.2883    -1.1082     2.2148 H       
  36 H36            0.4841     2.7450     1.9191 H       
  37 H37           -0.6421     2.0581    -0.1601 H       
  38 H38           -0.3025    -0.2117    -1.0523 H       
  39 H39            1.8075    -0.6317    -2.1480 H       
  40 H40           -0.6138    -3.9345    -0.9572 H       
  41 H41            2.4153    -4.5987     0.1984 H       
  42 H42            3.2628    -0.4529    -0.3415 H       
  43 H43            0.8739    -0.7673    -4.4225 H       
  44 H44           -1.5471    -4.0705    -3.2318 H       
  45 H45            4.8210    -5.1091     0.1294 H       
  46 H46            5.6722    -0.9452    -0.4137 H       
  47 H47           -0.8068    -2.4837    -4.9631 H       
  48 H48           -1.2950    -1.7183     1.4737 H       
  49 H49           -1.7657    -2.8011     0.1417 H       
  50 H50           -2.0721    -4.6487     1.8163 H       
  51 H51           -0.6458    -3.7962     3.5234 H       
  52 H52           -1.6297    -2.4765     3.7602 H       
  53 H53            6.5909    -5.4761     0.0892 H       
  54 H54            9.0000    -5.9689     0.0170 H       
  55 H55            9.8471    -1.8235    -0.5348 H       
  56 H56            7.4412    -1.3143    -0.4706 H       
  57 H57           -5.2955    -3.2429     1.1272 H       
@<TRIPOS>BOND
   1    1    2 ar
   2    1    3 ar
   3    1   34 1
   4    2    4 ar
   5    2   35 1
   6    3    5 ar
   7    3   36 1
   8    4    6 ar
   9    4    7 1
  10    5    6 ar
  11    5   37 1
  12    6   38 1
  13    7    8 1
  14    7    9 1
  15    7   10 1
  16    8   11 ar
  17    8   12 ar
  18    9   13 ar
  19    9   14 ar
  20   10   21 1
  21   11   15 ar
  22   11   39 1
  23   12   16 ar
  24   12   40 1
  25   13   17 ar
  26   13   41 1
  27   14   18 ar
  28   14   42 1
  29   15   19 ar
  30   15   43 1
  31   16   19 ar
  32   16   44 1
  33   17   20 ar
  34   17   45 1
  35   18   20 ar
  36   18   46 1
  37   19   47 1
  38   20   24 1
  39   21   22 1
  40   21   48 1
  41   21   49 1
  42   22   23 1
  43   22   31 1
  44   22   50 1
  45   23   51 1
  46   23   52 1
  47   24   25 ar
  48   24   29 ar
  49   25   26 ar
  50   25   53 1
  51   26   27 ar
  52   26   54 1
  53   27   28 ar
  54   27   30 1
  55   28   29 ar
  56   28   55 1
  57   29   56 1
  58   31   32 2
  59   31   33 1
  60   33   57 1

#	End of record

