#	Name: ASD01900787
#	Creating user name:	WinNT
#	Creation time:	15. 06. 2019 19:52

#	Modifying user name:	WinNT
#	Modification time:	15. 06. 2019 19:52

#	Program:	/corina/corina34_cracker 3.40 0067  02.08.2006

@<TRIPOS>MOLECULE
ASD01900787
  55   59    0    0    0
SMALL
NO_CHARGES


@<TRIPOS>ATOM
   1 C1             0.7372     1.2186    -0.4485 C.ar    
   2 C2             0.7028    -0.1698    -0.4084 C.ar    
   3 C3            -0.5016    -0.8430    -0.3838 C.ar    
   4 C4            -1.6954    -0.1340    -0.3987 C.ar    
   5 C5            -1.6585     1.2663    -0.4435 C.ar    
   6 O6            -2.8796    -0.7831    -0.3632 O.3     
   7 C7            -4.0335    -0.1666    -0.6708 C.2     
   8 C8            -4.1501     1.1813    -0.7361 C.2     
   9 C9            -2.9507     1.9977    -0.4721 C.2     
  10 C10           -5.2243    -0.9936    -0.9499 C.2     
  11 N11           -6.4108    -0.3740    -1.2660 N.2     
  12 C12           -7.5640    -0.9377    -0.9952 C.2     
  13 C13           -7.4678    -2.2745    -0.3625 C.3     
  14 C14           -6.3979    -3.0880    -1.1674 C.3     
  15 C15           -5.1178    -2.3494    -0.8933 C.2     
  16 C16           -0.4450     1.9408    -0.4608 C.ar    
  17 C17           -8.6282    -3.1477    -0.1263 C.2     
  18 C18           -8.3497    -4.4493     0.0078 C.2     
  19 S19           -6.5862    -4.6436    -0.2217 S.3     
  20 O20            1.9312     1.8687    -0.4699 O.3     
  21 C21            3.1100     1.0612    -0.4493 C.3     
  22 C22            4.3461     1.9624    -0.4781 C.3     
  23 N23            4.4287     2.7205     0.7775 N.3     
  24 C24            4.6238     1.8246     1.9197 C.3     
  25 C25            5.1232     2.6220     3.1285 C.3     
  26 S26            3.8486     3.8319     3.5947 S.o2    
  27 C27            3.5549     4.6584     2.0022 C.3     
  28 C28            3.2629     3.5917     0.9423 C.3     
  29 O29            2.6703     3.1312     3.9686 O.2     
  30 O30            4.4192     4.7701     4.4966 O.2     
  31 N31           -3.0210     3.2920    -0.2748 N.2     
  32 O32           -1.8675     4.0115     0.1214 O.3     
  33 H33            1.6276    -0.7275    -0.3968 H       
  34 H34           -0.5156    -1.9224    -0.3532 H       
  35 H35           -5.0956     1.6455    -0.9747 H       
  36 H36           -8.5095    -0.4645    -1.2157 H       
  37 H37           -7.0226    -2.1123     0.6191 H       
  38 H38           -6.6166    -3.1818    -2.2311 H       
  39 H39           -4.1905    -2.8533    -0.6639 H       
  40 H40           -0.4229     3.0202    -0.4916 H       
  41 H41           -9.6360    -2.7642    -0.0651 H       
  42 H42           -9.0585    -5.2371     0.2159 H       
  43 H43            3.1213     0.4579     0.4584 H       
  44 H44            3.1173     0.4066    -1.3208 H       
  45 H45            5.2402     1.3494    -0.5919 H       
  46 H46            4.2714     2.6550    -1.3164 H       
  47 H47            3.6777     1.3441     2.1687 H       
  48 H48            5.3584     1.0621     1.6605 H       
  49 H49            5.3072     1.9449     3.9626 H       
  50 H50            6.0442     3.1433     2.8676 H       
  51 H51            2.7006     5.3296     2.0906 H       
  52 H52            4.4405     5.2257     1.7158 H       
  53 H53            3.0365     4.0770    -0.0071 H       
  54 H54            2.4064     2.9949     1.2557 H       
  55 H55           -2.0172     4.9591     0.2423 H       
@<TRIPOS>BOND
   1    1    2 ar
   2    1   20 1
   3    1   16 ar
   4    2    3 ar
   5    2   33 1
   6    3    4 ar
   7    3   34 1
   8    4    5 ar
   9    4    6 1
  10    5   16 ar
  11    5    9 1
  12    6    7 1
  13    7    8 2
  14    7   10 1
  15    8    9 1
  16    8   35 1
  17    9   31 2
  18   10   11 1
  19   10   15 2
  20   11   12 2
  21   12   13 1
  22   12   36 1
  23   13   14 1
  24   13   17 1
  25   13   37 1
  26   14   15 1
  27   14   19 1
  28   14   38 1
  29   15   39 1
  30   16   40 1
  31   17   18 2
  32   17   41 1
  33   18   19 1
  34   18   42 1
  35   20   21 1
  36   21   22 1
  37   21   43 1
  38   21   44 1
  39   22   23 1
  40   22   45 1
  41   22   46 1
  42   23   24 1
  43   23   28 1
  44   24   25 1
  45   24   47 1
  46   24   48 1
  47   25   26 1
  48   25   49 1
  49   25   50 1
  50   26   27 1
  51   26   29 2
  52   26   30 2
  53   27   28 1
  54   27   51 1
  55   27   52 1
  56   28   53 1
  57   28   54 1
  58   31   32 1
  59   32   55 1

#	End of record

