#	Name: ASD01910420
#	Creating user name:	WinNT
#	Creation time:	15. 06. 2019 19:55

#	Modifying user name:	WinNT
#	Modification time:	15. 06. 2019 19:55

#	Program:	/corina/corina34_cracker 3.40 0067  02.08.2006

@<TRIPOS>MOLECULE
ASD01910420
  43   45    0    0    0
SMALL
NO_CHARGES


@<TRIPOS>ATOM
   1 C1            -0.1853     1.7454     0.4333 C.ar    
   2 N2            -0.1900     0.3713     0.1905 N.am    
   3 C3            -1.3393    -0.3261     0.2868 C.2     
   4 O4            -1.3659    -1.6297    -0.0488 O.3     
   5 O5            -2.3515     0.2216     0.6764 O.2     
   6 C6            -2.7557    -2.9168     1.4848 C.3     
   7 C7            -2.6380    -2.3178     0.0797 C.3     
   8 C8            -2.7188    -3.4402    -0.9574 C.3     
   9 C9            -4.0726    -4.1449    -0.8446 C.3     
  10 C10           -4.2065    -4.7646     0.5500 C.3     
  11 N11           -3.9858    -3.7170     1.5562 N.am    
  12 C12           -4.8947    -3.4941     2.5261 C.2     
  13 O13           -4.6657    -2.6782     3.3978 O.2     
  14 C14           -6.1692    -4.2410     2.5299 C.ar    
  15 C15           -6.1731    -5.6213     2.3173 C.ar    
  16 C16           -7.3651    -6.3133     2.3218 C.ar    
  17 C17           -8.5588    -5.6416     2.5370 C.ar    
  18 C18           -8.5607    -4.2712     2.7481 C.ar    
  19 C19           -7.3738    -3.5704     2.7518 C.ar    
  20 F20           -9.7244    -6.3248     2.5404 F       
  21 C21            0.9166     2.3637     1.0220 C.ar    
  22 C22            0.8818     3.7245     1.2453 C.ar    
  23 N23           -0.1762     4.4383     0.9096 N.ar    
  24 C24           -1.2385     3.8899     0.3505 C.ar    
  25 C25           -1.2801     2.5363     0.0882 C.ar    
  26 H26            0.6338    -0.0820    -0.0476 H       
  27 H27           -1.8936    -3.5534     1.6839 H       
  28 H28           -2.7982    -2.1147     2.2216 H       
  29 H29           -3.4522    -1.6118    -0.0841 H       
  30 H30           -2.6107    -3.0194    -1.9571 H       
  31 H31           -1.9193    -4.1589    -0.7778 H       
  32 H32           -4.8733    -3.4217    -0.9997 H       
  33 H33           -4.1387    -4.9289    -1.5990 H       
  34 H34           -5.2064    -5.1818     0.6700 H       
  35 H35           -3.4627    -5.5519     0.6729 H       
  36 H36           -5.2438    -6.1454     2.1492 H       
  37 H37           -7.3693    -7.3807     2.1571 H       
  38 H38           -9.4933    -3.7528     2.9149 H       
  39 H39           -7.3763    -2.5030     2.9168 H       
  40 H40            1.7854     1.7854     1.2997 H       
  41 H41            1.7311     4.2120     1.7009 H       
  42 H42           -2.0841     4.5096     0.0909 H       
  43 H43           -2.1524     2.0939    -0.3699 H       
@<TRIPOS>BOND
   1    1    2 1
   2    1   21 ar
   3    1   25 ar
   4    2    3 am
   5    2   26 1
   6    3    4 1
   7    3    5 2
   8    4    7 1
   9    6    7 1
  10    6   11 1
  11    6   27 1
  12    6   28 1
  13    7    8 1
  14    7   29 1
  15    8    9 1
  16    8   30 1
  17    8   31 1
  18    9   10 1
  19    9   32 1
  20    9   33 1
  21   10   11 1
  22   10   34 1
  23   10   35 1
  24   11   12 am
  25   12   13 2
  26   12   14 1
  27   14   15 ar
  28   14   19 ar
  29   15   16 ar
  30   15   36 1
  31   16   17 ar
  32   16   37 1
  33   17   18 ar
  34   17   20 1
  35   18   19 ar
  36   18   38 1
  37   19   39 1
  38   21   22 ar
  39   21   40 1
  40   22   23 ar
  41   22   41 1
  42   23   24 ar
  43   24   25 ar
  44   24   42 1
  45   25   43 1

#	End of record

