#	Name: ASD01730045
#	Creating user name:	WinNT
#	Creation time:	15. 06. 2019 19:23

#	Modifying user name:	WinNT
#	Modification time:	15. 06. 2019 19:23

#	Program:	/corina/corina34_cracker 3.40 0067  02.08.2006

@<TRIPOS>MOLECULE
ASD01730045
  33   34    0    0    0
SMALL
NO_CHARGES


@<TRIPOS>ATOM
   1 N1            -0.0162     1.3436     0.0094 N.am    
   2 C2             0.0021    -0.0041     0.0020 C.2     
   3 S3             1.4961    -0.8398    -0.0167 S.2     
   4 N4            -1.1558    -0.6938     0.0094 N.am    
   5 S5            -2.2992    -4.3080    -0.9819 S.3     
   6 C6            -2.4566    -2.7921     0.0105 C.3     
   7 C7            -1.1372    -2.0698     0.0018 C.2     
   8 N8             0.0021    -2.6538    -0.0126 N.2     
   9 C9             0.2428    -3.9945    -0.0206 C.ar    
  10 C10           -0.7287    -4.9123    -0.4488 C.ar    
  11 C11            1.4842    -4.4750     0.4051 C.ar    
  12 C12            1.7432    -5.8293     0.3990 C.ar    
  13 C13            0.7773    -6.7300    -0.0292 C.ar    
  14 C14           -0.4615    -6.2686    -0.4529 C.ar    
  15 O15            1.0444    -8.0628    -0.0333 O.3     
  16 C16            2.3395    -8.4663     0.4161 C.3     
  17 F17            2.5249    -8.0498     1.7387 F       
  18 F18            2.4439    -9.8597     0.3469 F       
  19 F19            3.3176    -7.8844    -0.3975 F       
  20 C20            1.2424     2.0932     0.0014 C.3     
  21 C21            0.9425     3.5935     0.0124 C.3     
  22 H22           -0.8627     1.8171     0.0160 H       
  23 H23           -2.0023    -0.2203     0.0200 H       
  24 H24           -3.2269    -2.1520    -0.4195 H       
  25 H25           -2.7239    -3.0519     1.0348 H       
  26 H26            2.2431    -3.7833     0.7396 H       
  27 H27            2.7052    -6.1923     0.7296 H       
  28 H28           -1.2147    -6.9677    -0.7852 H       
  29 H29            1.8260     1.8329     0.8845 H       
  30 H30            1.8090     1.8425    -0.8954 H       
  31 H31            0.3759     3.8443     0.9091 H       
  32 H32            1.8789     4.1513     0.0064 H       
  33 H33            0.3589     3.8538    -0.8707 H       
@<TRIPOS>BOND
   1    1    2 am
   2    1   20 1
   3    1   22 1
   4    2    3 2
   5    2    4 am
   6    4    7 1
   7    4   23 1
   8    5    6 1
   9    5   10 1
  10    6    7 1
  11    6   24 1
  12    6   25 1
  13    7    8 2
  14    8    9 1
  15    9   10 ar
  16    9   11 ar
  17   10   14 ar
  18   11   12 ar
  19   11   26 1
  20   12   13 ar
  21   12   27 1
  22   13   14 ar
  23   13   15 1
  24   14   28 1
  25   15   16 1
  26   16   17 1
  27   16   18 1
  28   16   19 1
  29   20   21 1
  30   20   29 1
  31   20   30 1
  32   21   31 1
  33   21   32 1
  34   21   33 1

#	End of record

