#	Name: ASD03240619
#	Creating user name:	WinNT
#	Creation time:	15. 06. 2019 20:35

#	Modifying user name:	WinNT
#	Modification time:	15. 06. 2019 20:35

#	Program:	/corina/corina34_cracker 3.40 0067  02.08.2006

@<TRIPOS>MOLECULE
ASD03240619
  63   69    0    0    0
SMALL
NO_CHARGES


@<TRIPOS>ATOM
   1 C1            -0.0744     1.6186    -0.2153 C.ar    
   2 C2            -0.1320     0.2451    -0.0982 C.ar    
   3 N3             0.9672    -0.4722     0.0365 N.ar    
   4 C4             2.1695     0.0867     0.0661 C.ar    
   5 C5             2.3030     1.4679    -0.0613 C.ar    
   6 C6             1.1628     2.2491    -0.1978 C.ar    
   7 N7             3.2884    -0.7216     0.2465 N.pl3   
   8 C8             4.0937    -0.5783     1.3730 C.ar    
   9 C9             4.7740     0.6203     1.6129 C.ar    
  10 C10            4.6673     1.7411     0.6530 C.2     
  11 N11            3.5626     2.0837    -0.0722 N.pl3   
  12 C12            4.2231    -1.6308     2.2694 C.ar    
  13 C13            5.0110    -1.4876     3.3955 C.ar    
  14 C14            5.6750    -0.2979     3.6402 C.ar    
  15 C15            5.5615     0.7560     2.7560 C.ar    
  16 N16            5.6452     2.5752     0.3633 N.2     
  17 C17            5.2239     3.4691    -0.5468 C.2     
  18 C18            3.9014     3.1776    -0.8426 C.2     
  19 C19            3.0292     3.8942    -1.7923 C.ar    
  20 C20            2.8478     5.2747    -1.6744 C.ar    
  21 C21            2.3852     3.1968    -2.8176 C.ar    
  22 C22            1.5716     3.8735    -3.7020 C.ar    
  23 C23            1.3925     5.2399    -3.5759 C.ar    
  24 C24            2.0313     5.9381    -2.5662 C.ar    
  25 C25            6.0243     4.5639    -1.1265 C.2     
  26 C26            0.5024     5.9722    -4.5467 C.3     
  27 C27            6.1928     4.6007    -2.4324 C.2     
  28 C28            6.9939     5.6658    -3.1245 C.3     
  29 N29            7.1875     6.8162    -2.2328 N.3     
  30 C30            7.7136     6.3704    -0.9321 C.3     
  31 C31            6.6098     5.5963    -0.2037 C.3     
  32 N32           -0.4198     5.0788    -5.2606 N.3     
  33 C33           -0.1828     7.2090    -3.9419 C.3     
  34 C34            0.0874     7.9159    -5.2806 C.3     
  35 C35            1.2617     6.9410    -5.4685 C.3     
  36 H36           -0.9805     2.1962    -0.3237 H       
  37 H37           -1.0915    -0.2504    -0.1167 H       
  38 H38            1.2368     3.3227    -0.2890 H       
  39 H39            3.5089    -1.3918    -0.4192 H       
  40 H40            3.7072    -2.5618     2.0866 H       
  41 H41            5.1091    -2.3092     4.0895 H       
  42 H42            6.2841    -0.1939     4.5260 H       
  43 H43            6.0807     1.6831     2.9490 H       
  44 H44            3.3454     5.8207    -0.8866 H       
  45 H45            2.5243     2.1304    -2.9174 H       
  46 H46            1.0735     3.3358    -4.4952 H       
  47 H47            1.8869     7.0044    -2.4738 H       
  48 H48            5.7341     3.8292    -3.0330 H       
  49 H49            7.9655     5.2605    -3.4070 H       
  50 H50            6.4657     5.9893    -4.0215 H       
  51 H51            7.7970     7.5014    -2.6536 H       
  52 H52            8.5770     5.7238    -1.0885 H       
  53 H53            8.0044     7.2370    -0.3383 H       
  54 H54            5.8312     6.2890     0.1155 H       
  55 H55            7.0317     5.0985     0.6694 H       
  56 H56            0.0737     4.2955    -5.6618 H       
  57 H57           -1.1625     4.7659    -4.6536 H       
  58 H58           -1.2422     7.0622    -3.7316 H       
  59 H59            0.3605     7.6421    -3.1020 H       
  60 H60           -0.7100     7.7852    -6.0121 H       
  61 H61            0.3963     8.9555    -5.1708 H       
  62 H62            2.1998     7.3008    -5.0460 H       
  63 H63            1.3684     6.5779    -6.4907 H       
@<TRIPOS>BOND
   1    1    2 ar
   2    1    6 ar
   3    1   36 1
   4    2    3 ar
   5    2   37 1
   6    3    4 ar
   7    4    5 ar
   8    4    7 1
   9    5    6 ar
  10    5   11 1
  11    6   38 1
  12    7    8 1
  13    7   39 1
  14    8    9 ar
  15    8   12 ar
  16    9   10 1
  17    9   15 ar
  18   10   11 1
  19   10   16 2
  20   11   18 1
  21   12   13 ar
  22   12   40 1
  23   13   14 ar
  24   13   41 1
  25   14   15 ar
  26   14   42 1
  27   15   43 1
  28   16   17 1
  29   17   18 2
  30   17   25 1
  31   18   19 1
  32   19   20 ar
  33   19   21 ar
  34   20   24 ar
  35   20   44 1
  36   21   22 ar
  37   21   45 1
  38   22   23 ar
  39   22   46 1
  40   23   24 ar
  41   23   26 1
  42   24   47 1
  43   25   27 2
  44   25   31 1
  45   26   33 1
  46   26   32 1
  47   26   35 1
  48   27   28 1
  49   27   48 1
  50   28   29 1
  51   28   49 1
  52   28   50 1
  53   29   30 1
  54   29   51 1
  55   30   31 1
  56   30   52 1
  57   30   53 1
  58   31   54 1
  59   31   55 1
  60   32   56 1
  61   32   57 1
  62   33   34 1
  63   33   58 1
  64   33   59 1
  65   34   35 1
  66   34   60 1
  67   34   61 1
  68   35   62 1
  69   35   63 1

#	End of record

