#	Name: ASD01917550
#	Creating user name:	WinNT
#	Creation time:	15. 06. 2019 20:09

#	Modifying user name:	WinNT
#	Modification time:	15. 06. 2019 20:09

#	Program:	/corina/corina34_cracker 3.40 0067  02.08.2006

@<TRIPOS>MOLECULE
ASD01917550
  38   41    0    0    0
SMALL
NO_CHARGES


@<TRIPOS>ATOM
   1 N1             4.8203    -0.4107    -2.1412 N.ar    
   2 C2             5.2866     0.2865    -3.1587 C.ar    
   3 C3             5.1742     1.6663    -3.1851 C.ar    
   4 C4             4.5610     2.3155    -2.1229 C.ar    
   5 C5             4.0809     1.5472    -1.0675 C.ar    
   6 C6             4.2317     0.1683    -1.1139 C.ar    
   7 F7             5.6559     2.3719    -4.2317 F       
   8 O8             3.4732     2.1385    -0.0056 O.3     
   9 C9             3.4534     3.4978     0.0435 C.2     
  10 N10            2.2006     5.5129    -0.0219 N.pl3   
  11 C11            2.2715     4.1523    -0.0658 C.2     
  12 C12            4.6543     4.1994     0.2121 C.2     
  13 C13            4.6288     5.5875     0.2621 C.2     
  14 C14            3.3356     6.2650     0.1353 C.2     
  15 C15            5.8701     6.3587     0.4385 C.2     
  16 N16            5.8262     7.7050     0.4848 N.am    
  17 C17            6.9846     8.4312     0.7573 C.ar    
  18 N18            8.1437     7.8007     0.8623 N.ar    
  19 C19            6.9118     9.8108     0.9104 C.ar    
  20 C20            8.0687    10.5207     1.1802 C.ar    
  21 C21            9.2650     9.8217     1.2882 C.ar    
  22 C22            9.2637     8.4489     1.1186 C.ar    
  23 O23            6.9355     5.7810     0.5426 O.2     
  24 C24            1.1515     6.3893    -0.1070 C.2     
  25 C25            1.6640     7.6345    -0.0097 C.2     
  26 N26            2.9888     7.5394     0.1430 N.2     
  27 F27           10.4172    10.4764     1.5507 F       
  28 H28            5.7627    -0.2253    -3.9820 H       
  29 H29            4.4593     3.3907    -2.1157 H       
  30 H30            3.8623    -0.4370    -0.2993 H       
  31 H31            1.3633     3.5815    -0.1911 H       
  32 H32            5.5896     3.6669     0.3025 H       
  33 H33            4.9887     8.1686     0.3284 H       
  34 H34            5.9648    10.3221     0.8196 H       
  35 H35            8.0425    11.5933     1.3038 H       
  36 H36           10.1910     7.9009     1.1973 H       
  37 H37            0.1102     6.1326    -0.2348 H       
  38 H38            1.0975     8.5535    -0.0411 H       
@<TRIPOS>BOND
   1    1    2 ar
   2    1    6 ar
   3    2    3 ar
   4    2   28 1
   5    3    4 ar
   6    3    7 1
   7    4    5 ar
   8    4   29 1
   9    5    6 ar
  10    5    8 1
  11    6   30 1
  12    8    9 1
  13    9   12 1
  14    9   11 2
  15   10   11 1
  16   10   24 1
  17   10   14 1
  18   11   31 1
  19   12   13 2
  20   12   32 1
  21   13   14 1
  22   13   15 1
  23   14   26 2
  24   15   16 am
  25   15   23 2
  26   16   17 1
  27   16   33 1
  28   17   19 ar
  29   17   18 ar
  30   18   22 ar
  31   19   20 ar
  32   19   34 1
  33   20   21 ar
  34   20   35 1
  35   21   22 ar
  36   21   27 1
  37   22   36 1
  38   24   25 2
  39   24   37 1
  40   25   26 1
  41   25   38 1

#	End of record

