#	Name: ASD01850108
#	Creating user name:	WinNT
#	Creation time:	15. 06. 2019 19:38

#	Modifying user name:	WinNT
#	Modification time:	15. 06. 2019 19:38

#	Program:	/corina/corina34_cracker 3.40 0067  02.08.2006

@<TRIPOS>MOLECULE
ASD01850108
  52   56    0    0    0
SMALL
NO_CHARGES


@<TRIPOS>ATOM
   1 C1             0.1479     1.0697    -0.1544 C.ar    
   2 C2             0.3400    -0.2954    -0.0385 C.ar    
   3 C3             1.6110    -0.8073     0.1249 C.ar    
   4 C4             2.7065     0.0540     0.1732 C.ar    
   5 C5             2.5003     1.4356     0.0733 C.ar    
   6 C6             1.2293     1.9329    -0.0985 C.ar    
   7 C7             4.1586    -0.1876     0.3123 C.2     
   8 N8             4.8248     0.9541     0.1447 N.am    
   9 C9             3.8526     2.0696     0.2176 C.3     
  10 C10            6.0895     1.6475    -0.1636 C.3     
  11 C11            5.6436     2.7487    -1.1572 C.3     
  12 N12            4.1999     2.9496    -0.9036 N.am    
  13 C13            3.3694     3.7755    -1.5703 C.2     
  14 C14            3.9066     4.6932    -2.5957 C.ar    
  15 C15            3.0727     5.6406    -3.1941 C.ar    
  16 C16            3.5802     6.4957    -4.1512 C.ar    
  17 C17            4.9171     6.4143    -4.5186 C.ar    
  18 C18            5.7469     5.4753    -3.9272 C.ar    
  19 C19            5.2507     4.6203    -2.9658 C.ar    
  20 O20            2.1782     3.7653    -1.3277 O.2     
  21 C21            3.9649     2.7921     1.5354 C.ar    
  22 O22            4.6683    -1.2663     0.5448 O.2     
  23 F23            5.4100     7.2531    -5.4559 F       
  24 F24            2.7756     7.4126    -4.7317 F       
  25 C25            4.3671     2.1068     2.6667 C.ar    
  26 C26            4.4707     2.7668     3.8775 C.ar    
  27 C27            4.1723     4.1129     3.9593 C.ar    
  28 C28            3.7689     4.8031     2.8252 C.ar    
  29 C29            3.6712     4.1401     1.6108 C.ar    
  30 C30            4.2845     4.8313     5.2793 C.3     
  31 O31            3.4744     6.1275     2.9033 O.3     
  32 C32            3.0657     6.7735     1.6959 C.3     
  33 H33           -0.8482     1.4632    -0.2935 H       
  34 H34           -0.5081    -0.9630    -0.0756 H       
  35 H35            1.7570    -1.8735     0.2155 H       
  36 H36            1.0747     2.9978    -0.1905 H       
  37 H37            6.5169     2.0896     0.7364 H       
  38 H38            6.7984     0.9665    -0.6346 H       
  39 H39            6.1917     3.6716    -0.9679 H       
  40 H40            5.8037     2.4179    -2.1833 H       
  41 H41            2.0330     5.7036    -2.9087 H       
  42 H42            6.7857     5.4159    -4.2168 H       
  43 H43            5.8991     3.8891    -2.5061 H       
  44 H44            4.6005     1.0541     2.6048 H       
  45 H45            4.7847     2.2291     4.7599 H       
  46 H46            3.3574     4.6751     0.7266 H       
  47 H47            5.2912     5.2343     5.3893 H       
  48 H48            3.5613     5.6462     5.3120 H       
  49 H49            4.0819     4.1330     6.0914 H       
  50 H50            2.1635     6.2948     1.3151 H       
  51 H51            2.8616     7.8250     1.8976 H       
  52 H52            3.8603     6.6934     0.9541 H       
@<TRIPOS>BOND
   1    1    2 ar
   2    1    6 ar
   3    1   33 1
   4    2    3 ar
   5    2   34 1
   6    3    4 ar
   7    3   35 1
   8    4    5 ar
   9    4    7 1
  10    5    6 ar
  11    5    9 1
  12    6   36 1
  13    7    8 am
  14    7   22 2
  15    8    9 1
  16    8   10 1
  17    9   21 1
  18    9   12 1
  19   10   11 1
  20   10   37 1
  21   10   38 1
  22   11   12 1
  23   11   39 1
  24   11   40 1
  25   12   13 am
  26   13   14 1
  27   13   20 2
  28   14   15 ar
  29   14   19 ar
  30   15   16 ar
  31   15   41 1
  32   16   17 ar
  33   16   24 1
  34   17   18 ar
  35   17   23 1
  36   18   19 ar
  37   18   42 1
  38   19   43 1
  39   21   25 ar
  40   21   29 ar
  41   25   26 ar
  42   25   44 1
  43   26   27 ar
  44   26   45 1
  45   27   28 ar
  46   27   30 1
  47   28   29 ar
  48   28   31 1
  49   29   46 1
  50   30   47 1
  51   30   48 1
  52   30   49 1
  53   31   32 1
  54   32   50 1
  55   32   51 1
  56   32   52 1

#	End of record

