#	Name: ASD03330503
#	Creating user name:	WinNT
#	Creation time:	15. 06. 2019 20:37

#	Modifying user name:	WinNT
#	Modification time:	15. 06. 2019 20:37

#	Program:	/corina/corina34_cracker 3.40 0067  02.08.2006

@<TRIPOS>MOLECULE
ASD03330503
  45   47    0    0    0
SMALL
NO_CHARGES


@<TRIPOS>ATOM
   1 C1            -0.0179     1.4655     0.0101 C.3     
   2 N2             0.0021    -0.0041     0.0020 N.3     
   3 C3             0.4507    -0.5225    -1.3030 C.3     
   4 C4             1.7235     0.1924    -1.6756 C.2     
   5 N5             2.1518     1.3326    -1.0777 N.pl3   
   6 C6             1.4183     2.0045    -0.0007 C.3     
   7 C7             2.6511    -0.1365    -2.6296 C.2     
   8 N8             3.6262     0.8109    -2.5887 N.2     
   9 C9             3.3278     1.6895    -1.6594 C.2     
  10 C10            4.1390     2.8746    -1.3035 C.ar    
  11 C11            2.6015    -1.2941    -3.5270 C.2     
  12 O12            1.6717    -2.0712    -3.4640 O.2     
  13 C13            3.4125    -2.7867    -5.3335 C.3     
  14 C14            3.7053    -1.5193    -4.5280 C.3     
  15 C15            2.0809    -2.6267    -6.0699 C.3     
  16 C16            4.5331    -3.0153    -6.3498 C.3     
  17 C17            5.1498     3.3140    -2.1587 C.ar    
  18 C18            5.9028     4.4198    -1.8211 C.ar    
  19 C19            5.6572     5.0924    -0.6374 C.ar    
  20 C20            4.6562     4.6616     0.2150 C.ar    
  21 C21            3.8924     3.5607    -0.1140 C.ar    
  22 C22            3.3306    -3.9855    -4.3863 C.3     
  23 H23           -0.5467     1.8256    -0.8724 H       
  24 H24           -0.5297     1.8160     0.9063 H       
  25 H25            0.5767    -0.3620     0.7502 H       
  26 H26            0.6378    -1.5937    -1.2293 H       
  27 H27           -0.3130    -0.3323    -2.0572 H       
  28 H28            1.4061     3.0798    -0.1793 H       
  29 H29            1.8967     1.7955     0.9561 H       
  30 H30            3.7636    -0.6653    -5.2028 H       
  31 H31            4.6539    -1.6333    -4.0034 H       
  32 H32            2.1392    -1.7727    -6.7447 H       
  33 H33            1.8723    -3.5296    -6.6438 H       
  34 H34            1.2826    -2.4638    -5.3459 H       
  35 H35            5.4817    -3.1293    -5.8252 H       
  36 H36            4.3245    -3.9183    -6.9237 H       
  37 H37            4.5914    -2.1613    -7.0246 H       
  38 H38            5.3428     2.7896    -3.0829 H       
  39 H39            6.6859     4.7608    -2.4821 H       
  40 H40            6.2496     5.9572    -0.3774 H       
  41 H41            4.4692     5.1909     1.1376 H       
  42 H42            3.1112     3.2253     0.5521 H       
  43 H43            2.5323    -3.8226    -3.6623 H       
  44 H44            3.1220    -4.8884    -4.9602 H       
  45 H45            4.2792    -4.0994    -3.8617 H       
@<TRIPOS>BOND
   1    1    2 1
   2    1    6 1
   3    1   23 1
   4    1   24 1
   5    2    3 1
   6    2   25 1
   7    3    4 1
   8    3   26 1
   9    3   27 1
  10    4    5 1
  11    4    7 2
  12    5    6 1
  13    5    9 1
  14    6   28 1
  15    6   29 1
  16    7    8 1
  17    7   11 1
  18    8    9 2
  19    9   10 1
  20   10   17 ar
  21   10   21 ar
  22   11   12 2
  23   11   14 1
  24   13   14 1
  25   13   15 1
  26   13   16 1
  27   13   22 1
  28   14   30 1
  29   14   31 1
  30   15   32 1
  31   15   33 1
  32   15   34 1
  33   16   35 1
  34   16   36 1
  35   16   37 1
  36   17   18 ar
  37   17   38 1
  38   18   19 ar
  39   18   39 1
  40   19   20 ar
  41   19   40 1
  42   20   21 ar
  43   20   41 1
  44   21   42 1
  45   22   43 1
  46   22   44 1
  47   22   45 1

#	End of record

