#	Name: ASD01028209
#	Creating user name:	WinNT
#	Creation time:	15. 06. 2019 18:56

#	Modifying user name:	WinNT
#	Modification time:	15. 06. 2019 18:56

#	Program:	/corina/corina34_cracker 3.40 0067  02.08.2006

@<TRIPOS>MOLECULE
ASD01028209
  46   50    0    0    0
SMALL
NO_CHARGES


@<TRIPOS>ATOM
   1 C1            -0.0166     1.3719     0.0096 C.ar    
   2 C2             0.0021    -0.0041     0.0020 C.ar    
   3 C3             1.1750     2.1035     0.0021 C.ar    
   4 C4             2.3797     1.4715    -0.0128 C.ar    
   5 C5             2.4326     0.0695    -0.0208 C.ar    
   6 C6             1.2322    -0.6815    -0.0134 C.ar    
   7 C7             3.6676    -0.6170    -0.0367 C.ar    
   8 C8             3.6411    -2.0003    -0.0444 C.ar    
   9 C9             2.4221    -2.6660    -0.0364 C.ar    
  10 N10            1.2804    -2.0188    -0.0211 N.ar    
  11 O11            4.8427     0.0593    -0.0447 O.3     
  12 C12            6.0400    -0.7207    -0.0607 C.3     
  13 C13            7.2364     0.1957    -0.0676 C.2     
  14 N14            7.8862     0.6791     1.0261 N.pl3   
  15 C15            8.9035     1.4645     0.5426 C.2     
  16 N16            8.8256     1.4220    -0.7778 N.2     
  17 N17            7.8435     0.6672    -1.1260 N.2     
  18 C18            7.7072     0.5255     2.3688 C.2     
  19 C19            8.5353     1.1496     3.2492 C.2     
  20 C20            9.5905     1.9639     2.7757 C.2     
  21 C21            9.7726     2.1179     1.4388 C.2     
  22 C22            8.3308     0.9762     4.7099 C.2     
  23 O23           -1.2065     2.0271     0.0188 O.3     
  24 C24           -1.1606     3.4553     0.0263 C.3     
  25 N25            7.3791     0.2398     5.3101 N.2     
  26 N26            7.5235     0.3350     6.5846 N.2     
  27 N27            8.5211     1.0959     6.8689 N.pl3   
  28 C28            9.0745     1.5274     5.7124 C.2     
  29 C29            8.9832     1.4337     8.2175 C.3     
  30 H30           -0.9239    -0.5598     0.0082 H       
  31 H31            1.1387     3.1829     0.0079 H       
  32 H32            3.2932     2.0476    -0.0188 H       
  33 H33            4.5646    -2.5602    -0.0569 H       
  34 H34            2.4134    -3.7460    -0.0425 H       
  35 H35            6.0728    -1.3543     0.8256 H       
  36 H36            6.0552    -1.3447    -0.9543 H       
  37 H37            6.9030    -0.0951     2.7357 H       
  38 H38           10.2485     2.4600     3.4738 H       
  39 H39           10.5751     2.7370     1.0659 H       
  40 H40           -2.1761     3.8514     0.0333 H       
  41 H41           -0.6312     3.7971     0.9157 H       
  42 H42           -0.6396     3.8068    -0.8642 H       
  43 H43            9.9278     2.1807     5.6045 H       
  44 H44            9.7231     0.7020     8.5419 H       
  45 H45            9.4333     2.4264     8.2093 H       
  46 H46            8.1371     1.4240     8.9045 H       
@<TRIPOS>BOND
   1    1    2 ar
   2    1    3 ar
   3    1   23 1
   4    2    6 ar
   5    2   30 1
   6    3    4 ar
   7    3   31 1
   8    4    5 ar
   9    4   32 1
  10    5    6 ar
  11    5    7 ar
  12    6   10 ar
  13    7    8 ar
  14    7   11 1
  15    8    9 ar
  16    8   33 1
  17    9   10 ar
  18    9   34 1
  19   11   12 1
  20   12   13 1
  21   12   35 1
  22   12   36 1
  23   13   14 1
  24   13   17 2
  25   14   15 1
  26   14   18 1
  27   15   16 2
  28   15   21 1
  29   16   17 1
  30   18   19 2
  31   18   37 1
  32   19   20 1
  33   19   22 1
  34   20   21 2
  35   20   38 1
  36   21   39 1
  37   22   25 1
  38   22   28 2
  39   23   24 1
  40   24   40 1
  41   24   41 1
  42   24   42 1
  43   25   26 2
  44   26   27 1
  45   27   28 1
  46   27   29 1
  47   28   43 1
  48   29   44 1
  49   29   45 1
  50   29   46 1

#	End of record

