#	Name: ASD05143269
#	Creating user name:	WinNT
#	Creation time:	15. 06. 2019 20:57

#	Modifying user name:	WinNT
#	Modification time:	15. 06. 2019 20:57

#	Program:	/corina/corina34_cracker 3.40 0067  02.08.2006

@<TRIPOS>MOLECULE
ASD05143269
  41   43    0    0    0
SMALL
NO_CHARGES


@<TRIPOS>ATOM
   1 C1             0.3287     1.2303     0.2632 C.2     
   2 N2             0.3275    -0.0358    -0.1040 N.2     
   3 S3            -1.3083    -0.4866    -0.1963 S.3     
   4 C4            -1.9088     1.0600     0.2663 C.2     
   5 N5            -0.8419     1.8032     0.4626 N.2     
   6 N6            -3.2312     1.4381     0.4066 N.pl3   
   7 C7            -3.5468     2.7109     0.8926 C.ar    
   8 C8            -4.8661     3.0377     1.1850 C.ar    
   9 C9            -5.1738     4.2961     1.6654 C.ar    
  10 C10           -4.1710     5.2297     1.8549 C.ar    
  11 C11           -2.8581     4.9074     1.5649 C.ar    
  12 C12           -2.5425     3.6492     1.0896 C.ar    
  13 C13            1.4200    -0.8254    -0.3593 C.ar    
  14 C14            1.6063    -2.0141     0.3484 C.ar    
  15 C15            2.3467    -0.4462    -1.3319 C.ar    
  16 C16            3.4429    -1.2444    -1.5845 C.ar    
  17 C17            3.6249    -2.4201    -0.8758 C.ar    
  18 C18            2.7065    -2.8040     0.0868 C.ar    
  19 C19            1.5943     1.9775     0.4501 C.ar    
  20 C20            1.6491     3.3427     0.1711 C.ar    
  21 C21            2.7342     1.3194     0.9112 C.ar    
  22 C22            3.9099     2.0208     1.0838 C.ar    
  23 C23            3.9594     3.3739     0.8003 C.ar    
  24 C24            2.8306     4.0333     0.3476 C.ar    
  25 Cl25           5.0064    -3.4200    -1.2001 Cl      
  26 Cl26          -6.1252     1.8666     0.9463 Cl      
  27 H27           -3.9402     0.8206     0.1679 H       
  28 H28           -6.1983     4.5512     1.8929 H       
  29 H29           -4.4141     6.2129     2.2298 H       
  30 H30           -2.0777     5.6389     1.7141 H       
  31 H31           -1.5166     3.3985     0.8634 H       
  32 H32            0.8907    -2.3145     1.0994 H       
  33 H33            2.2055     0.4702    -1.8858 H       
  34 H34            4.1606    -0.9521    -2.3368 H       
  35 H35            2.8539    -3.7218     0.6366 H       
  36 H36            0.7686     3.8584    -0.1827 H       
  37 H37            2.6966     0.2631     1.1331 H       
  38 H38            4.7932     1.5123     1.4412 H       
  39 H39            4.8818     3.9187     0.9373 H       
  40 H40            2.8753     5.0898     0.1280 H       
  41 Br41          10.0064    11.2129     7.2298 Br      
@<TRIPOS>BOND
   1    1    2 2
   2    1   19 1
   3    1    5 1
   4    2    3 1
   5    2   13 1
   6    3    4 1
   7    4    5 2
   8    4    6 1
   9    6    7 1
  10    6   27 1
  11    7    8 ar
  12    7   12 ar
  13    8    9 ar
  14    8   26 1
  15    9   10 ar
  16    9   28 1
  17   10   11 ar
  18   10   29 1
  19   11   12 ar
  20   11   30 1
  21   12   31 1
  22   13   14 ar
  23   13   15 ar
  24   14   18 ar
  25   14   32 1
  26   15   16 ar
  27   15   33 1
  28   16   17 ar
  29   16   34 1
  30   17   18 ar
  31   17   25 1
  32   18   35 1
  33   19   20 ar
  34   19   21 ar
  35   20   24 ar
  36   20   36 1
  37   21   22 ar
  38   21   37 1
  39   22   23 ar
  40   22   38 1
  41   23   24 ar
  42   23   39 1
  43   24   40 1

#	End of record

