#	Name: ASD05740058
#	Creating user name:	WinNT
#	Creation time:	15. 06. 2019 21:02

#	Modifying user name:	WinNT
#	Modification time:	15. 06. 2019 21:02

#	Program:	/corina/corina34_cracker 3.40 0067  02.08.2006

@<TRIPOS>MOLECULE
ASD05740058
  47   50    0    0    0
SMALL
NO_CHARGES


@<TRIPOS>ATOM
   1 C1             0.3460     1.4963     0.0181 C.3     
   2 C2            -0.1179    -4.1872     2.1914 C.ar    
   3 C3             0.0383    -4.8853     0.9930 C.ar    
   4 N4            -0.0878    -2.8753     2.2212 N.ar    
   5 C5             0.0922    -2.1579     1.1145 C.ar    
   6 C6             0.2568    -2.7916    -0.1293 C.ar    
   7 C7             0.2289    -4.1810    -0.1881 C.ar    
   8 C8             0.1224    -0.6918     1.1679 C.2     
   9 C9             0.3087    -0.0103     0.0098 C.2     
  10 C10            0.4670    -0.7151    -1.2037 C.2     
  11 O11            0.4384    -2.0564    -1.2456 O.3     
  12 C12            1.7764     1.9629     0.1024 C.2     
  13 S13            2.6562     2.2703     1.5939 S.3     
  14 O14            0.6331    -0.0914    -2.2363 O.2     
  15 O15            0.0047    -6.2424     0.9825 O.3     
  16 C16            0.0014    -6.8695    -0.2191 C.2     
  17 C17           -0.0494     0.0379     2.4752 C.3     
  18 C18            2.5727     2.2009    -0.9456 C.2     
  19 C19            3.8551     2.6182    -0.6187 C.2     
  20 C20            4.0942     2.7253     0.6896 C.2     
  21 N21            2.1433     2.0403    -2.2767 N.am    
  22 S22            3.2019     1.4968    -3.4283 S.o2    
  23 O23            2.4397     1.4856    -4.6275 O.2     
  24 O24            4.3357     2.3419    -3.2888 O.2     
  25 N25           -0.1047    -6.2758    -1.3655 N.2     
  26 S26            0.1441    -8.5585    -0.4425 S.3     
  27 C27            0.0370    -8.3471    -2.1883 C.2     
  28 C28           -0.0898    -7.0431    -2.4399 C.2     
  29 C29            3.6021    -0.1956    -2.9126 C.3     
  30 C30            4.5849    -0.8136    -3.9092 C.3     
  31 H31           -0.1067     1.8760    -0.8979 H       
  32 H32           -0.2090     1.8687     0.8791 H       
  33 H33           -0.2706    -4.7356     3.1091 H       
  34 H34            0.3526    -4.6984    -1.1280 H       
  35 H35           -0.1856    -0.6850     3.2796 H       
  36 H36            0.8368     0.6404     2.6743 H       
  37 H37           -0.9239     0.6860     2.4174 H       
  38 H38            4.6009     2.8447    -1.3663 H       
  39 H39            5.0317     3.0353     1.1271 H       
  40 H40            1.2273     2.2480    -2.5192 H       
  41 H41            0.0721    -9.1351    -2.9260 H       
  42 H42           -0.1755    -6.6474    -3.4411 H       
  43 H43            4.0544    -0.1760    -1.9210 H       
  44 H44            2.6902    -0.7921    -2.8842 H       
  45 H45            4.1326    -0.8333    -4.9007 H       
  46 H46            5.4968    -0.2172    -3.9375 H       
  47 H47            4.8253    -1.8305    -3.5993 H       
@<TRIPOS>BOND
   1    1    9 1
   2    1   12 1
   3    1   31 1
   4    1   32 1
   5    2    3 ar
   6    2    4 ar
   7    2   33 1
   8    3   15 1
   9    3    7 ar
  10    4    5 ar
  11    5    6 ar
  12    5    8 1
  13    6    7 ar
  14    6   11 1
  15    7   34 1
  16    8    9 2
  17    8   17 1
  18    9   10 1
  19   10   11 1
  20   10   14 2
  21   12   13 1
  22   12   18 2
  23   13   20 1
  24   15   16 1
  25   16   26 1
  26   16   25 2
  27   17   35 1
  28   17   36 1
  29   17   37 1
  30   18   19 1
  31   18   21 1
  32   19   20 2
  33   19   38 1
  34   20   39 1
  35   21   22 am
  36   21   40 1
  37   22   23 2
  38   22   24 2
  39   22   29 1
  40   25   28 1
  41   26   27 1
  42   27   28 2
  43   27   41 1
  44   28   42 1
  45   29   30 1
  46   29   43 1
  47   29   44 1
  48   30   45 1
  49   30   46 1
  50   30   47 1

#	End of record

