#	Name: ASD01150702
#	Creating user name:	WinNT
#	Creation time:	15. 06. 2019 19:04

#	Modifying user name:	WinNT
#	Modification time:	15. 06. 2019 19:04

#	Program:	/corina/corina34_cracker 3.40 0067  02.08.2006

@<TRIPOS>MOLECULE
ASD01150702
  50   54    0    0    0
SMALL
NO_CHARGES


@<TRIPOS>ATOM
   1 C1             0.1374     1.2478     0.9540 C.2     
   2 O2            -0.0384     1.1181     2.1475 O.2     
   3 C3             3.2633     3.6997    -0.4677 C.ar    
   4 C4             3.5612     2.3633    -0.2024 C.ar    
   5 C5             2.5246     1.5179     0.2763 C.ar    
   6 C6             1.2434     2.0735     0.4618 C.ar    
   7 C7             1.0443     3.4297     0.1670 C.ar    
   8 N8             2.0262     4.1743    -0.2734 N.ar    
   9 C9             4.9562     2.0323    -0.4715 C.2     
  10 C10            5.6788     3.0605    -0.9183 C.2     
  11 S11            4.7107     4.5195    -1.0384 S.3     
  12 C12            7.1539     2.9805    -1.2730 C.3     
  13 C13            7.7421     1.7110    -0.6525 C.3     
  14 C14            6.8492     0.5206    -1.0160 C.3     
  15 C15            5.5264     0.6363    -0.2569 C.3     
  16 C16           -0.3206     4.0387     0.3597 C.3     
  17 C17            2.7834     0.0935     0.5715 C.ar    
  18 C18            2.2669    -0.8998    -0.2638 C.ar    
  19 C19            2.5109    -2.2269     0.0146 C.ar    
  20 C20            3.2691    -2.5778     1.1247 C.ar    
  21 C21            3.7843    -1.5928     1.9583 C.ar    
  22 C22            3.5501    -0.2633     1.6833 C.ar    
  23 O23            3.5070    -3.8869     1.3960 O.3     
  24 C24            4.2940    -4.1772     2.5529 C.3     
  25 C25           -0.7778     0.5546    -0.0221 C.3     
  26 C26           -1.5051    -0.7017     0.4612 C.3     
  27 C27           -2.2804     0.6022     0.2623 C.3     
  28 H28            7.2677     2.9441    -2.3564 H       
  29 H29            7.6725     3.8542    -0.8783 H       
  30 H30            8.7466     1.5461    -1.0420 H       
  31 H31            7.7823     1.8195     0.4314 H       
  32 H32            6.6551     0.5248    -2.0885 H       
  33 H33            7.3487    -0.4076    -0.7386 H       
  34 H34            5.7002     0.4723     0.8065 H       
  35 H35            4.8235    -0.1071    -0.6329 H       
  36 H36           -0.4386     4.3444     1.3993 H       
  37 H37           -0.4253     4.9085    -0.2888 H       
  38 H38           -1.0853     3.3038     0.1081 H       
  39 H39            1.6768    -0.6279    -1.1265 H       
  40 H40            2.1119    -2.9955    -0.6307 H       
  41 H41            4.3726    -1.8696     2.8207 H       
  42 H42            3.9546     0.5019     2.3293 H       
  43 H43            5.2763    -3.7164     2.4490 H       
  44 H44            3.7981    -3.7799     3.4386 H       
  45 H45            4.4077    -5.2565     2.6535 H       
  46 H46           -0.4615     0.5833    -1.0648 H       
  47 H47           -1.6676    -1.4994    -0.2636 H       
  48 H48           -1.3215    -1.0269     1.4853 H       
  49 H49           -2.6069     1.1349     1.1555 H       
  50 H50           -2.9530     0.6623    -0.5934 H       
@<TRIPOS>BOND
   1    1    2 2
   2    1    6 1
   3    1   25 1
   4    3    4 ar
   5    3    8 ar
   6    3   11 1
   7    4    5 ar
   8    4    9 1
   9    5    6 ar
  10    5   17 1
  11    6    7 ar
  12    7    8 ar
  13    7   16 1
  14    9   10 2
  15    9   15 1
  16   10   11 1
  17   10   12 1
  18   12   13 1
  19   12   28 1
  20   12   29 1
  21   13   14 1
  22   13   30 1
  23   13   31 1
  24   14   15 1
  25   14   32 1
  26   14   33 1
  27   15   34 1
  28   15   35 1
  29   16   36 1
  30   16   37 1
  31   16   38 1
  32   17   18 ar
  33   17   22 ar
  34   18   19 ar
  35   18   39 1
  36   19   20 ar
  37   19   40 1
  38   20   21 ar
  39   20   23 1
  40   21   22 ar
  41   21   41 1
  42   22   42 1
  43   23   24 1
  44   24   43 1
  45   24   44 1
  46   24   45 1
  47   25   26 1
  48   25   27 1
  49   25   46 1
  50   26   27 1
  51   26   47 1
  52   26   48 1
  53   27   49 1
  54   27   50 1

#	End of record

