#	Name: ASD00069165
#	Creating user name:	WinNT
#	Creation time:	15. 06. 2019 18:29

#	Modifying user name:	WinNT
#	Modification time:	15. 06. 2019 18:29

#	Program:	/corina/corina34_cracker 3.40 0067  02.08.2006

@<TRIPOS>MOLECULE
ASD00069165
  60   63    0    0    0
SMALL
NO_CHARGES


@<TRIPOS>ATOM
   1 N1             0.5096     1.5870    -0.1500 N.3     
   2 C2             0.3531     0.1285    -0.2176 C.3     
   3 C3             1.3666    -0.5385     0.7150 C.3     
   4 C4             2.7827    -0.1382     0.2918 C.3     
   5 C5             2.9046     1.3877     0.3244 C.3     
   6 C6             1.8464     1.9989    -0.5969 C.3     
   7 C7             3.7826    -0.7437     1.2429 C.2     
   8 O8             3.4337    -1.0856     2.3530 O.2     
   9 N9             5.0647    -0.9053     0.8599 N.am    
  10 C10            6.0596    -1.3931     1.8183 C.3     
  11 C11            5.4634    -0.5932    -0.5148 C.3     
  12 C12           -0.4885     2.2339    -0.8898 C.ar    
  13 C13           -0.6094     1.9968    -2.2530 C.ar    
  14 C14           -1.5965     2.6375    -2.9811 C.ar    
  15 C15           -2.4639     3.5141    -2.3549 C.ar    
  16 C16           -2.3502     3.7554    -0.9990 C.ar    
  17 C17           -1.3672     3.1133    -0.2593 C.ar    
  18 N18           -1.2549     3.3521     1.1160 N.am    
  19 C19           -1.6116     4.5487     1.6235 C.2     
  20 O20           -2.1047     5.3933     0.9005 O.2     
  21 C21           -1.4040     4.8337     3.0550 C.2     
  22 N22           -0.8827     4.0074     3.9343 N.2     
  23 C23           -0.8505     4.6071     5.1310 C.2     
  24 C24           -1.3750     5.8618     4.9894 C.2     
  25 N25           -1.7162     6.0043     3.6894 N.pl3   
  26 C26            0.6473     2.2024     7.6053 C.ar    
  27 C27            0.1791     2.7151     6.4132 C.ar    
  28 C28           -0.3364     4.0142     6.3896 C.ar    
  29 C29           -0.3539     4.7395     7.5848 C.ar    
  30 C30            0.1343     4.1504     8.7323 C.ar    
  31 N31            0.6127     2.9207     8.7114 N.ar    
  32 C32            1.1999     0.8010     7.6458 C.3     
  33 F33            0.2365     1.1415    -2.8679 F       
  34 H34           -0.6568    -0.1430     0.0898 H       
  35 H35            0.5241    -0.2081    -1.2402 H       
  36 H36            1.1874    -0.2130     1.7397 H       
  37 H37            1.2607    -1.6215     0.6528 H       
  38 H38            2.9761    -0.4976    -0.7189 H       
  39 H39            2.7495     1.7435     1.3429 H       
  40 H40            3.8974     1.6809    -0.0169 H       
  41 H41            2.0105     1.6536    -1.6177 H       
  42 H42            1.9212     3.0859    -0.5650 H       
  43 H43            6.1010    -2.4815     1.7768 H       
  44 H44            7.0376    -0.9824     1.5675 H       
  45 H45            5.7804    -1.0782     2.8238 H       
  46 H46            4.5818    -0.3245    -1.0967 H       
  47 H47            6.1635     0.2423    -0.5092 H       
  48 H48            5.9416    -1.4650    -0.9612 H       
  49 H49           -1.6895     2.4528    -4.0411 H       
  50 H50           -3.2324     4.0120    -2.9276 H       
  51 H51           -3.0293     4.4409    -0.5139 H       
  52 H52           -0.9204     2.6564     1.7034 H       
  53 H53           -1.4910     6.6009     5.7684 H       
  54 H54           -2.1113     6.7909     3.2819 H       
  55 H55            0.2108     2.1217     5.5113 H       
  56 H56           -0.7436     5.7465     7.6090 H       
  57 H57            0.1253     4.7029     9.6602 H       
  58 H58            2.2707     0.8267     7.4438 H       
  59 H59            1.0265     0.3704     8.6321 H       
  60 H60            0.7022     0.1922     6.8910 H       
@<TRIPOS>BOND
   1    1    2 1
   2    1    6 1
   3    1   12 1
   4    2    3 1
   5    2   34 1
   6    2   35 1
   7    3    4 1
   8    3   36 1
   9    3   37 1
  10    4    5 1
  11    4    7 1
  12    4   38 1
  13    5    6 1
  14    5   39 1
  15    5   40 1
  16    6   41 1
  17    6   42 1
  18    7    8 2
  19    7    9 am
  20    9   10 1
  21    9   11 1
  22   10   43 1
  23   10   44 1
  24   10   45 1
  25   11   46 1
  26   11   47 1
  27   11   48 1
  28   12   13 ar
  29   12   17 ar
  30   13   14 ar
  31   13   33 1
  32   14   15 ar
  33   14   49 1
  34   15   16 ar
  35   15   50 1
  36   16   17 ar
  37   16   51 1
  38   17   18 1
  39   18   19 am
  40   18   52 1
  41   19   20 2
  42   19   21 1
  43   21   22 2
  44   21   25 1
  45   22   23 1
  46   23   24 2
  47   23   28 1
  48   24   25 1
  49   24   53 1
  50   25   54 1
  51   26   27 ar
  52   26   31 ar
  53   26   32 1
  54   27   28 ar
  55   27   55 1
  56   28   29 ar
  57   29   30 ar
  58   29   56 1
  59   30   31 ar
  60   30   57 1
  61   32   58 1
  62   32   59 1
  63   32   60 1

#	End of record

