#	Name: ASD05273005
#	Creating user name:	WinNT
#	Creation time:	15. 06. 2019 20:58

#	Modifying user name:	WinNT
#	Modification time:	15. 06. 2019 20:58

#	Program:	/corina/corina34_cracker 3.40 0067  02.08.2006

@<TRIPOS>MOLECULE
ASD05273005
   9    9    0    0    0
SMALL
NO_CHARGES


@<TRIPOS>ATOM
   1 C1            -0.0162     1.3425     0.0094 C.2     
   2 C2             0.0021    -0.0041     0.0020 C.2     
   3 N3             1.2830    -0.4016    -0.0123 N.2     
   4 C4             2.0592     0.6475    -0.0141 C.2     
   5 N5             1.2885     1.7563    -0.0008 N.pl3   
   6 H6            -0.8920     1.9744     0.0172 H       
   7 H7            -0.8630    -0.6505     0.0068 H       
   8 H8             3.1390     0.6315    -0.0242 H       
   9 H9             1.6011     2.6745     0.0007 H       
@<TRIPOS>BOND
   1    1    2 2
   2    1    5 1
   3    1    6 1
   4    2    3 1
   5    2    7 1
   6    3    4 2
   7    4    5 1
   8    4    8 1
   9    5    9 1

#	End of record

