#	Name: ASD01510026
#	Creating user name:	WinNT
#	Creation time:	15. 06. 2019 19:21

#	Modifying user name:	WinNT
#	Modification time:	15. 06. 2019 19:21

#	Program:	/corina/corina34_cracker 3.40 0067  02.08.2006

@<TRIPOS>MOLECULE
ASD01510026
  26   26    0    0    0
SMALL
NO_CHARGES


@<TRIPOS>ATOM
   1 C1            -0.0187     1.5258     0.0104 C.3     
   2 C2             0.0021    -0.0041     0.0020 C.3     
   3 O3             0.6709    -0.4649    -1.1737 O.3     
   4 C4             0.7765    -1.8064    -1.3357 C.ar    
   5 C5             1.4135    -2.3327    -2.4538 C.ar    
   6 C6             1.4984    -3.7148    -2.5787 C.ar    
   7 O7             2.1111    -4.2707    -3.6522 O.3     
   8 C8             2.1564    -5.6980    -3.7063 C.3     
   9 C9             2.8811    -6.1373    -4.9801 C.3     
  10 N10            0.9714    -4.4837    -1.6314 N.ar    
  11 C11            0.3714    -3.9480    -0.5790 C.ar    
  12 N12            0.2772    -2.6357    -0.4251 N.ar    
  13 N13           -0.1661    -4.7805     0.3870 N.pl3   
  14 H14            1.0039     1.9031     0.0027 H       
  15 H15           -0.5459     1.8868    -0.8726 H       
  16 H16           -0.5289     1.8773     0.9072 H       
  17 H17            0.5293    -0.3651     0.8851 H       
  18 H18           -1.0205    -0.3814     0.0098 H       
  19 H19            1.8323    -1.6830    -3.2081 H       
  20 H20            2.6903    -6.0778    -2.8351 H       
  21 H21            1.1409    -6.0939    -3.7111 H       
  22 H22            2.3472    -5.7575    -5.8512 H       
  23 H23            3.8967    -5.7415    -4.9753 H       
  24 H24            2.9157    -7.2260    -5.0213 H       
  25 H25           -0.1008    -5.7432     0.2884 H       
  26 H26           -0.6082    -4.4012     1.1626 H       
@<TRIPOS>BOND
   1    1    2 1
   2    1   14 1
   3    1   15 1
   4    1   16 1
   5    2    3 1
   6    2   17 1
   7    2   18 1
   8    3    4 1
   9    4    5 ar
  10    4   12 ar
  11    5    6 ar
  12    5   19 1
  13    6    7 1
  14    6   10 ar
  15    7    8 1
  16    8    9 1
  17    8   20 1
  18    8   21 1
  19    9   22 1
  20    9   23 1
  21    9   24 1
  22   10   11 ar
  23   11   12 ar
  24   11   13 1
  25   13   25 1
  26   13   26 1

#	End of record

