#	Name: ASD01814308
#	Creating user name:	WinNT
#	Creation time:	15. 06. 2019 19:32

#	Modifying user name:	WinNT
#	Modification time:	15. 06. 2019 19:32

#	Program:	/corina/corina34_cracker 3.40 0067  02.08.2006

@<TRIPOS>MOLECULE
ASD01814308
  59   64    0    0    0
SMALL
NO_CHARGES


@<TRIPOS>ATOM
   1 C1            -0.0168     1.3869     0.0097 C.ar    
   2 C2             0.0021    -0.0041     0.0020 C.ar    
   3 C3             1.1801    -0.6897    -0.0124 C.ar    
   4 C4             2.3948     0.0129    -0.0202 C.ar    
   5 C5             2.3717     1.4289    -0.0129 C.ar    
   6 C6             1.1455     2.1014     0.0024 C.ar    
   7 C7             3.6294    -0.6695    -0.0356 C.ar    
   8 C8             4.8032     0.0061    -0.0436 C.ar    
   9 C9             4.8361     1.4094    -0.0369 C.ar    
  10 C10            3.6406     2.1511    -0.0211 C.ar    
  11 C11            6.1027     2.1518    -0.0460 C.2     
  12 N12            6.0337     3.5033    -0.0390 N.am    
  13 C13            4.8295     4.1317    -0.0237 C.2     
  14 N14            3.6956     3.4935    -0.0159 N.2     
  15 C15            3.6424    -2.1764    -0.0428 C.3     
  16 C16            3.5088    -2.6732    -1.4593 C.ar    
  17 C17            4.6414    -2.8895    -2.2233 C.ar    
  18 C18            4.5248    -3.3444    -3.5212 C.ar    
  19 C19            3.2636    -3.5857    -4.0613 C.ar    
  20 C20            2.1263    -3.3662    -3.2875 C.ar    
  21 C21            2.2545    -2.9166    -1.9888 C.ar    
  22 O22            7.1744     1.5735    -0.0590 O.2     
  23 C23            3.1321    -4.0747    -5.4571 C.2     
  24 C24            7.2125     4.2596    -0.0472 C.ar    
  25 C25            7.8099     4.6296     1.1503 C.ar    
  26 C26            8.9727     5.3752     1.1388 C.ar    
  27 C27            9.5415     5.7533    -0.0633 C.ar    
  28 C28            8.9485     5.3867    -1.2578 C.ar    
  29 C29            7.7894     4.6361    -1.2532 C.ar    
  30 C30            7.1902     4.2188     2.4610 C.3     
  31 C31            4.1892    -4.3388    -6.3496 C.2     
  32 N32            3.6746    -4.7521    -7.4774 N.2     
  33 N33            2.2803    -4.7682    -7.3507 N.pl3   
  34 C34            1.9654    -4.3556    -6.1064 C.2     
  35 C35            1.3281    -5.1690    -8.3894 C.3     
  36 H36           -0.9630     1.9075     0.0169 H       
  37 H37           -0.9305    -0.5488     0.0080 H       
  38 H38            1.1786    -1.7697    -0.0175 H       
  39 H39            1.1188     3.1811     0.0081 H       
  40 H40            5.7316    -0.5454    -0.0551 H       
  41 H41            4.8124     5.2115    -0.0177 H       
  42 H42            4.5811    -2.5337     0.3806 H       
  43 H43            2.8096    -2.5498     0.5532 H       
  44 H44            5.6187    -2.7017    -1.8037 H       
  45 H45            5.4097    -3.5127    -4.1170 H       
  46 H46            1.1462    -3.5514    -3.7016 H       
  47 H47            1.3734    -2.7460    -1.3880 H       
  48 H48            9.4379     5.6633     2.0699 H       
  49 H49           10.4504     6.3365    -0.0696 H       
  50 H50            9.3948     5.6841    -2.1952 H       
  51 H51            7.3270     4.3498    -2.1863 H       
  52 H52            7.5951     3.2544     2.7679 H       
  53 H53            7.4176     4.9666     3.2207 H       
  54 H54            6.1096     4.1381     2.3426 H       
  55 H55            5.2417    -4.2200    -6.1387 H       
  56 H56            0.9698    -4.2590    -5.6993 H       
  57 H57            1.1333    -6.2385    -8.3106 H       
  58 H58            0.3958    -4.6194    -8.2593 H       
  59 H59            1.7466    -4.9473    -9.3711 H       
@<TRIPOS>BOND
   1    1    2 ar
   2    1    6 ar
   3    1   36 1
   4    2    3 ar
   5    2   37 1
   6    3    4 ar
   7    3   38 1
   8    4    5 ar
   9    4    7 ar
  10    5    6 ar
  11    5   10 ar
  12    6   39 1
  13    7    8 ar
  14    7   15 1
  15    8    9 ar
  16    8   40 1
  17    9   10 ar
  18    9   11 1
  19   10   14 1
  20   11   12 am
  21   11   22 2
  22   12   13 1
  23   12   24 1
  24   13   14 2
  25   13   41 1
  26   15   16 1
  27   15   42 1
  28   15   43 1
  29   16   17 ar
  30   16   21 ar
  31   17   18 ar
  32   17   44 1
  33   18   19 ar
  34   18   45 1
  35   19   20 ar
  36   19   23 1
  37   20   21 ar
  38   20   46 1
  39   21   47 1
  40   23   31 1
  41   23   34 2
  42   24   25 ar
  43   24   29 ar
  44   25   26 ar
  45   25   30 1
  46   26   27 ar
  47   26   48 1
  48   27   28 ar
  49   27   49 1
  50   28   29 ar
  51   28   50 1
  52   29   51 1
  53   30   52 1
  54   30   53 1
  55   30   54 1
  56   31   32 2
  57   31   55 1
  58   32   33 1
  59   33   34 1
  60   33   35 1
  61   34   56 1
  62   35   57 1
  63   35   58 1
  64   35   59 1

#	End of record

