#	Name: ASD01901232
#	Creating user name:	WinNT
#	Creation time:	15. 06. 2019 19:53

#	Modifying user name:	WinNT
#	Modification time:	15. 06. 2019 19:53

#	Program:	/corina/corina34_cracker 3.40 0067  02.08.2006

@<TRIPOS>MOLECULE
ASD01901232
  43   46    0    0    0
SMALL
NO_CHARGES


@<TRIPOS>ATOM
   1 C1            -0.0166     1.3750     0.0096 C.ar    
   2 C2             0.0021    -0.0041     0.0020 C.ar    
   3 C3             1.2078    -0.6830    -0.0127 C.ar    
   4 C4             2.4027     0.0149    -0.0199 C.ar    
   5 C5             2.3997     1.3941    -0.0129 C.ar    
   6 C6             1.1860     2.0866     0.0019 C.ar    
   7 C7             1.1748     3.5185     0.0093 C.1     
   8 C8             1.1656     4.6925     0.0153 C.1     
   9 C9             1.1543     6.1244     0.0226 C.ar    
  10 C10           -0.0666     8.1943     0.0507 C.ar    
  11 C11           -0.0605     6.8156     0.0433 C.ar    
  12 C12            2.3585     6.8349     0.0149 C.ar    
  13 C13            2.3438     8.2124     0.0225 C.ar    
  14 C14            1.1340     8.8967     0.0377 C.ar    
  15 N15            1.1239    10.2968     0.0453 N.am    
  16 N16            1.1327    12.2977     1.2767 N.am    
  17 C17            1.1410    10.9525     1.2186 C.2     
  18 C18            1.1027    10.9676    -1.1252 C.2     
  19 C19            1.1057    13.0433     0.1092 C.2     
  20 O20            1.0915    10.3621    -2.1821 O.2     
  21 Cl21          -1.5742     9.0546     0.0764 Cl      
  22 O22            1.1643    10.3148     2.2537 O.2     
  23 C23            1.1521    12.9738     2.5761 C.3     
  24 C24            1.0659    14.5453    -1.4474 C.2     
  25 N25            1.0914    14.3526    -0.1532 N.2     
  26 N26            1.0725    13.3577    -2.0839 N.pl3   
  27 C27            1.0511    13.1456    -3.5333 C.3     
  28 C28            1.0931    12.3785    -1.1108 C.2     
  29 H29           -0.9584     1.9035     0.0169 H       
  30 H30           -0.9266    -0.5554     0.0079 H       
  31 H31            1.2163    -1.7630    -0.0182 H       
  32 H32            3.3399    -0.5217    -0.0306 H       
  33 H33            3.3330     1.9375    -0.0185 H       
  34 H34           -0.9928     6.2705     0.0531 H       
  35 H35            3.2991     6.3044     0.0034 H       
  36 H36            3.2738     8.7615     0.0169 H       
  37 H37            1.1720    12.2299     3.3725 H       
  38 H38            2.0391    13.6035     2.6449 H       
  39 H39            0.2595    13.5911     2.6778 H       
  40 H40            1.0496    15.5103    -1.9320 H       
  41 H41            2.0732    13.1084    -3.9102 H       
  42 H42            0.5475    12.2048    -3.7555 H       
  43 H43            0.5167    13.9658    -4.0127 H       
@<TRIPOS>BOND
   1    1    2 ar
   2    1    6 ar
   3    1   29 1
   4    2    3 ar
   5    2   30 1
   6    3    4 ar
   7    3   31 1
   8    4    5 ar
   9    4   32 1
  10    5    6 ar
  11    5   33 1
  12    6    7 1
  13    7    8 3
  14    8    9 1
  15    9   12 ar
  16    9   11 ar
  17   10   11 ar
  18   10   14 ar
  19   10   21 1
  20   11   34 1
  21   12   13 ar
  22   12   35 1
  23   13   14 ar
  24   13   36 1
  25   14   15 1
  26   15   18 am
  27   15   17 am
  28   16   17 am
  29   16   19 1
  30   16   23 1
  31   17   22 2
  32   18   28 1
  33   18   20 2
  34   19   28 2
  35   19   25 1
  36   23   37 1
  37   23   38 1
  38   23   39 1
  39   24   25 2
  40   24   26 1
  41   24   40 1
  42   26   27 1
  43   26   28 1
  44   27   41 1
  45   27   42 1
  46   27   43 1

#	End of record

