#	Name: ASD01151094
#	Creating user name:	WinNT
#	Creation time:	15. 06. 2019 19:05

#	Modifying user name:	WinNT
#	Modification time:	15. 06. 2019 19:05

#	Program:	/corina/corina34_cracker 3.40 0067  02.08.2006

@<TRIPOS>MOLECULE
ASD01151094
  44   47    0    0    0
SMALL
NO_CHARGES


@<TRIPOS>ATOM
   1 C1            -0.0178     1.4608     0.0101 C.3     
   2 N2             0.0021    -0.0041     0.0020 N.am    
   3 C3             0.0055    -0.6633    -1.1694 C.2     
   4 O4            -0.0078    -0.0184    -2.1999 O.2     
   5 N5             0.0233    -2.0029    -1.2502 N.am    
   6 C6             0.0262    -2.6430    -2.5679 C.3     
   7 C7             1.2993    -3.4727    -2.7220 C.3     
   8 C8             1.1835    -4.3022    -4.0063 C.3     
   9 C9             0.1231    -5.3800    -3.7895 C.3     
  10 C10           -1.1504    -4.7715    -3.2633 C.ar    
  11 C11           -2.3142    -5.5229    -3.3602 C.ar    
  12 C12           -3.5122    -5.0237    -2.8920 C.ar    
  13 C13           -3.5553    -3.7656    -2.3212 C.ar    
  14 C14           -2.4005    -3.0165    -2.2260 C.ar    
  15 C15           -1.1941    -3.5163    -2.6987 C.ar    
  16 C16            0.0390    -2.7722    -0.1401 C.2     
  17 O17            0.0555    -3.9852    -0.2221 O.2     
  18 C18            0.0362    -2.1032     1.1732 C.ar    
  19 C19            0.0521    -2.8258     2.3634 C.ar    
  20 C20            0.0491    -2.1521     3.5673 C.ar    
  21 C21            0.0304    -0.7664     3.5960 C.ar    
  22 C22            0.0145    -0.0381     2.4227 C.ar    
  23 C23            0.0229    -0.6975     1.2035 C.ar    
  24 C24            0.0269    -0.0476     4.9205 C.3     
  25 F25            0.0446    -0.9842     5.9595 F       
  26 F26            1.1586     0.7700     5.0104 F       
  27 F27           -1.1257     0.7389     5.0212 F       
  28 H28            1.0048     1.8381     0.0023 H       
  29 H29           -0.5450     1.8219    -0.8730 H       
  30 H30           -0.5280     1.8123     0.9069 H       
  31 H31            0.0029    -1.8747    -3.3408 H       
  32 H32            2.1629    -2.8110    -2.7889 H       
  33 H33            1.4106    -4.1368    -1.8648 H       
  34 H34            0.8880    -3.6578    -4.8342 H       
  35 H35            2.1424    -4.7702    -4.2288 H       
  36 H36           -0.0814    -5.8787    -4.7369 H       
  37 H37            0.4953    -6.1113    -3.0720 H       
  38 H38           -2.2813    -6.5060    -3.8062 H       
  39 H39           -4.4132    -5.6139    -2.9715 H       
  40 H40           -4.4897    -3.3701    -1.9513 H       
  41 H41           -2.4351    -2.0335    -1.7802 H       
  42 H42            0.0664    -3.9055     2.3443 H       
  43 H43            0.0611    -2.7079     4.4932 H       
  44 H44           -0.0001     1.0413     2.4550 H       
@<TRIPOS>BOND
   1    1    2 1
   2    1   28 1
   3    1   29 1
   4    1   30 1
   5    2   23 1
   6    2    3 am
   7    3    4 2
   8    3    5 am
   9    5    6 1
  10    5   16 am
  11    6   15 1
  12    6    7 1
  13    6   31 1
  14    7    8 1
  15    7   32 1
  16    7   33 1
  17    8    9 1
  18    8   34 1
  19    8   35 1
  20    9   10 1
  21    9   36 1
  22    9   37 1
  23   10   15 ar
  24   10   11 ar
  25   11   12 ar
  26   11   38 1
  27   12   13 ar
  28   12   39 1
  29   13   14 ar
  30   13   40 1
  31   14   15 ar
  32   14   41 1
  33   16   17 2
  34   16   18 1
  35   18   23 ar
  36   18   19 ar
  37   19   20 ar
  38   19   42 1
  39   20   21 ar
  40   20   43 1
  41   21   22 ar
  42   21   24 1
  43   22   23 ar
  44   22   44 1
  45   24   25 1
  46   24   26 1
  47   24   27 1

#	End of record

