#	Name: ASD01910950
#	Creating user name:	WinNT
#	Creation time:	15. 06. 2019 19:56

#	Modifying user name:	WinNT
#	Modification time:	15. 06. 2019 19:56

#	Program:	/corina/corina34_cracker 3.40 0067  02.08.2006

@<TRIPOS>MOLECULE
ASD01910950
  61   65    0    0    0
SMALL
NO_CHARGES


@<TRIPOS>ATOM
   1 N1            -0.1168     1.3255    -0.4010 N.am    
   2 C2            -0.0748    -0.1332    -0.2268 C.3     
   3 C3            -0.8132    -0.4935     1.0682 C.3     
   4 N4            -2.1182     0.1824     1.0684 N.am    
   5 C5            -2.1602     1.6411     0.8941 C.3     
   6 C6            -1.4214     2.0022    -0.3953 C.3     
   7 C7            -3.2560    -0.5228     1.2250 C.2     
   8 C8            -4.5502     0.1809     1.3533 C.ar    
   9 C9            -5.6766    -0.2979     0.6806 C.ar    
  10 C10           -6.8866     0.3575     0.7987 C.ar    
  11 C11           -6.9925     1.4893     1.5814 C.ar    
  12 C12           -5.8729     1.9804     2.2604 C.ar    
  13 C13           -4.6497     1.3193     2.1500 C.ar    
  14 C14           -5.9835     3.1551     3.0719 C.1     
  15 O15           -3.2183    -1.7372     1.2609 O.2     
  16 C16           -6.0742     4.1181     3.7372 C.1     
  17 C17           -6.1848     5.2928     4.5486 C.ar    
  18 C18           -5.0729     5.7922     5.2314 C.ar    
  19 N19           -5.1755     6.8724     5.9774 N.ar    
  20 C20           -6.3162     7.5214     6.1111 C.ar    
  21 C21           -7.4634     7.0911     5.4682 C.ar    
  22 C22           -7.4090     5.9648     4.6671 C.ar    
  23 S23            1.2812     2.1920    -0.5935 S.o2    
  24 C24            1.6172     2.2627    -2.3217 C.ar    
  25 C25            1.1107     3.3015    -3.0806 C.ar    
  26 C26            1.3709     3.3622    -4.4366 C.ar    
  27 C27            2.1420     2.3796    -5.0391 C.ar    
  28 C28            2.6522     1.3331    -4.2741 C.ar    
  29 C29            2.3914     1.2825    -2.9141 C.ar    
  30 O30            0.9883     3.5217    -0.1869 O.2     
  31 O31            2.3190     1.4130    -0.0145 O.2     
  32 O32            3.4086     0.3672    -4.8592 O.3     
  33 C33            3.8981    -0.6751    -4.0129 C.3     
  34 N34            2.4072     2.4390    -6.4160 N.pl3   
  35 C35            1.9901     3.3787    -7.2915 C.2     
  36 N36            2.4617     3.0515    -8.4663 N.2     
  37 N37            3.1486     1.9688    -8.3929 N.2     
  38 N38            3.1691     1.5361    -7.1783 N.2     
  39 H39           -0.5628    -0.6169    -1.0729 H       
  40 H40            0.9617    -0.4640    -0.1611 H       
  41 H41           -0.9601    -1.5725     1.1174 H       
  42 H42           -0.2293    -0.1618     1.9267 H       
  43 H43           -3.1967     1.9719     0.8284 H       
  44 H44           -1.6722     2.1248     1.7403 H       
  45 H45           -1.2752     3.0813    -0.4432 H       
  46 H46           -2.0033     1.6708    -1.2553 H       
  47 H47           -5.6012    -1.1828     0.0660 H       
  48 H48           -7.7541    -0.0173     0.2757 H       
  49 H49           -7.9417     1.9969     1.6694 H       
  50 H50           -3.7816     1.6938     2.6720 H       
  51 H51           -4.1216     5.2879     5.1469 H       
  52 H52           -6.3554     8.4034     6.7332 H       
  53 H53           -8.3908     7.6317     5.5871 H       
  54 H54           -8.2893     5.6070     4.1538 H       
  55 H55            0.5097     4.0672    -2.6127 H       
  56 H56            0.9736     4.1747    -5.0270 H       
  57 H57            2.7859     0.4727    -2.3184 H       
  58 H58            3.0573    -1.1976    -3.5567 H       
  59 H59            4.4850    -1.3778    -4.6043 H       
  60 H60            4.5253    -0.2447    -3.2322 H       
  61 H61            1.3800     4.2403    -7.0638 H       
@<TRIPOS>BOND
   1    1    2 1
   2    1   23 am
   3    1    6 1
   4    2    3 1
   5    2   39 1
   6    2   40 1
   7    3    4 1
   8    3   41 1
   9    3   42 1
  10    4    5 1
  11    4    7 am
  12    5    6 1
  13    5   43 1
  14    5   44 1
  15    6   45 1
  16    6   46 1
  17    7    8 1
  18    7   15 2
  19    8    9 ar
  20    8   13 ar
  21    9   10 ar
  22    9   47 1
  23   10   11 ar
  24   10   48 1
  25   11   12 ar
  26   11   49 1
  27   12   13 ar
  28   12   14 1
  29   13   50 1
  30   14   16 3
  31   16   17 1
  32   17   18 ar
  33   17   22 ar
  34   18   19 ar
  35   18   51 1
  36   19   20 ar
  37   20   21 ar
  38   20   52 1
  39   21   22 ar
  40   21   53 1
  41   22   54 1
  42   23   30 2
  43   23   31 2
  44   23   24 1
  45   24   25 ar
  46   24   29 ar
  47   25   26 ar
  48   25   55 1
  49   26   27 ar
  50   26   56 1
  51   27   28 ar
  52   27   34 1
  53   28   29 ar
  54   28   32 1
  55   29   57 1
  56   32   33 1
  57   33   58 1
  58   33   59 1
  59   33   60 1
  60   34   35 1
  61   34   38 1
  62   35   36 2
  63   35   61 1
  64   36   37 1
  65   37   38 2

#	End of record

