#	Name: ASD03240957
#	Creating user name:	WinNT
#	Creation time:	15. 06. 2019 20:35

#	Modifying user name:	WinNT
#	Modification time:	15. 06. 2019 20:35

#	Program:	/corina/corina34_cracker 3.40 0067  02.08.2006

@<TRIPOS>MOLECULE
ASD03240957
  54   59    0    0    0
SMALL
NO_CHARGES


@<TRIPOS>ATOM
   1 C1             0.1060     0.5722    -2.2172 C.3     
   2 C2             1.4563     0.7868    -1.5132 C.3     
   3 C3             0.9781    -0.2251    -0.4586 C.3     
   4 C4             0.0672    -0.8125    -1.5495 C.3     
   5 O5            -0.9223     1.4551    -1.7644 O.3     
   6 C6             2.0563    -1.1719     0.0020 C.ar    
   7 C7             2.0219    -1.6821     1.2876 C.ar    
   8 C8             3.0058    -2.5498     1.7150 C.ar    
   9 C9             4.0367    -2.9124     0.8480 C.ar    
  10 C10            4.0658    -2.3946    -0.4471 C.ar    
  11 C11            3.0731    -1.5319    -0.8644 C.ar    
  12 N12            6.8551    -6.7194     0.1303 N.pl3   
  13 C13            7.8364    -7.5609     0.5814 C.2     
  14 N14            8.4106    -7.4018     1.7859 N.2     
  15 C15            8.0679    -6.4365     2.5979 C.2     
  16 C16            7.0251    -5.4952     2.1868 C.ar    
  17 N17            6.6399    -4.4965     2.9767 N.ar    
  18 C18            5.6921    -3.6666     2.5673 C.ar    
  19 C19            5.0960    -3.8427     1.3005 C.ar    
  20 N20            5.4811    -4.8397     0.5131 N.ar    
  21 C21            6.4276    -5.6706     0.9198 C.ar    
  22 C22            8.0474    -8.5015    -0.4182 C.2     
  23 C23            7.1819    -8.2082    -1.4642 C.2     
  24 N24            6.4686    -7.1555    -1.1428 N.2     
  25 C25            5.2572    -2.5515     3.4410 C.ar    
  26 C26            5.0159    -2.7770     4.7957 C.ar    
  27 C27            4.6111    -1.7347     5.6044 C.ar    
  28 C28            4.4445    -0.4682     5.0735 C.ar    
  29 C29            4.6819    -0.2385     3.7302 C.ar    
  30 C30            5.0931    -1.2716     2.9129 C.ar    
  31 C31            0.2124     0.5144    -3.7424 C.3     
  32 N32            0.2423     0.3888     0.6548 N.3     
  33 H33            2.3114     0.4410    -2.0940 H       
  34 H34            1.5892     1.7954    -1.1219 H       
  35 H35           -0.9213    -1.0951    -1.1874 H       
  36 H36            0.5425    -1.5956    -2.1402 H       
  37 H37           -1.7740     1.3250    -2.2035 H       
  38 H38            1.2234    -1.4003     1.9580 H       
  39 H39            2.9781    -2.9471     2.7189 H       
  40 H40            4.8613    -2.6716    -1.1230 H       
  41 H41            3.0920    -1.1338    -1.8681 H       
  42 H42            8.5479    -6.3349     3.5601 H       
  43 H43            8.7573    -9.3149    -0.3878 H       
  44 H44            7.1059    -8.7595    -2.3897 H       
  45 H45            5.1453    -3.7654     5.2112 H       
  46 H46            4.4236    -1.9082     6.6538 H       
  47 H47            4.1275     0.3445     5.7103 H       
  48 H48            4.5495     0.7523     3.3212 H       
  49 H49            5.2832    -1.0900     1.8654 H       
  50 H50            0.8640    -0.3106    -4.0302 H       
  51 H51           -0.7784     0.3611    -4.1701 H       
  52 H52            0.6273     1.4516    -4.1135 H       
  53 H53           -0.0522    -0.3087     1.3218 H       
  54 H54            0.7943     1.1058     1.1013 H       
@<TRIPOS>BOND
   1    1    2 1
   2    1    4 1
   3    1    5 1
   4    1   31 1
   5    2    3 1
   6    2   33 1
   7    2   34 1
   8    3    4 1
   9    3    6 1
  10    3   32 1
  11    4   35 1
  12    4   36 1
  13    5   37 1
  14    6    7 ar
  15    6   11 ar
  16    7    8 ar
  17    7   38 1
  18    8    9 ar
  19    8   39 1
  20    9   10 ar
  21    9   19 1
  22   10   11 ar
  23   10   40 1
  24   11   41 1
  25   12   13 1
  26   12   21 1
  27   12   24 1
  28   13   14 1
  29   13   22 2
  30   14   15 2
  31   15   16 1
  32   15   42 1
  33   16   17 ar
  34   16   21 ar
  35   17   18 ar
  36   18   19 ar
  37   18   25 1
  38   19   20 ar
  39   20   21 ar
  40   22   23 1
  41   22   43 1
  42   23   24 2
  43   23   44 1
  44   25   26 ar
  45   25   30 ar
  46   26   27 ar
  47   26   45 1
  48   27   28 ar
  49   27   46 1
  50   28   29 ar
  51   28   47 1
  52   29   30 ar
  53   29   48 1
  54   30   49 1
  55   31   50 1
  56   31   51 1
  57   31   52 1
  58   32   53 1
  59   32   54 1

#	End of record

