#	Name: ASD05380087
#	Creating user name:	WinNT
#	Creation time:	15. 06. 2019 20:59

#	Modifying user name:	WinNT
#	Modification time:	15. 06. 2019 20:59

#	Program:	/corina/corina34_cracker 3.40 0067  02.08.2006

@<TRIPOS>MOLECULE
ASD05380087
  50   54    0    0    0
SMALL
NO_CHARGES


@<TRIPOS>ATOM
   1 C1            -0.2699     1.7430    -0.3086 C.ar    
   2 C2            -0.0037     0.3797    -0.5674 C.ar    
   3 C3             0.6319     2.7210    -0.7224 C.ar    
   4 C4             1.7817     2.3480    -1.3840 C.ar    
   5 C5             2.0462     1.0093    -1.6404 C.ar    
   6 C6             1.1684     0.0272    -1.2390 C.ar    
   7 N7            -0.8959    -0.5551    -0.1547 N.2     
   8 C8            -1.9854    -0.2270     0.4706 C.2     
   9 N9            -2.3224     1.0588     0.7613 N.am    
  10 C10           -1.5093     2.0809     0.4062 C.2     
  11 C11           -3.5184     1.3265     1.4391 C.ar    
  12 C12           -4.6877     1.5520     0.7241 C.ar    
  13 C13           -3.5385     1.3613     2.8265 C.ar    
  14 C14           -4.7218     1.6257     3.4929 C.ar    
  15 C15           -5.8843     1.8551     2.7760 C.ar    
  16 C16           -5.8663     1.8155     1.3940 C.ar    
  17 C17           -2.9248    -1.3261     0.8956 C.3     
  18 N18           -2.9256    -2.3860    -0.1158 N.pl3   
  19 C19           -4.0235    -3.2174    -0.2454 C.ar    
  20 N20           -5.0871    -3.0694     0.5392 N.ar    
  21 O21           -1.7979     3.2359     0.6602 O.2     
  22 C22           -4.0454    -4.2342    -1.2118 C.ar    
  23 C23           -5.1861    -5.0533    -1.3041 C.ar    
  24 N24           -6.1999    -4.8293    -0.4696 N.ar    
  25 C25           -6.1376    -3.8608     0.4184 C.ar    
  26 C26           -3.1173    -4.7093    -2.2366 C.2     
  27 C27           -3.7188    -5.7367    -2.8591 C.2     
  28 N28           -4.9575    -5.9518    -2.3096 N.pl3   
  29 C29           -2.4637    -1.9009     2.2364 C.3     
  30 F30           -4.7434     1.6595     4.8433 F       
  31 C31            0.3517     4.1762    -0.4489 C.3     
  32 Br32          -1.4008    -4.0112    -2.6141 Br      
  33 H33            2.4829     3.1035    -1.7062 H       
  34 H34            2.9520     0.7348    -2.1605 H       
  35 H35            1.3849    -1.0109    -1.4440 H       
  36 H36           -4.6751     1.5217    -0.3554 H       
  37 H37           -2.6317     1.1819     3.3851 H       
  38 H38           -6.8073     2.0614     3.2974 H       
  39 H39           -6.7743     1.9951     0.8375 H       
  40 H40           -3.9320    -0.9229     1.0002 H       
  41 H41           -2.1563    -2.5048    -0.6945 H       
  42 H42           -6.9805    -3.7062     1.0758 H       
  43 H43           -3.2915    -6.3076    -3.6702 H       
  44 H44           -5.5797    -6.6400    -2.5926 H       
  45 H45           -3.1246    -2.7170     2.5284 H       
  46 H46           -1.4446    -2.2755     2.1400 H       
  47 H47           -2.4933    -1.1198     2.9961 H       
  48 H48            0.6716     4.4238     0.5633 H       
  49 H49            0.8979     4.7919    -1.1635 H       
  50 H50           -0.7171     4.3655    -0.5486 H       
@<TRIPOS>BOND
   1    1    2 ar
   2    1    3 ar
   3    1   10 1
   4    2    7 1
   5    2    6 ar
   6    3    4 ar
   7    3   31 1
   8    4    5 ar
   9    4   33 1
  10    5    6 ar
  11    5   34 1
  12    6   35 1
  13    7    8 2
  14    8    9 1
  15    8   17 1
  16    9   10 am
  17    9   11 1
  18   10   21 2
  19   11   12 ar
  20   11   13 ar
  21   12   16 ar
  22   12   36 1
  23   13   14 ar
  24   13   37 1
  25   14   15 ar
  26   14   30 1
  27   15   16 ar
  28   15   38 1
  29   16   39 1
  30   17   18 1
  31   17   29 1
  32   17   40 1
  33   18   19 1
  34   18   41 1
  35   19   20 ar
  36   19   22 ar
  37   20   25 ar
  38   22   23 ar
  39   22   26 1
  40   23   24 ar
  41   23   28 1
  42   24   25 ar
  43   25   42 1
  44   26   27 2
  45   26   32 1
  46   27   28 1
  47   27   43 1
  48   28   44 1
  49   29   45 1
  50   29   46 1
  51   29   47 1
  52   31   48 1
  53   31   49 1
  54   31   50 1

#	End of record

