#	Name: ASD05430638
#	Creating user name:	WinNT
#	Creation time:	15. 06. 2019 21:00

#	Modifying user name:	WinNT
#	Modification time:	15. 06. 2019 21:00

#	Program:	/corina/corina34_cracker 3.40 0067  02.08.2006

@<TRIPOS>MOLECULE
ASD05430638
  36   37    0    0    0
SMALL
NO_CHARGES


@<TRIPOS>ATOM
   1 C1            -0.0168     1.3904     0.0097 C.ar    
   2 C2             0.0021    -0.0041     0.0020 C.ar    
   3 C3            -1.2042    -0.6941     0.0103 C.ar    
   4 C4            -2.3829     0.0369     0.0259 C.ar    
   5 C5            -2.3237     1.4166     0.0327 C.ar    
   6 N6            -1.1641     2.0466     0.0297 N.ar    
   7 C7            -3.6021     2.2145     0.0492 C.3     
   8 C8            -4.1150     2.3855    -1.3821 C.3     
   9 C9            -4.6524     1.4777     0.8827 C.3     
  10 N10            1.2204    -0.6997    -0.0143 N.pl3   
  11 C11            1.3871    -2.0362    -0.0232 C.2     
  12 N12            2.5089    -0.1411    -0.0307 N.2     
  13 C13            3.3536    -1.1393    -0.0431 C.2     
  14 N14            2.6720    -2.2842    -0.0385 N.2     
  15 C15            4.8553    -1.0148    -0.0629 C.3     
  16 O16            1.1523     2.0793     0.0022 O.3     
  17 C17            1.0650     3.5056     0.0107 C.3     
  18 C18            2.4736     4.1028     0.0005 C.3     
  19 H19           -1.2234    -1.7739     0.0043 H       
  20 H20           -3.3376    -0.4680     0.0323 H       
  21 H21           -3.4130     3.1946     0.4870 H       
  22 H22           -5.0396     2.9626    -1.3702 H       
  23 H23           -3.3667     2.9105    -1.9759 H       
  24 H24           -4.3041     1.4054    -1.8198 H       
  25 H25           -4.2870     1.3558     1.9024 H       
  26 H26           -5.5771     2.0548     0.8946 H       
  27 H27           -4.8415     0.4975     0.4450 H       
  28 H28            0.5985    -2.7741    -0.0184 H       
  29 H29            5.2310    -0.9860     0.9599 H       
  30 H30            5.2840    -1.8711    -0.5835 H       
  31 H31            5.1370    -0.0972    -0.5794 H       
  32 H32            0.5215     3.8416    -0.8723 H       
  33 H33            0.5385     3.8320     0.9075 H       
  34 H34            3.0002     3.7764    -0.8963 H       
  35 H35            2.4070     5.1908     0.0070 H       
  36 H36            3.0172     3.7668     0.8835 H       
@<TRIPOS>BOND
   1    1    2 ar
   2    1   16 1
   3    1    6 ar
   4    2    3 ar
   5    2   10 1
   6    3    4 ar
   7    3   19 1
   8    4    5 ar
   9    4   20 1
  10    5    6 ar
  11    5    7 1
  12    7    8 1
  13    7    9 1
  14    7   21 1
  15    8   22 1
  16    8   23 1
  17    8   24 1
  18    9   25 1
  19    9   26 1
  20    9   27 1
  21   10   11 1
  22   10   12 1
  23   11   14 2
  24   11   28 1
  25   12   13 2
  26   13   14 1
  27   13   15 1
  28   15   29 1
  29   15   30 1
  30   15   31 1
  31   16   17 1
  32   17   18 1
  33   17   32 1
  34   17   33 1
  35   18   34 1
  36   18   35 1
  37   18   36 1

#	End of record

