#	Name: ASD02190018
#	Creating user name:	WinNT
#	Creation time:	15. 06. 2019 20:18

#	Modifying user name:	WinNT
#	Modification time:	15. 06. 2019 20:18

#	Program:	/corina/corina34_cracker 3.40 0067  02.08.2006

@<TRIPOS>MOLECULE
ASD02190018
  44   46    0    0    0
SMALL
NO_CHARGES


@<TRIPOS>ATOM
   1 C1            -0.0169     1.3329    -0.1029 C.ar    
   2 N2             0.0047     0.0100    -0.1386 N.ar    
   3 C3            -1.1234    -0.6918    -0.1142 C.ar    
   4 N4            -2.3104    -0.0984    -0.0539 N.ar    
   5 C5            -2.4026     1.2261    -0.0156 C.ar    
   6 C6            -1.2319     1.9888    -0.0342 C.ar    
   7 N7            -3.6427     1.8431     0.0473 N.pl3   
   8 C8            -4.8092     1.0792    -0.0511 C.ar    
   9 C9            -5.9522     1.4619     0.6392 C.ar    
  10 C10           -7.1030     0.7049     0.5398 C.ar    
  11 C11           -7.1182    -0.4331    -0.2458 C.ar    
  12 C12           -5.9820    -0.8169    -0.9344 C.ar    
  13 C13           -4.8296    -0.0612    -0.8439 C.ar    
  14 C14           -8.3756    -1.2569    -0.3515 C.3     
  15 C15           -1.0561    -2.1646    -0.1554 C.2     
  16 C16            0.0794    -2.8914    -0.2177 C.2     
  17 C17           -0.1101    -4.2551    -0.2464 C.2     
  18 C18           -1.3887    -4.6509    -0.2082 C.2     
  19 S19           -2.4430    -3.2459    -0.1236 S.3     
  20 Br20          -1.9724    -6.4494    -0.2339 Br      
  21 C21            1.2703     2.1161    -0.1307 C.3     
  22 C22           -1.2657     3.9650     1.4633 C.3     
  23 C23           -1.2930     3.4940     0.0079 C.3     
  24 C24           -9.2094    -0.7557    -1.5024 C.2     
  25 O25           -8.8222     0.1751    -2.1686 O.2     
  26 O26          -10.3821    -1.3432    -1.7876 O.3     
  27 H27           -3.7008     2.8048     0.1596 H       
  28 H28           -5.9409     2.3503     1.2532 H       
  29 H29           -7.9920     1.0017     1.0766 H       
  30 H30           -5.9973    -1.7061    -1.5471 H       
  31 H31           -3.9427    -0.3614    -1.3822 H       
  32 H32           -8.1127    -2.3011    -0.5210 H       
  33 H33           -8.9450    -1.1712     0.5740 H       
  34 H34            1.0598    -2.4389    -0.2434 H       
  35 H35            0.7119    -4.9538    -0.2963 H       
  36 H36            1.5421     2.3320    -1.1640 H       
  37 H37            1.1383     3.0514     0.4132 H       
  38 H38            2.0616     1.5315     0.3385 H       
  39 H39           -2.1227     3.5516     1.9951 H       
  40 H40           -0.3452     3.6253     1.9379 H       
  41 H41           -1.3099     5.0537     1.4937 H       
  42 H42           -0.4360     3.9074    -0.5239 H       
  43 H43           -2.2136     3.8337    -0.4668 H       
  44 H44          -10.8815    -0.9867    -2.5350 H       
@<TRIPOS>BOND
   1    1    2 ar
   2    1   21 1
   3    1    6 ar
   4    2    3 ar
   5    3    4 ar
   6    3   15 1
   7    4    5 ar
   8    5    6 ar
   9    5    7 1
  10    6   23 1
  11    7    8 1
  12    7   27 1
  13    8    9 ar
  14    8   13 ar
  15    9   10 ar
  16    9   28 1
  17   10   11 ar
  18   10   29 1
  19   11   12 ar
  20   11   14 1
  21   12   13 ar
  22   12   30 1
  23   13   31 1
  24   14   24 1
  25   14   32 1
  26   14   33 1
  27   15   16 2
  28   15   19 1
  29   16   17 1
  30   16   34 1
  31   17   18 2
  32   17   35 1
  33   18   19 1
  34   18   20 1
  35   21   36 1
  36   21   37 1
  37   21   38 1
  38   22   23 1
  39   22   39 1
  40   22   40 1
  41   22   41 1
  42   23   42 1
  43   23   43 1
  44   24   25 2
  45   24   26 1
  46   26   44 1

#	End of record

