#	Name: ASD09610011
#	Creating user name:	WinNT
#	Creation time:	15. 06. 2019 21:22

#	Modifying user name:	WinNT
#	Modification time:	15. 06. 2019 21:22

#	Program:	/corina/corina34_cracker 3.40 0067  02.08.2006

@<TRIPOS>MOLECULE
ASD09610011
  43   44    0    0    0
SMALL
NO_CHARGES


@<TRIPOS>ATOM
   1 C1             0.3350     1.2152     0.3011 C.2     
   2 C2             0.0611    -0.2281    -0.0349 C.3     
   3 O3             1.4810     1.6313     0.3136 O.co2   
   4 O4            -0.5897     1.9680     0.5557 O.co2   
   5 O5            -1.3323    -0.4993     0.1295 O.3     
   6 N6            -3.9636    -1.2801     0.5884 N.ar    
   7 C7            -5.2070    -1.6459     0.7850 C.ar    
   8 C8            -5.6811    -1.9795     2.0520 C.ar    
   9 C9            -4.8421    -1.9296     3.1286 C.ar    
  10 C10           -3.5079    -1.5363     2.9130 C.ar    
  11 C11           -2.5871    -1.4620     3.9717 C.ar    
  12 C12           -1.3030    -1.0775     3.7241 C.ar    
  13 C13           -0.8884    -0.7563     2.4347 C.ar    
  14 C14           -1.7554    -0.8170     1.3810 C.ar    
  15 C15           -3.0919    -1.2106     1.5986 C.ar    
  16 Cl16          -3.0826    -1.8575     5.5878 Cl      
  17 C17            0.4658    -0.4997    -1.4852 C.3     
  18 C18            0.3050    -1.9906    -1.7888 C.3     
  19 C19            0.7098    -2.2623    -3.2391 C.3     
  20 C20            0.5490    -3.7532    -3.5428 C.3     
  21 O21            0.9270    -4.0069    -4.8973 O.3     
  22 C22            0.8132    -5.3775    -5.2855 C.3     
  23 C23            1.2350    -5.5287    -6.7244 C.2     
  24 C24            2.0271    -6.5114    -7.0749 C.2     
  25 H25            0.6374    -0.8716     0.6298 H       
  26 H26           -5.8817    -1.6895    -0.0572 H       
  27 H27           -6.7111    -2.2769     2.1827 H       
  28 H28           -5.1927    -2.1844     4.1178 H       
  29 H29           -0.5973    -1.0213     4.5398 H       
  30 H30            0.1344    -0.4541     2.2649 H       
  31 H31           -0.1714     0.0782    -2.1546 H       
  32 H32            1.5059    -0.2090    -1.6327 H       
  33 H33            0.9422    -2.5685    -1.1194 H       
  34 H34           -0.7351    -2.2814    -1.6414 H       
  35 H35            0.0726    -1.6844    -3.9085 H       
  36 H36            1.7499    -1.9716    -3.3866 H       
  37 H37            1.1862    -4.3311    -2.8734 H       
  38 H38           -0.4911    -4.0439    -3.3953 H       
  39 H39            1.4559    -5.9891    -4.6523 H       
  40 H40           -0.2215    -5.7019    -5.1742 H       
  41 H41            0.8842    -4.8268    -7.4665 H       
  42 H42            2.3294    -6.6198    -8.1061 H       
  43 H43            2.3778    -7.2133    -6.3327 H       
@<TRIPOS>BOND
   1    1    2 1
   2    1    3 ar
   3    1    4 ar
   4    2    5 1
   5    2   17 1
   6    2   25 1
   7    5   14 1
   8    6    7 ar
   9    6   15 ar
  10    7    8 ar
  11    7   26 1
  12    8    9 ar
  13    8   27 1
  14    9   10 ar
  15    9   28 1
  16   10   11 ar
  17   10   15 ar
  18   11   12 ar
  19   11   16 1
  20   12   13 ar
  21   12   29 1
  22   13   14 ar
  23   13   30 1
  24   14   15 ar
  25   17   18 1
  26   17   31 1
  27   17   32 1
  28   18   19 1
  29   18   33 1
  30   18   34 1
  31   19   20 1
  32   19   35 1
  33   19   36 1
  34   20   21 1
  35   20   37 1
  36   20   38 1
  37   21   22 1
  38   22   23 1
  39   22   39 1
  40   22   40 1
  41   23   24 2
  42   23   41 1
  43   24   42 1
  44   24   43 1

#	End of record

