#	Name: ASD01200285
#	Creating user name:	WinNT
#	Creation time:	15. 06. 2019 19:08

#	Modifying user name:	WinNT
#	Modification time:	15. 06. 2019 19:08

#	Program:	/corina/corina34_cracker 3.40 0067  02.08.2006

@<TRIPOS>MOLECULE
ASD01200285
  55   57    0    0    0
SMALL
NO_CHARGES


@<TRIPOS>ATOM
   1 C1             1.2037     0.3605    -0.8865 C.2     
   2 C2             1.4622    -0.9472    -0.9493 C.2     
   3 S3             3.2068    -1.1651    -0.8374 S.3     
   4 C4             3.4207     0.5269    -0.7168 C.2     
   5 N5             2.2719     1.1257    -0.7621 N.2     
   6 N6             4.6478     1.1671    -0.5883 N.am    
   7 C7             4.7008     2.5110    -0.5009 C.2     
   8 C8             6.0311     3.2051    -0.3616 C.3     
   9 C9             5.8116     4.7173    -0.2834 C.3     
  10 O10            3.6778     3.1617    -0.5343 O.2     
  11 C11            7.1420     5.4114    -0.1441 C.2     
  12 N12            7.2004     6.7577    -0.1203 N.am    
  13 O13            8.1601     4.7586    -0.0535 O.2     
  14 C14            8.4787     7.4313     0.1216 C.3     
  15 C15            5.9856     7.5476    -0.3362 C.3     
  16 C16            5.3911     7.9289     0.9950 C.ar    
  17 C17            9.1742     7.6758    -1.1928 C.2     
  18 O18            8.6534     7.3223    -2.2294 O.2     
  19 N19           10.3750     8.2874    -1.2162 N.am    
  20 C20           11.0511     8.5251    -2.4939 C.3     
  21 C21           12.0160     9.7169    -2.3660 C.3     
  22 C22           13.4279     9.1757    -2.6716 C.3     
  23 C23           13.1727     7.9122    -3.5304 C.3     
  24 C24           11.9104     7.3012    -2.8729 C.3     
  25 C25            5.8441     9.0545     1.6573 C.ar    
  26 C26            5.2988     9.4043     2.8785 C.ar    
  27 C27            4.3002     8.6286     3.4371 C.ar    
  28 C28            3.8466     7.5035     2.7744 C.ar    
  29 C29            4.3888     7.1562     1.5512 C.ar    
  30 H30            0.2019     0.7606    -0.9379 H       
  31 H31            0.7298    -1.7344    -1.0506 H       
  32 H32            5.4659     0.6467    -0.5615 H       
  33 H33            6.5264     2.8624     0.5469 H       
  34 H34            6.6544     2.9726    -1.2250 H       
  35 H35            5.3164     5.0600    -1.1919 H       
  36 H36            5.1883     4.9498     0.5800 H       
  37 H37            8.2989     8.3837     0.6202 H       
  38 H38            9.1065     6.8031     0.7535 H       
  39 H39            6.2335     8.4498    -0.8953 H       
  40 H40            5.2639     6.9571    -0.9007 H       
  41 H41           10.7915     8.5702    -0.3871 H       
  42 H42           10.3159     8.7220    -3.2742 H       
  43 H43           11.7495    10.4919    -3.0847 H       
  44 H44           11.9812    10.1185    -1.3532 H       
  45 H45           14.0042     9.9097    -3.2348 H       
  46 H46           13.9433     8.9116    -1.7482 H       
  47 H47           12.9751     8.1835    -4.5675 H       
  48 H48           14.0148     7.2233    -3.4639 H       
  49 H49           12.1808     6.7344    -1.9820 H       
  50 H50           11.3792     6.6673    -3.5829 H       
  51 H51            6.6243     9.6605     1.2209 H       
  52 H52            5.6532    10.2833     3.3962 H       
  53 H53            3.8746     8.9015     4.3915 H       
  54 H54            3.0666     6.8973     3.2110 H       
  55 H55            4.0344     6.2771     1.0334 H       
@<TRIPOS>BOND
   1    1    2 2
   2    1    5 1
   3    1   30 1
   4    2    3 1
   5    2   31 1
   6    3    4 1
   7    4    5 2
   8    4    6 1
   9    6    7 am
  10    6   32 1
  11    7    8 1
  12    7   10 2
  13    8    9 1
  14    8   33 1
  15    8   34 1
  16    9   11 1
  17    9   35 1
  18    9   36 1
  19   11   12 am
  20   11   13 2
  21   12   14 1
  22   12   15 1
  23   14   17 1
  24   14   37 1
  25   14   38 1
  26   15   16 1
  27   15   39 1
  28   15   40 1
  29   16   25 ar
  30   16   29 ar
  31   17   18 2
  32   17   19 am
  33   19   20 1
  34   19   41 1
  35   20   21 1
  36   20   24 1
  37   20   42 1
  38   21   22 1
  39   21   43 1
  40   21   44 1
  41   22   23 1
  42   22   45 1
  43   22   46 1
  44   23   24 1
  45   23   47 1
  46   23   48 1
  47   24   49 1
  48   24   50 1
  49   25   26 ar
  50   25   51 1
  51   26   27 ar
  52   26   52 1
  53   27   28 ar
  54   27   53 1
  55   28   29 ar
  56   28   54 1
  57   29   55 1

#	End of record

