#	Name: ASD01813034
#	Creating user name:	WinNT
#	Creation time:	15. 06. 2019 19:29

#	Modifying user name:	WinNT
#	Modification time:	15. 06. 2019 19:29

#	Program:	/corina/corina34_cracker 3.40 0067  02.08.2006

@<TRIPOS>MOLECULE
ASD01813034
  50   53    0    0    0
SMALL
NO_CHARGES


@<TRIPOS>ATOM
   1 C1            -1.9066     1.4014     0.0373 C.2     
   2 C2            -2.0105     0.0627     0.0826 C.2     
   3 N3            -0.9003    -0.7284    -0.0086 N.pl3   
   4 C4             0.3412    -0.2442    -0.1331 C.2     
   5 C5             0.5525     1.1196    -0.1787 C.2     
   6 C6            -0.6215     1.9978    -0.0941 C.2     
   7 O7            -0.4970     3.2118    -0.1282 O.2     
   8 C8            -1.0779    -2.1820     0.0326 C.3     
   9 C9            -0.8981    -2.6702     1.4469 C.ar    
  10 C10           -3.0929     2.3253     0.1128 C.3     
  11 C11           -4.3118     1.5969     0.6748 C.3     
  12 C12           -4.4910     0.2908    -0.1091 C.3     
  13 C13           -3.3354    -0.6415     0.2446 C.3     
  14 C14           -2.0040    -2.8622     2.2554 C.ar    
  15 C15           -1.8452    -3.3091     3.5515 C.ar    
  16 C16           -0.5678    -3.5675     4.0451 C.ar    
  17 C17            0.5427    -3.3727     3.2259 C.ar    
  18 C18            0.3718    -2.9301     1.9299 C.ar    
  19 C19           -0.3908    -4.0476     5.4373 C.ar    
  20 C20           -1.0106    -3.3809     6.4912 C.ar    
  21 C21           -0.8432    -3.8318     7.7852 C.ar    
  22 C22           -0.0614    -4.9445     8.0396 C.ar    
  23 C23            0.5587    -5.6134     7.0010 C.ar    
  24 C24            0.3946    -5.1751     5.6970 C.ar    
  25 O25           -2.7744     3.4316     0.9593 O.3     
  26 O26            1.0031    -5.8318     4.6754 O.3     
  27 C27            1.9087     1.6745    -0.3123 C.2     
  28 O28            2.8660     0.9291    -0.3845 O.2     
  29 O29            2.0895     3.0095    -0.3546 O.3     
  30 H30            1.1797    -0.9218    -0.1977 H       
  31 H31           -2.0795    -2.4356    -0.3147 H       
  32 H32           -0.3386    -2.6568    -0.6124 H       
  33 H33           -3.3246     2.6941    -0.8864 H       
  34 H34           -4.1530     1.3739     1.7299 H       
  35 H35           -5.1985     2.2201     0.5592 H       
  36 H36           -5.4370    -0.1758     0.1654 H       
  37 H37           -4.4804     0.4998    -1.1788 H       
  38 H38           -3.3621    -1.5111    -0.4120 H       
  39 H39           -3.4429    -0.9700     1.2784 H       
  40 H40           -2.9934    -2.6616     1.8718 H       
  41 H41           -2.7093    -3.4580     4.1821 H       
  42 H42            1.5350    -3.5711     3.6034 H       
  43 H43            1.2316    -2.7788     1.2942 H       
  44 H44           -1.6214    -2.5117     6.2965 H       
  45 H45           -1.3240    -3.3140     8.6019 H       
  46 H46            0.0653    -5.2918     9.0543 H       
  47 H47            1.1685    -6.4809     7.2058 H       
  48 H48           -3.4925     4.0718     1.0568 H       
  49 H49            0.4716    -6.5436     4.2934 H       
  50 H50            2.9987     3.3268    -0.4430 H       
@<TRIPOS>BOND
   1    1    2 2
   2    1   10 1
   3    1    6 1
   4    2    3 1
   5    2   13 1
   6    3    4 1
   7    3    8 1
   8    4    5 2
   9    4   30 1
  10    5    6 1
  11    5   27 1
  12    6    7 2
  13    8    9 1
  14    8   31 1
  15    8   32 1
  16    9   14 ar
  17    9   18 ar
  18   10   11 1
  19   10   25 1
  20   10   33 1
  21   11   12 1
  22   11   34 1
  23   11   35 1
  24   12   13 1
  25   12   36 1
  26   12   37 1
  27   13   38 1
  28   13   39 1
  29   14   15 ar
  30   14   40 1
  31   15   16 ar
  32   15   41 1
  33   16   17 ar
  34   16   19 1
  35   17   18 ar
  36   17   42 1
  37   18   43 1
  38   19   20 ar
  39   19   24 ar
  40   20   21 ar
  41   20   44 1
  42   21   22 ar
  43   21   45 1
  44   22   23 ar
  45   22   46 1
  46   23   24 ar
  47   23   47 1
  48   24   26 1
  49   25   48 1
  50   26   49 1
  51   27   28 2
  52   27   29 1
  53   29   50 1

#	End of record

