#	Name: ASD01411031
#	Creating user name:	WinNT
#	Creation time:	15. 06. 2019 19:19

#	Modifying user name:	WinNT
#	Modification time:	15. 06. 2019 19:19

#	Program:	/corina/corina34_cracker 3.40 0067  02.08.2006

@<TRIPOS>MOLECULE
ASD01411031
  27   28    0    0    0
SMALL
NO_CHARGES


@<TRIPOS>ATOM
   1 C1            -0.0133     1.7489     0.2914 C.2     
   2 S2            -0.0036     0.0059    -0.0292 S.3     
   3 C3            -1.7605    -0.1792     0.1410 C.2     
   4 C4            -2.2344     1.1771     0.4446 C.2     
   5 N5            -1.2865     2.0974     0.5091 N.am    
   6 O6            -3.4097     1.4342     0.6278 O.2     
   7 S7             1.3476     2.7871     0.3235 S.2     
   8 C8            -2.4963    -1.3126     0.0184 C.2     
   9 C9            -1.8257    -2.6138    -0.1058 C.ar    
  10 C10           -1.6298     3.4905     0.8050 C.3     
  11 C11           -0.4910    -2.7579     0.2896 C.ar    
  12 C12            0.1312    -3.9819     0.1705 C.ar    
  13 C13           -0.5607    -5.0689    -0.3392 C.ar    
  14 C14           -1.8819    -4.9354    -0.7335 C.ar    
  15 C15           -2.5208    -3.7184    -0.6153 C.ar    
  16 Cl16          -4.1766    -3.5526    -1.1100 Cl      
  17 Cl17           0.2327    -6.6061    -0.4849 Cl      
  18 C18           -1.5927     3.7114     2.2952 C.2     
  19 O19           -1.3087     2.7988     3.0344 O.2     
  20 O20           -1.8752     4.9220     2.8015 O.3     
  21 H21           -3.5749    -1.2581     0.0122 H       
  22 H22           -0.9111     4.1523     0.3216 H       
  23 H23           -2.6307     3.7055     0.4306 H       
  24 H24            0.0502    -1.9120     0.6868 H       
  25 H25            1.1613    -4.0941     0.4751 H       
  26 H26           -2.4144    -5.7870    -1.1305 H       
  27 H27           -1.8384     5.0152     3.7633 H       
@<TRIPOS>BOND
   1    1    2 1
   2    1    7 2
   3    1    5 am
   4    2    3 1
   5    3    4 1
   6    3    8 2
   7    4    5 am
   8    4    6 2
   9    5   10 1
  10    8    9 1
  11    8   21 1
  12    9   11 ar
  13    9   15 ar
  14   10   18 1
  15   10   22 1
  16   10   23 1
  17   11   12 ar
  18   11   24 1
  19   12   13 ar
  20   12   25 1
  21   13   14 ar
  22   13   17 1
  23   14   15 ar
  24   14   26 1
  25   15   16 1
  26   18   19 2
  27   18   20 1
  28   20   27 1

#	End of record

