#	Name: ASD02588004
#	Creating user name:	WinNT
#	Creation time:	15. 06. 2019 20:25

#	Modifying user name:	WinNT
#	Modification time:	15. 06. 2019 20:25

#	Program:	/corina/corina34_cracker 3.40 0067  02.08.2006

@<TRIPOS>MOLECULE
ASD02588004
  49   51    0    0    0
SMALL
NO_CHARGES


@<TRIPOS>ATOM
   1 N1            -0.0165     1.3641     0.0095 N.pl3   
   2 C2             0.0021    -0.0041     0.0020 C.2     
   3 C3             1.2701    -0.4444    -0.0124 C.2     
   4 C4             2.1342     0.7385    -0.0143 C.ar    
   5 C5             3.5172     0.9301    -0.0269 C.ar    
   6 C6             4.0264     2.1979    -0.0253 C.ar    
   7 C7             3.1795     3.2979    -0.0109 C.ar    
   8 C8             1.8122     3.1318     0.0016 C.ar    
   9 C9             1.2718     1.8497    -0.0002 C.ar    
  10 N10            5.4926     2.4003    -0.0387 N.pl3   
  11 O11            6.2400     1.4386    -0.0510 O.2     
  12 O12            5.9517     3.5284    -0.0373 O.2     
  13 C13           -1.2269     2.1893     0.0200 C.3     
  14 C14           -3.1185     2.8421     1.3323 C.3     
  15 O15           -3.7885     2.6038     2.5718 O.3     
  16 C16           -3.5289     1.7942     0.2756 C.3     
  17 O17           -2.3511     1.4314    -0.4545 O.3     
  18 C18           -4.5650     2.3953    -0.6763 C.3     
  19 O19           -5.0254     1.3866    -1.5778 O.3     
  20 C20           -1.5924     2.5895     1.4716 C.3     
  21 P21           -6.1240     1.6672    -2.7208 P.3     
  22 O22           -5.6750     2.7924    -3.5710 O.2     
  23 O23           -6.3047     0.3487    -3.6268 O.3     
  24 P24           -6.8891     0.0770    -5.1022 P.3     
  25 O25           -6.3611     1.0955    -6.0373 O.2     
  26 O26           -6.4406    -1.3884    -5.5956 O.3     
  27 P27           -6.3266    -2.0970    -7.0368 P.3     
  28 O28           -5.6737    -1.1727    -7.9907 O.2     
  29 O29           -5.4498    -3.4409    -6.9062 O.3     
  30 O30           -7.7997    -2.4671    -7.5709 O.3     
  31 O31           -8.4964     0.1628    -5.0669 O.3     
  32 O32           -7.5304     2.0425    -2.0328 O.3     
  33 H33           -0.8737    -0.6360     0.0070 H       
  34 H34            1.5921    -1.4753    -0.0207 H       
  35 H35            4.1822     0.0791    -0.0375 H       
  36 H36            3.5970     4.2940    -0.0091 H       
  37 H37            1.1617     3.9939     0.0132 H       
  38 H38           -1.0845     3.0791    -0.5933 H       
  39 H39           -3.3165     3.8523     0.9742 H       
  40 H40           -3.5639     3.2360     3.2682 H       
  41 H41           -3.9439     0.9150     0.7684 H       
  42 H42           -5.4070     2.7800    -0.1008 H       
  43 H43           -4.1100     3.2081    -1.2423 H       
  44 H44           -1.3909     1.7743     2.1664 H       
  45 H45           -1.0698     3.4976     1.7721 H       
  46 H46           -5.3393    -3.9209    -7.7384 H       
  47 H47           -8.2871    -3.0708    -6.9939 H       
  48 H48           -8.9116    -0.4776    -4.4731 H       
  49 H49           -7.8855     1.3490    -1.4599 H       
@<TRIPOS>BOND
   1    1    2 1
   2    1    9 1
   3    1   13 1
   4    2    3 2
   5    2   33 1
   6    3    4 1
   7    3   34 1
   8    4    5 ar
   9    4    9 ar
  10    5    6 ar
  11    5   35 1
  12    6    7 ar
  13    6   10 1
  14    7    8 ar
  15    7   36 1
  16    8    9 ar
  17    8   37 1
  18   10   11 2
  19   10   12 2
  20   13   20 1
  21   13   17 1
  22   13   38 1
  23   14   15 1
  24   14   16 1
  25   14   20 1
  26   14   39 1
  27   15   40 1
  28   16   17 1
  29   16   18 1
  30   16   41 1
  31   18   19 1
  32   18   42 1
  33   18   43 1
  34   19   21 1
  35   20   44 1
  36   20   45 1
  37   21   22 2
  38   21   23 1
  39   21   32 1
  40   23   24 1
  41   24   25 2
  42   24   26 1
  43   24   31 1
  44   26   27 1
  45   27   28 2
  46   27   29 1
  47   27   30 1
  48   29   46 1
  49   30   47 1
  50   31   48 1
  51   32   49 1

#	End of record

