#	Name: ASD02401001
#	Creating user name:	WinNT
#	Creation time:	15. 06. 2019 20:20

#	Modifying user name:	WinNT
#	Modification time:	15. 06. 2019 20:20

#	Program:	/corina/corina34_cracker 3.40 0067  02.08.2006

@<TRIPOS>MOLECULE
ASD02401001
  31   32    0    0    0
SMALL
NO_CHARGES


@<TRIPOS>ATOM
   1 C1            -0.0168     1.3891     0.0097 C.ar    
   2 C2             0.0021    -0.0041     0.0020 C.ar    
   3 C3            -1.1896    -0.7094     0.0101 C.ar    
   4 C4            -2.3949    -0.0313     0.0257 C.ar    
   5 C5            -2.4146     1.3509     0.0333 C.ar    
   6 C6            -1.2293     2.0624     0.0307 C.ar    
   7 C7            -3.7313     2.0838     0.0504 C.3     
   8 C8            -4.1560     2.3205     1.4768 C.ar    
   9 C9            -3.7676     3.4756     2.1292 C.ar    
  10 C10           -4.1547     3.6985     3.4381 C.ar    
  11 C11           -4.9336     2.7635     4.0990 C.ar    
  12 C12           -5.3255     1.5988     3.4422 C.ar    
  13 C13           -4.9379     1.3845     2.1277 C.ar    
  14 N14            1.1845     2.1073     0.0021 N.pl3   
  15 N15           -6.1127     0.6503     4.1052 N.pl3   
  16 O16           -5.3146     2.9812     5.3864 O.3     
  17 O17            1.1881    -0.6697    -0.0138 O.3     
  18 H18           -1.1778    -1.7893     0.0038 H       
  19 H19           -3.3233    -0.5831     0.0316 H       
  20 H20           -1.2475     3.1423     0.0367 H       
  21 H21           -3.6210     3.0409    -0.4595 H       
  22 H22           -4.4867     1.4856    -0.4592 H       
  23 H23           -3.1599     4.2059     1.6155 H       
  24 H24           -3.8493     4.6019     3.9450 H       
  25 H25           -5.2403     0.4831     1.6155 H       
  26 H26            2.0318     1.6351    -0.0086 H       
  27 H27            1.1699     3.0771     0.0074 H       
  28 H28           -6.3861     0.8032     5.0232 H       
  29 H29           -6.3848    -0.1600     3.6467 H       
  30 H30           -6.1553     3.4511     5.4736 H       
  31 H31            1.5402    -0.8669     0.8650 H       
@<TRIPOS>BOND
   1    1    2 ar
   2    1   14 1
   3    1    6 ar
   4    2    3 ar
   5    2   17 1
   6    3    4 ar
   7    3   18 1
   8    4    5 ar
   9    4   19 1
  10    5    6 ar
  11    5    7 1
  12    6   20 1
  13    7    8 1
  14    7   21 1
  15    7   22 1
  16    8    9 ar
  17    8   13 ar
  18    9   10 ar
  19    9   23 1
  20   10   11 ar
  21   10   24 1
  22   11   12 ar
  23   11   16 1
  24   12   13 ar
  25   12   15 1
  26   13   25 1
  27   14   26 1
  28   14   27 1
  29   15   28 1
  30   15   29 1
  31   16   30 1
  32   17   31 1

#	End of record

