#	Name: ASD01883499
#	Creating user name:	WinNT
#	Creation time:	15. 06. 2019 19:46

#	Modifying user name:	WinNT
#	Modification time:	15. 06. 2019 19:46

#	Program:	/corina/corina34_cracker 3.40 0067  02.08.2006

@<TRIPOS>MOLECULE
ASD01883499
  41   42    0    0    0
SMALL
NO_CHARGES


@<TRIPOS>ATOM
   1 N1            -0.0162     1.3417     0.0094 N.am    
   2 C2             0.0021    -0.0041     0.0020 C.2     
   3 C3            -1.2161    -0.7274     0.0102 C.2     
   4 C4            -2.4260    -0.0112     0.0261 C.2     
   5 C5            -2.3785     1.3967     0.0332 C.2     
   6 C6            -1.1850     2.0324     0.0299 C.2     
   7 O7             1.0657    -0.6000    -0.0122 O.2     
   8 C8            -1.2152    -2.1594     0.0021 C.1     
   9 N9            -1.2144    -3.2953    -0.0044 N.1     
  10 C10            1.2512     2.0764     0.0013 C.3     
  11 C11            1.6787     2.3399    -1.4440 C.3     
  12 C12            3.0023     3.1072    -1.4525 C.3     
  13 C13            4.1049     2.2287    -0.8581 C.3     
  14 C14            3.3668     3.4795    -2.8911 C.3     
  15 C15           -3.7219    -0.7215     0.0347 C.ar    
  16 C16           -4.5805    -0.6220     1.1385 C.ar    
  17 C17           -5.7803    -1.3034     1.0994 C.ar    
  18 C18           -6.0962    -2.0603    -0.0241 C.ar    
  19 N19           -5.2639    -2.1345    -1.0512 N.ar    
  20 C20           -4.1120    -1.4966    -1.0582 C.ar    
  21 O21           -7.2728    -2.7319    -0.0679 O.3     
  22 C22           -7.5423    -3.4923    -1.2475 C.3     
  23 H23           -3.2949     1.9681     0.0453 H       
  24 H24           -1.1611     3.1121     0.0354 H       
  25 H25            1.1242     3.0258     0.5214 H       
  26 H26            2.0168     1.4859     0.5046 H       
  27 H27            1.8057     1.3905    -1.9642 H       
  28 H28            0.9132     2.9304    -1.9474 H       
  29 H29            2.9002     4.0146    -0.8572 H       
  30 H30            5.0479     2.7754    -0.8642 H       
  31 H31            3.8453     1.9635     0.1668 H       
  32 H32            4.2071     1.3214    -1.4534 H       
  33 H33            2.5813     4.1054    -3.3146 H       
  34 H34            4.3098     4.0261    -2.8971 H       
  35 H35            3.4690     2.5722    -3.4864 H       
  36 H36           -4.3097    -0.0272     1.9983 H       
  37 H37           -6.4661    -1.2498     1.9320 H       
  38 H38           -3.4591    -1.5808    -1.9144 H       
  39 H39           -7.5509    -2.8296    -2.1128 H       
  40 H40           -6.7682    -4.2487    -1.3769 H       
  41 H41           -8.5132    -3.9784    -1.1524 H       
@<TRIPOS>BOND
   1    1    2 am
   2    1   10 1
   3    1    6 1
   4    2    3 1
   5    2    7 2
   6    3    4 2
   7    3    8 1
   8    4    5 1
   9    4   15 1
  10    5    6 2
  11    5   23 1
  12    6   24 1
  13    8    9 3
  14   10   11 1
  15   10   25 1
  16   10   26 1
  17   11   12 1
  18   11   27 1
  19   11   28 1
  20   12   13 1
  21   12   14 1
  22   12   29 1
  23   13   30 1
  24   13   31 1
  25   13   32 1
  26   14   33 1
  27   14   34 1
  28   14   35 1
  29   15   16 ar
  30   15   20 ar
  31   16   17 ar
  32   16   36 1
  33   17   18 ar
  34   17   37 1
  35   18   19 ar
  36   18   21 1
  37   19   20 ar
  38   20   38 1
  39   21   22 1
  40   22   39 1
  41   22   40 1
  42   22   41 1

#	End of record

