#	Name: ASD07930934
#	Creating user name:	WinNT
#	Creation time:	15. 06. 2019 21:13

#	Modifying user name:	WinNT
#	Modification time:	15. 06. 2019 21:13

#	Program:	/corina/corina34_cracker 3.40 0067  02.08.2006

@<TRIPOS>MOLECULE
ASD07930934
  30   32    0    0    0
SMALL
NO_CHARGES


@<TRIPOS>ATOM
   1 N1            -0.0168     1.3874     0.0097 N.2     
   2 N2             0.0021    -0.0041     0.0020 N.am    
   3 C3             1.2653    -0.4763    -0.0126 C.2     
   4 C4             2.1532     0.7527    -0.0145 C.3     
   5 C5             1.1699     1.9045     0.0011 C.2     
   6 O6             1.6164    -1.6374    -0.0216 O.2     
   7 C7            -1.1423    -0.8096     0.0090 C.ar    
   8 C8            -2.4033    -0.2273     0.0242 C.ar    
   9 C9            -3.5305    -1.0251     0.0311 C.ar    
  10 C10           -3.4049    -2.4022     0.0230 C.ar    
  11 C11           -2.1510    -2.9852     0.0084 C.ar    
  12 C12           -1.0197    -2.1931    -0.0048 C.ar    
  13 C13            1.5012     3.3410     0.0057 C.ar    
  14 C14            0.4805     4.2981     0.0211 C.ar    
  15 C15            0.8000     5.6423     0.0257 C.ar    
  16 C16            2.1245     6.0412     0.0147 C.ar    
  17 C17            3.1382     5.0994    -0.0010 C.ar    
  18 C18            2.8355     3.7536     0.0005 C.ar    
  19 F19           -0.8133     3.9090     0.0309 F       
  20 H20            2.7814     0.7730     0.8761 H       
  21 H21            2.7643     0.7827    -0.9165 H       
  22 H22           -2.5021     0.8482     0.0308 H       
  23 H23           -4.5113    -0.5729     0.0432 H       
  24 H24           -4.2881    -3.0239     0.0285 H       
  25 H25           -2.0563    -4.0610     0.0025 H       
  26 H26           -0.0408    -2.6490    -0.0215 H       
  27 H27            0.0142     6.3830     0.0376 H       
  28 H28            2.3687     7.0932     0.0181 H       
  29 H29            4.1698     5.4191    -0.0102 H       
  30 H30            3.6286     3.0206    -0.0069 H       
@<TRIPOS>BOND
   1    1    2 1
   2    1    5 2
   3    2    3 am
   4    2    7 1
   5    3    4 1
   6    3    6 2
   7    4    5 1
   8    4   20 1
   9    4   21 1
  10    5   13 1
  11    7    8 ar
  12    7   12 ar
  13    8    9 ar
  14    8   22 1
  15    9   10 ar
  16    9   23 1
  17   10   11 ar
  18   10   24 1
  19   11   12 ar
  20   11   25 1
  21   12   26 1
  22   13   14 ar
  23   13   18 ar
  24   14   15 ar
  25   14   19 1
  26   15   16 ar
  27   15   27 1
  28   16   17 ar
  29   16   28 1
  30   17   18 ar
  31   17   29 1
  32   18   30 1

#	End of record

