#	Name: ASD01420027
#	Creating user name:	WinNT
#	Creation time:	15. 06. 2019 19:20

#	Modifying user name:	WinNT
#	Modification time:	15. 06. 2019 19:20

#	Program:	/corina/corina34_cracker 3.40 0067  02.08.2006

@<TRIPOS>MOLECULE
ASD01420027
  50   50    0    0    0
SMALL
NO_CHARGES


@<TRIPOS>ATOM
   1 C1            -0.0180     1.4763     0.0102 C.3     
   2 N2             0.0021    -0.0041     0.0020 N.3     
   3 C3             1.2740    -0.3385    -0.6779 C.3     
   4 C4             2.1990     0.8269    -0.4099 C.ar    
   5 C5             3.5716     0.9540    -0.5067 C.ar    
   6 C6             4.1786     2.1561    -0.1955 C.ar    
   7 C7             3.4124     3.2324     0.2121 C.ar    
   8 C8             2.0394     3.1062     0.3088 C.ar    
   9 C9             1.4318     1.9045    -0.0014 C.ar    
  10 C10            5.6756     2.2938    -0.3008 C.3     
  11 N11            6.0318     2.7454    -1.6526 N.3     
  12 C12            7.4520     3.1182    -1.7263 C.3     
  13 C13            7.7935     3.5245    -3.1623 C.3     
  14 O14            6.9319     4.5914    -3.5683 O.3     
  15 C15            5.5413     4.2625    -3.5094 C.3     
  16 C16            5.1770     3.8637    -2.0769 C.3     
  17 H17           -0.5283     1.8508    -0.8772 H       
  18 H18           -0.5112     1.8412     0.9111 H       
  19 H19           -0.0130    -0.3711     0.9418 H       
  20 H20            1.6932    -1.2550    -0.2628 H       
  21 H21            1.1100    -0.4503    -1.7496 H       
  22 H22            4.1703     0.1135    -0.8253 H       
  23 H23            3.8868     4.1717     0.4553 H       
  24 H24            1.4412     3.9470     0.6275 H       
  25 H25            6.0257     3.0229     0.4299 H       
  26 H26            6.1439     1.3293    -0.1048 H       
  27 H27            7.6437     3.9558    -1.0557 H       
  28 H28            8.0673     2.2678    -1.4325 H       
  29 H29            8.8307     3.8562    -3.2098 H       
  30 H30            7.6530     2.6708    -3.8253 H       
  31 H31            4.9497     5.1279    -3.8079 H       
  32 H32            5.3353     3.4302    -4.1825 H       
  33 H33            4.1316     3.5574    -2.0390 H       
  34 H34            5.3323     4.7132    -1.4118 H       
  35 C35           15.0022    12.1161     7.0886 C.2     
  36 C36           15.0226    10.6093     7.0803 C.3     
  37 O37           16.0402    12.7344     7.0820 O.2     
  38 O38           13.8307    12.7714     7.0977 O.3     
  39 F39           16.3477    10.1610     7.0653 F       
  40 F40           14.3804    10.1279     8.2262 F       
  41 F41           14.3586    10.1402     5.9418 F       
  42 H42           13.8682    13.7377     7.1028 H       
  43 C43           22.5192    20.7259    14.3730 C.2     
  44 C44           22.5396    19.2191    14.3647 C.3     
  45 O45           23.5572    21.3442    14.3664 O.2     
  46 O46           21.3477    21.3812    14.3821 O.3     
  47 F47           23.8648    18.7707    14.3497 F       
  48 F48           21.8974    18.7377    15.5106 F       
  49 F49           21.8756    18.7499    13.2262 F       
  50 H50           21.3852    22.3474    14.3872 H       
@<TRIPOS>BOND
   1    1    2 1
   2    1    9 1
   3    1   17 1
   4    1   18 1
   5    2    3 1
   6    2   19 1
   7    3    4 1
   8    3   20 1
   9    3   21 1
  10    4    5 ar
  11    4    9 ar
  12    5    6 ar
  13    5   22 1
  14    6    7 ar
  15    6   10 1
  16    7    8 ar
  17    7   23 1
  18    8    9 ar
  19    8   24 1
  20   10   11 1
  21   10   25 1
  22   10   26 1
  23   11   12 1
  24   11   16 1
  25   12   13 1
  26   12   27 1
  27   12   28 1
  28   13   14 1
  29   13   29 1
  30   13   30 1
  31   14   15 1
  32   15   16 1
  33   15   31 1
  34   15   32 1
  35   16   33 1
  36   16   34 1
  37   35   36 1
  38   35   37 2
  39   35   38 1
  40   36   39 1
  41   36   40 1
  42   36   41 1
  43   38   42 1
  44   43   44 1
  45   43   45 2
  46   43   46 1
  47   44   47 1
  48   44   48 1
  49   44   49 1
  50   46   50 1

#	End of record

