#	Name: ASD00310382
#	Creating user name:	WinNT
#	Creation time:	15. 06. 2019 18:34

#	Modifying user name:	WinNT
#	Modification time:	15. 06. 2019 18:34

#	Program:	/corina/corina34_cracker 3.40 0067  02.08.2006

@<TRIPOS>MOLECULE
ASD00310382
  39   42    0    0    0
SMALL
NO_CHARGES


@<TRIPOS>ATOM
   1 N1            -0.0163     1.3499     0.0095 N.pl3   
   2 C2             0.0021    -0.0041     0.0020 C.2     
   3 C3             1.2922    -0.4483    -0.0127 C.2     
   4 C4             2.1476     0.7538    -0.0144 C.ar    
   5 C5             3.5232     0.9581    -0.0264 C.ar    
   6 C6             4.0242     2.2536    -0.0243 C.ar    
   7 C7             3.1468     3.3435    -0.0100 C.ar    
   8 C8             1.7853     3.1435     0.0019 C.ar    
   9 C9             1.2697     1.8501    -0.0001 C.ar    
  10 C10            1.7402    -1.8454    -0.0240 C.2     
  11 O11            2.9286    -2.1027    -0.0364 O.2     
  12 O12            0.8342    -2.8441    -0.0208 O.3     
  13 O13            9.5802     3.0983    -0.0557 O.3     
  14 C14           10.0656     4.2579    -0.7408 C.3     
  15 C15            9.3652     4.3389    -2.1039 C.3     
  16 O16            7.9547     4.4346    -1.8776 O.3     
  17 C17            7.4206     3.5715    -0.9705 C.ar    
  18 C18            8.2326     2.9053    -0.0579 C.ar    
  19 C19            6.0524     3.3599    -0.9609 C.ar    
  20 C20            5.4901     2.4818    -0.0365 C.ar    
  21 C21            6.3076     1.8190     0.8764 C.ar    
  22 C22            7.6708     2.0320     0.8629 C.ar    
  23 C23           11.5777     4.1420    -0.9437 C.3     
  24 O24           12.2313     4.1557     0.3270 O.3     
  25 Cl25           3.7804     4.9598    -0.0068 Cl      
  26 H26           -0.8206     1.8921     0.0163 H       
  27 H27           -0.8729    -0.6372     0.0073 H       
  28 H28            4.1977     0.1147    -0.0370 H       
  29 H29            1.1158     3.9909     0.0132 H       
  30 H30            1.1772    -3.7482    -0.0286 H       
  31 H31            9.8398     5.1507    -0.1578 H       
  32 H32            9.7117     5.2203    -2.6435 H       
  33 H33            9.5845     3.4424    -2.6838 H       
  34 H34            5.4211     3.8753    -1.6697 H       
  35 H35            5.8743     1.1389     1.5948 H       
  36 H36            8.3030     1.5170     1.5711 H       
  37 H37           11.8047     3.2087    -1.4590 H       
  38 H38           11.9294     4.9824    -1.5422 H       
  39 H39           13.1943     4.0856     0.2748 H       
@<TRIPOS>BOND
   1    1    2 1
   2    1    9 1
   3    1   26 1
   4    2    3 2
   5    2   27 1
   6    3    4 1
   7    3   10 1
   8    4    5 ar
   9    4    9 ar
  10    5    6 ar
  11    5   28 1
  12    6    7 ar
  13    6   20 1
  14    7    8 ar
  15    7   25 1
  16    8    9 ar
  17    8   29 1
  18   10   11 2
  19   10   12 1
  20   12   30 1
  21   13   14 1
  22   13   18 1
  23   14   15 1
  24   14   23 1
  25   14   31 1
  26   15   16 1
  27   15   32 1
  28   15   33 1
  29   16   17 1
  30   17   18 ar
  31   17   19 ar
  32   18   22 ar
  33   19   20 ar
  34   19   34 1
  35   20   21 ar
  36   21   22 ar
  37   21   35 1
  38   22   36 1
  39   23   24 1
  40   23   37 1
  41   23   38 1
  42   24   39 1

#	End of record

