#	Name: ASD07931878
#	Creating user name:	WinNT
#	Creation time:	15. 06. 2019 21:13

#	Modifying user name:	WinNT
#	Modification time:	15. 06. 2019 21:13

#	Program:	/corina/corina34_cracker 3.40 0067  02.08.2006

@<TRIPOS>MOLECULE
ASD07931878
  58   60    0    0    0
SMALL
NO_CHARGES


@<TRIPOS>ATOM
   1 C1            -0.1298     0.3247    -2.2681 C.3     
   2 C2            -0.4659     0.2912    -0.7758 C.3     
   3 C3            -1.0711     1.6332    -0.3591 C.3     
   4 C4            -1.3964     1.6037     1.1356 C.3     
   5 C5            -1.9175     2.9165     1.5504 C.1     
   6 C6            -2.3330     3.9635     1.8811 C.1     
   7 O7            -2.2687     1.8671    -1.1028 O.3     
   8 C8            -2.8399     5.2405     2.2846 C.ar    
   9 C9            -3.2089     5.4597     3.6120 C.ar    
  10 C10           -3.6976     6.6942     3.9961 C.ar    
  11 C11           -3.8217     7.7127     3.0655 C.ar    
  12 C12           -3.4568     7.5005     1.7462 C.ar    
  13 C13           -2.9611     6.2717     1.3527 C.ar    
  14 C14           -4.3561     9.0564     3.4899 C.3     
  15 F15           -3.2954     9.8729     3.8963 F       
  16 F16           -5.0199     9.6553     2.4138 F       
  17 F17           -5.2493     8.8883     4.5535 F       
  18 F18           -3.5808     8.4980     0.8434 F       
  19 F19           -4.0553     6.9077     5.2813 F       
  20 N20           -1.4326    -0.7838    -0.5156 N.3     
  21 C21           -2.4252    -0.8718    -1.5949 C.3     
  22 C22           -3.6067    -1.6813    -1.1260 C.ar    
  23 C23           -4.6688    -1.0555    -0.5006 C.ar    
  24 C24           -5.7526    -1.7980    -0.0704 C.ar    
  25 C25           -5.7744    -3.1663    -0.2661 C.ar    
  26 C26           -4.7127    -3.7920    -0.8923 C.ar    
  27 C27           -3.6309    -3.0488    -1.3264 C.ar    
  28 C28           -0.7500    -2.0701    -0.3220 C.3     
  29 C29           -0.0759    -2.0832     1.0258 C.ar    
  30 C30           -0.7960    -2.4242     2.1555 C.ar    
  31 C31           -0.1777    -2.4361     3.3918 C.ar    
  32 C32            1.1608    -2.1075     3.4983 C.ar    
  33 C33            1.8811    -1.7675     2.3685 C.ar    
  34 C34            1.2639    -1.7597     1.1317 C.ar    
  35 H35            0.5875     1.1224    -2.4612 H       
  36 H36            0.3013    -0.6313    -2.5650 H       
  37 H37           -1.0389     0.5070    -2.8412 H       
  38 H38            0.4432     0.1090    -0.2027 H       
  39 H39           -0.3569     2.4318    -0.5598 H       
  40 H40           -2.1470     0.8373     1.3290 H       
  41 H41           -0.4919     1.3770     1.7000 H       
  42 H42           -3.0251     1.3433    -0.8052 H       
  43 H43           -3.1132     4.6660     4.3382 H       
  44 H44           -2.6727     6.1087     0.3248 H       
  45 H45           -2.7563     0.1305    -1.8666 H       
  46 H46           -1.9761    -1.3540    -2.4632 H       
  47 H47           -4.6518     0.0135    -0.3477 H       
  48 H48           -6.5821    -1.3092     0.4189 H       
  49 H49           -6.6208    -3.7465     0.0707 H       
  50 H50           -4.7296    -4.8610    -1.0449 H       
  51 H51           -2.8030    -3.5372    -1.8189 H       
  52 H52           -1.4787    -2.8792    -0.3716 H       
  53 H53           -0.0024    -2.2060    -1.1035 H       
  54 H54           -1.8417    -2.6809     2.0722 H       
  55 H55           -0.7404    -2.7018     4.2744 H       
  56 H56            1.6437    -2.1162     4.4643 H       
  57 H57            2.9268    -1.5104     2.4518 H       
  58 H58            1.8275    -1.4976     0.2485 H       
@<TRIPOS>BOND
   1    1    2 1
   2    1   35 1
   3    1   36 1
   4    1   37 1
   5    2    3 1
   6    2   20 1
   7    2   38 1
   8    3    4 1
   9    3    7 1
  10    3   39 1
  11    4    5 1
  12    4   40 1
  13    4   41 1
  14    5    6 3
  15    6    8 1
  16    7   42 1
  17    8    9 ar
  18    8   13 ar
  19    9   10 ar
  20    9   43 1
  21   10   11 ar
  22   10   19 1
  23   11   12 ar
  24   11   14 1
  25   12   13 ar
  26   12   18 1
  27   13   44 1
  28   14   15 1
  29   14   16 1
  30   14   17 1
  31   20   21 1
  32   20   28 1
  33   21   22 1
  34   21   45 1
  35   21   46 1
  36   22   23 ar
  37   22   27 ar
  38   23   24 ar
  39   23   47 1
  40   24   25 ar
  41   24   48 1
  42   25   26 ar
  43   25   49 1
  44   26   27 ar
  45   26   50 1
  46   27   51 1
  47   28   29 1
  48   28   52 1
  49   28   53 1
  50   29   30 ar
  51   29   34 ar
  52   30   31 ar
  53   30   54 1
  54   31   32 ar
  55   31   55 1
  56   32   33 ar
  57   32   56 1
  58   33   34 ar
  59   33   57 1
  60   34   58 1

#	End of record

