#	Name: ASD01910764
#	Creating user name:	WinNT
#	Creation time:	15. 06. 2019 19:56

#	Modifying user name:	WinNT
#	Modification time:	15. 06. 2019 19:56

#	Program:	/corina/corina34_cracker 3.40 0067  02.08.2006

@<TRIPOS>MOLECULE
ASD01910764
  53   56    0    0    0
SMALL
NO_CHARGES


@<TRIPOS>ATOM
   1 C1            -0.2839     1.0999     0.3936 C.ar    
   2 C2            -0.1907    -0.2767     0.3043 C.ar    
   3 C3             1.0480    -0.8831     0.2281 C.ar    
   4 C4             2.2007    -0.1085     0.2414 C.ar    
   5 C5             2.1034     1.2745     0.3313 C.ar    
   6 C6             0.8620     1.8743     0.4072 C.ar    
   7 N7             3.4549    -0.7184     0.1651 N.3     
   8 C8             3.3254    -2.1791     0.0777 C.3     
   9 C9             4.7032    -2.7958    -0.1859 C.3     
  10 N10            5.6354    -2.3147     0.8450 N.am    
  11 C11            5.7192    -0.8662     1.0860 C.3     
  12 C12            4.3014    -0.3254     1.2995 C.3     
  13 C13            6.3925    -3.1782     1.5504 C.2     
  14 C14            7.4116    -2.6687     2.4929 C.ar    
  15 O15            6.2375    -4.3758     1.4119 O.2     
  16 C16            7.6070    -3.3025     3.7221 C.ar    
  17 C17            8.5586    -2.8289     4.6040 C.ar    
  18 C18            9.3233    -1.7270     4.2783 C.ar    
  19 C19            9.1386    -1.0823     3.0511 C.ar    
  20 C20            8.1829    -1.5591     2.1542 C.ar    
  21 C21            9.9322     0.0611     2.7142 C.1     
  22 C22           10.5827     0.9985     2.4380 C.1     
  23 C23           11.3762     2.1420     2.1011 C.ar    
  24 C24           11.1930     2.7872     0.8753 C.ar    
  25 C25           11.9606     3.8882     0.5579 C.ar    
  26 C26           12.9107     4.3539     1.4497 C.ar    
  27 C27           13.0981     3.7197     2.6653 C.ar    
  28 C28           12.3336     2.6214     2.9991 C.ar    
  29 C29            0.7555     3.3744     0.5042 C.3     
  30 F30            0.6818     3.9208    -0.7816 F       
  31 F31           -0.3961     3.7147     1.2221 F       
  32 F32            1.8817     3.8803     1.1621 F       
  33 H33           -1.2538     1.5718     0.4485 H       
  34 H34           -1.0874    -0.8785     0.2943 H       
  35 H35            1.1201    -1.9585     0.1587 H       
  36 H36            2.9978     1.8798     0.3419 H       
  37 H37            2.9273    -2.5657     1.0158 H       
  38 H38            2.6498    -2.4362    -0.7381 H       
  39 H39            4.6333    -3.8825    -0.1378 H       
  40 H40            5.0580    -2.4922    -1.1708 H       
  41 H41            6.3209    -0.6771     1.9750 H       
  42 H42            6.1716    -0.3770     0.2233 H       
  43 H43            4.3335     0.7618     1.3698 H       
  44 H44            3.8896    -0.7379     2.2206 H       
  45 H45            7.0121    -4.1650     3.9838 H       
  46 H46            8.7049    -3.3229     5.5531 H       
  47 H47           10.0654    -1.3617     4.9727 H       
  48 H48            8.0357    -1.0655     1.2049 H       
  49 H49           10.4523     2.4245     0.1780 H       
  50 H50           11.8201     4.3880    -0.3891 H       
  51 H51           13.5091     5.2162     1.1957 H       
  52 H52           13.8420     4.0883     3.3561 H       
  53 H53           12.4809     2.1274     3.9481 H       
@<TRIPOS>BOND
   1    1    2 ar
   2    1    6 ar
   3    1   33 1
   4    2    3 ar
   5    2   34 1
   6    3    4 ar
   7    3   35 1
   8    4    5 ar
   9    4    7 1
  10    5    6 ar
  11    5   36 1
  12    6   29 1
  13    7    8 1
  14    7   12 1
  15    8    9 1
  16    8   37 1
  17    8   38 1
  18    9   10 1
  19    9   39 1
  20    9   40 1
  21   10   11 1
  22   10   13 am
  23   11   12 1
  24   11   41 1
  25   11   42 1
  26   12   43 1
  27   12   44 1
  28   13   14 1
  29   13   15 2
  30   14   16 ar
  31   14   20 ar
  32   16   17 ar
  33   16   45 1
  34   17   18 ar
  35   17   46 1
  36   18   19 ar
  37   18   47 1
  38   19   20 ar
  39   19   21 1
  40   20   48 1
  41   21   22 3
  42   22   23 1
  43   23   24 ar
  44   23   28 ar
  45   24   25 ar
  46   24   49 1
  47   25   26 ar
  48   25   50 1
  49   26   27 ar
  50   26   51 1
  51   27   28 ar
  52   27   52 1
  53   28   53 1
  54   29   30 1
  55   29   31 1
  56   29   32 1

#	End of record

