#	Name: ASD04590652
#	Creating user name:	WinNT
#	Creation time:	15. 06. 2019 20:51

#	Modifying user name:	WinNT
#	Modification time:	15. 06. 2019 20:51

#	Program:	/corina/corina34_cracker 3.40 0067  02.08.2006

@<TRIPOS>MOLECULE
ASD04590652
  57   61    0    0    0
SMALL
NO_CHARGES


@<TRIPOS>ATOM
   1 N1            -0.0170     1.3232    -0.0111 N.ar    
   2 C2             0.0017    -0.0035    -0.0048 C.ar    
   3 N3             1.1299    -0.6949    -0.0118 N.ar    
   4 C4             2.3050    -0.0729    -0.0259 C.ar    
   5 C5             2.3189     1.3365    -0.0332 C.ar    
   6 C6             1.1072     2.0202    -0.0251 C.ar    
   7 N7             3.6031    -0.5196    -0.0356 N.pl3   
   8 C8             4.4823     0.5494    -0.0493 C.ar    
   9 C9             3.7313     1.7384    -0.0484 C.ar    
  10 C10            5.8681     0.6417    -0.0622 C.ar    
  11 N11            6.4613     1.8180    -0.0729 N.ar    
  12 C12            5.7851     2.9532    -0.0725 C.ar    
  13 C13            4.4064     2.9584    -0.0605 C.ar    
  14 N14           -1.2019    -0.6887     0.0098 N.pl3   
  15 C15           -2.4022     0.0122     0.1304 C.ar    
  16 C16            4.0018    -1.9293    -0.0316 C.3     
  17 N17           -2.3891     1.3195     0.3310 N.ar    
  18 N18           -3.4683     2.0042     0.4478 N.ar    
  19 C19           -4.6668     1.4483     0.3753 C.ar    
  20 C20           -4.7831     0.0733     0.1655 C.ar    
  21 C21           -3.6194    -0.6637     0.0338 C.ar    
  22 N22           -5.8099     2.2334     0.5087 N.3     
  23 C23            3.4577    -2.6096     1.2263 C.3     
  24 C24            3.4353    -2.6230    -1.2721 C.3     
  25 C25           -6.6143     1.8046     1.6726 C.3     
  26 C26           -6.6512     2.1513    -0.6994 C.3     
  27 C27           -8.0479     1.6714    -0.2520 C.3     
  28 C28           -8.0840     2.0536     1.2511 C.3     
  29 O29           -8.9753     1.2025     1.9745 O.3     
  30 C30            4.0743    -2.0252    -2.5272 C.3     
  31 C31            3.9771    -4.0471     1.2938 C.3     
  32 H32            1.0849     3.0999    -0.0307 H       
  33 H33            6.4645    -0.2586    -0.0631 H       
  34 H34            6.3204     3.8911    -0.0816 H       
  35 H35            3.8598     3.8898    -0.0602 H       
  36 H36           -1.2103    -1.6559    -0.0637 H       
  37 H37            5.0895    -1.9993    -0.0410 H       
  38 H38           -5.7518    -0.4003     0.1036 H       
  39 H39           -3.6520    -1.7307    -0.1299 H       
  40 H40            3.7896    -2.0615     2.1081 H       
  41 H41            2.3683    -2.6181     1.1924 H       
  42 H42            3.6560    -3.6894    -1.2247 H       
  43 H43            2.3558    -2.4767    -1.3091 H       
  44 H44           -6.4523     0.7462     1.8767 H       
  45 H45           -6.3640     2.4034     2.5483 H       
  46 H46           -6.7282     3.1338    -1.1650 H       
  47 H47           -6.2216     1.4379    -1.4026 H       
  48 H48           -8.8298     2.1954    -0.8018 H       
  49 H49           -8.1435     0.5929    -0.3778 H       
  50 H50           -8.3553     3.1013     1.3812 H       
  51 H51           -9.8944     1.2529     1.6783 H       
  52 H52            3.6707    -2.5195    -3.4109 H       
  53 H53            3.8536    -0.9589    -2.5746 H       
  54 H54            5.1538    -2.1716    -2.4902 H       
  55 H55            3.6452    -4.5951     0.4120 H       
  56 H56            5.0666    -4.0386     1.3276 H       
  57 H57            3.5895    -4.5318     2.1899 H       
@<TRIPOS>BOND
   1    1    2 ar
   2    1    6 ar
   3    2    3 ar
   4    2   14 1
   5    3    4 ar
   6    4    5 ar
   7    4    7 1
   8    5    6 ar
   9    5    9 1
  10    6   32 1
  11    7    8 1
  12    7   16 1
  13    8    9 ar
  14    8   10 ar
  15    9   13 ar
  16   10   11 ar
  17   10   33 1
  18   11   12 ar
  19   12   13 ar
  20   12   34 1
  21   13   35 1
  22   14   15 1
  23   14   36 1
  24   15   17 ar
  25   15   21 ar
  26   16   23 1
  27   16   24 1
  28   16   37 1
  29   17   18 ar
  30   18   19 ar
  31   19   20 ar
  32   19   22 1
  33   20   21 ar
  34   20   38 1
  35   21   39 1
  36   22   26 1
  37   22   25 1
  38   23   31 1
  39   23   40 1
  40   23   41 1
  41   24   30 1
  42   24   42 1
  43   24   43 1
  44   25   28 1
  45   25   44 1
  46   25   45 1
  47   26   27 1
  48   26   46 1
  49   26   47 1
  50   27   28 1
  51   27   48 1
  52   27   49 1
  53   28   29 1
  54   28   50 1
  55   29   51 1
  56   30   52 1
  57   30   53 1
  58   30   54 1
  59   31   55 1
  60   31   56 1
  61   31   57 1

#	End of record

