#	Name: ASD01885663
#	Creating user name:	WinNT
#	Creation time:	15. 06. 2019 19:49

#	Modifying user name:	WinNT
#	Modification time:	15. 06. 2019 19:49

#	Program:	/corina/corina34_cracker 3.40 0067  02.08.2006

@<TRIPOS>MOLECULE
ASD01885663
  51   54    0    0    0
SMALL
NO_CHARGES


@<TRIPOS>ATOM
   1 C1            -0.0170     1.4035     0.0098 C.ar    
   2 C2            -1.2679     2.0723     0.0193 C.ar    
   3 C3            -1.2806     3.5352     0.0274 C.ar    
   4 C4            -0.0488     4.1837     0.0251 C.ar    
   5 C5             1.1260     3.4252     0.0154 C.ar    
   6 N6             1.1145     2.1073     0.0027 N.ar    
   7 C7             0.0021    -0.0041     0.0020 C.ar    
   8 C8            -1.1705    -0.6946     0.0090 C.ar    
   9 C9            -2.3959    -0.0320     0.0237 C.ar    
  10 C10           -2.4538     1.3304     0.0204 C.ar    
  11 C11           -2.5462     4.2918     0.0370 C.2     
  12 C12           -2.9714     4.9416     1.3214 C.3     
  13 C13           -4.4580     5.2991     1.2639 C.3     
  14 C14           -3.2333     4.3623    -1.0805 C.2     
  15 C15            2.4311     4.1290     0.0057 C.2     
  16 N16            3.5781     3.4215    -0.0156 N.am    
  17 O17            2.4666     5.3434     0.0170 O.2     
  18 C18           -1.1430    -2.2013     0.0127 C.3     
  19 N19           -1.1527    -2.6933    -1.3672 N.am    
  20 C20           -0.0320    -2.9161    -2.0648 C.2     
  21 C21           -0.3963    -3.4166    -3.4455 C.3     
  22 C22           -1.9382    -3.4447    -3.4246 C.3     
  23 C23           -2.2829    -2.9626    -2.0324 C.2     
  24 O24            1.0960    -2.7438    -1.6553 O.2     
  25 O25           -3.4048    -2.8336    -1.5916 O.2     
  26 C26           -4.7266     6.0550    -0.0432 C.3     
  27 C27           -4.5394     5.0898    -1.2135 C.3     
  28 C28           -6.1594     6.5917    -0.0416 C.3     
  29 H29           -0.0009     5.2626     0.0304 H       
  30 H30            0.9433    -0.5336    -0.0098 H       
  31 H31           -3.3115    -0.6045     0.0376 H       
  32 H32           -3.4095     1.8336     0.0276 H       
  33 H33           -2.7968     4.2542     2.1492 H       
  34 H34           -2.3875     5.8485     1.4782 H       
  35 H35           -5.0551     4.3875     1.2891 H       
  36 H36           -4.7155     5.9325     2.1128 H       
  37 H37           -2.8350     3.8684    -1.9545 H       
  38 H38            3.5498     2.4519    -0.0247 H       
  39 H39            4.4319     3.8818    -0.0219 H       
  40 H40           -0.2397    -2.5470     0.5153 H       
  41 H41           -2.0192    -2.5794     0.5394 H       
  42 H42           -0.0355    -2.7289    -4.2104 H       
  43 H43            0.0035    -4.4174    -3.6086 H       
  44 H44           -2.3444    -2.7710    -4.1791 H       
  45 H45           -2.3054    -4.4595    -3.5774 H       
  46 H46           -4.0229     6.8818    -0.1393 H       
  47 H47           -4.5503     5.6494    -2.1488 H       
  48 H48           -5.3541     4.3657    -1.2185 H       
  49 H49           -6.2928     7.2689     0.8021 H       
  50 H50           -6.3474     7.1283    -0.9715 H       
  51 H51           -6.8587     5.7602     0.0459 H       
@<TRIPOS>BOND
   1    1    7 ar
   2    1    6 ar
   3    1    2 ar
   4    2    3 ar
   5    2   10 ar
   6    3   11 1
   7    3    4 ar
   8    4    5 ar
   9    4   29 1
  10    5   15 1
  11    5    6 ar
  12    7    8 ar
  13    7   30 1
  14    8    9 ar
  15    8   18 1
  16    9   10 ar
  17    9   31 1
  18   10   32 1
  19   11   12 1
  20   11   14 2
  21   12   13 1
  22   12   33 1
  23   12   34 1
  24   13   26 1
  25   13   35 1
  26   13   36 1
  27   14   27 1
  28   14   37 1
  29   15   16 am
  30   15   17 2
  31   16   38 1
  32   16   39 1
  33   18   19 1
  34   18   40 1
  35   18   41 1
  36   19   20 am
  37   19   23 am
  38   20   21 1
  39   20   24 2
  40   21   22 1
  41   21   42 1
  42   21   43 1
  43   22   23 1
  44   22   44 1
  45   22   45 1
  46   23   25 2
  47   26   27 1
  48   26   28 1
  49   26   46 1
  50   27   47 1
  51   27   48 1
  52   28   49 1
  53   28   50 1
  54   28   51 1

#	End of record

