#	Name: ASD01150727
#	Creating user name:	WinNT
#	Creation time:	15. 06. 2019 19:04

#	Modifying user name:	WinNT
#	Modification time:	15. 06. 2019 19:04

#	Program:	/corina/corina34_cracker 3.40 0067  02.08.2006

@<TRIPOS>MOLECULE
ASD01150727
  26   27    0    0    0
SMALL
NO_CHARGES


@<TRIPOS>ATOM
   1 C1            -0.0417     1.1922     0.0129 C.2     
   2 O2             0.6615     1.2330    -0.9784 O.2     
   3 C3             0.3961     0.4260     1.1987 C.ar    
   4 C4             1.5597    -0.3444     1.1455 C.ar    
   5 C5             1.9628    -1.0565     2.2559 C.ar    
   6 C6             1.2171    -1.0088     3.4206 C.ar    
   7 C7             0.0631    -0.2474     3.4802 C.ar    
   8 C8            -0.3487     0.4738     2.3789 C.ar    
   9 C9            -1.3272     1.9114     0.0342 C.ar    
  10 C10           -2.5350     1.2047    -0.0924 C.ar    
  11 C11           -3.7404     1.8946    -0.0703 C.ar    
  12 C12           -3.7495     3.2668     0.0753 C.ar    
  13 C13           -2.5594     3.9680     0.2005 C.ar    
  14 C14           -1.3535     3.3010     0.1863 C.ar    
  15 Br15          -2.5920     5.8482     0.3992 Br      
  16 N16           -2.5237    -0.1760    -0.2393 N.pl3   
  17 H17            2.1424    -0.3828     0.2370 H       
  18 H18            2.8622    -1.6530     2.2161 H       
  19 H19            1.5370    -1.5686     4.2870 H       
  20 H20           -0.5142    -0.2146     4.3924 H       
  21 H21           -1.2471     1.0712     2.4282 H       
  22 H22           -4.6717     1.3564    -0.1676 H       
  23 H23           -4.6895     3.7984     0.0914 H       
  24 H24           -0.4299     3.8514     0.2884 H       
  25 H25           -1.6807    -0.6472    -0.3296 H       
  26 H26           -3.3588    -0.6693    -0.2516 H       
@<TRIPOS>BOND
   1    1    2 2
   2    1    3 1
   3    1    9 1
   4    3    4 ar
   5    3    8 ar
   6    4    5 ar
   7    4   17 1
   8    5    6 ar
   9    5   18 1
  10    6    7 ar
  11    6   19 1
  12    7    8 ar
  13    7   20 1
  14    8   21 1
  15    9   10 ar
  16    9   14 ar
  17   10   11 ar
  18   10   16 1
  19   11   12 ar
  20   11   22 1
  21   12   13 ar
  22   12   23 1
  23   13   14 ar
  24   13   15 1
  25   14   24 1
  26   16   25 1
  27   16   26 1

#	End of record

