#	Name: ASD01903337
#	Creating user name:	WinNT
#	Creation time:	15. 06. 2019 19:54

#	Modifying user name:	WinNT
#	Modification time:	15. 06. 2019 19:54

#	Program:	/corina/corina34_cracker 3.40 0067  02.08.2006

@<TRIPOS>MOLECULE
ASD01903337
  48   51    0    0    0
SMALL
NO_CHARGES


@<TRIPOS>ATOM
   1 C1             0.0127     1.3935     0.0902 C.ar    
   2 C2             0.0397     0.0204     0.2156 C.ar    
   3 C3             1.2341    -0.6778     0.0781 C.ar    
   4 C4             2.3977     0.0076    -0.1857 C.ar    
   5 C5             2.3678     1.3919    -0.3122 C.ar    
   6 C6             1.1818     2.0822    -0.1749 C.ar    
   7 S7             1.5368    -2.4117     0.1913 S.o2    
   8 N8             3.1624    -2.6255    -0.0660 N.am    
   9 S9             3.7650    -1.0991    -0.3140 S.o2    
  10 O10            4.1974    -1.0510    -1.6667 O.2     
  11 O11            4.6166    -0.8176     0.7883 O.2     
  12 O12            1.2907    -2.7768     1.5423 O.2     
  13 O13            0.8715    -3.0102    -0.9126 O.2     
  14 C14            3.8714    -3.8314    -0.0720 C.ar    
  15 C15            5.2405    -3.8310    -0.3058 C.ar    
  16 C16            5.9400    -5.0213    -0.3117 C.ar    
  17 C17            5.2749    -6.2187    -0.0844 C.ar    
  18 C18            3.9061    -6.2194     0.1490 C.ar    
  19 C19            3.2073    -5.0287     0.1616 C.ar    
  20 N20            5.9851    -7.4269    -0.0909 N.am    
  21 C21            7.2432    -7.4716     0.3903 C.2     
  22 C22            7.9690    -8.7893     0.4809 C.3     
  23 O23            7.7914    -6.4513     0.7505 O.2     
  24 C24            9.3684    -8.5623     1.0563 C.3     
  25 C25           10.1052    -9.9000     1.1482 C.3     
  26 C26            9.3264   -10.8495     2.0609 C.3     
  27 C27            7.9270   -11.0765     1.4855 C.3     
  28 C28            7.1902    -9.7388     1.3936 C.3     
  29 H29           -0.9196     1.9287     0.1942 H       
  30 H30           -0.8740    -0.5167     0.4227 H       
  31 H31            3.2805     1.9308    -0.5193 H       
  32 H32            1.1663     3.1575    -0.2749 H       
  33 H33            5.7577    -2.8997    -0.4833 H       
  34 H34            7.0046    -5.0210    -0.4936 H       
  35 H35            3.3888    -7.1510     0.3251 H       
  36 H36            2.1428    -5.0292     0.3434 H       
  37 H37            5.5712    -8.2310    -0.4418 H       
  38 H38            8.0517    -9.2276    -0.5136 H       
  39 H39            9.9232    -7.8859     0.4061 H       
  40 H40            9.2856    -8.1239     2.0508 H       
  41 H41           10.1879   -10.3384     0.1537 H       
  42 H42           11.1021    -9.7383     1.5581 H       
  43 H43            9.8513   -11.8026     2.1264 H       
  44 H44            9.2436   -10.4112     3.0554 H       
  45 H45            8.0097   -11.5149     0.4910 H       
  46 H46            7.3722   -11.7530     2.1357 H       
  47 H47            7.1074    -9.3004     2.3881 H       
  48 H48            6.1932    -9.9005     0.9837 H       
@<TRIPOS>BOND
   1    1    2 ar
   2    1    6 ar
   3    1   29 1
   4    2    3 ar
   5    2   30 1
   6    3    4 ar
   7    3    7 1
   8    4    5 ar
   9    4    9 1
  10    5    6 ar
  11    5   31 1
  12    6   32 1
  13    7    8 am
  14    7   12 2
  15    7   13 2
  16    8    9 am
  17    8   14 1
  18    9   10 2
  19    9   11 2
  20   14   15 ar
  21   14   19 ar
  22   15   16 ar
  23   15   33 1
  24   16   17 ar
  25   16   34 1
  26   17   18 ar
  27   17   20 1
  28   18   19 ar
  29   18   35 1
  30   19   36 1
  31   20   21 am
  32   20   37 1
  33   21   22 1
  34   21   23 2
  35   22   24 1
  36   22   28 1
  37   22   38 1
  38   24   25 1
  39   24   39 1
  40   24   40 1
  41   25   26 1
  42   25   41 1
  43   25   42 1
  44   26   27 1
  45   26   43 1
  46   26   44 1
  47   27   28 1
  48   27   45 1
  49   27   46 1
  50   28   47 1
  51   28   48 1

#	End of record

