#	Name: ASD01810856
#	Creating user name:	WinNT
#	Creation time:	15. 06. 2019 19:25

#	Modifying user name:	WinNT
#	Modification time:	15. 06. 2019 19:25

#	Program:	/corina/corina34_cracker 3.40 0067  02.08.2006

@<TRIPOS>MOLECULE
ASD01810856
  48   50    0    0    0
SMALL
NO_CHARGES


@<TRIPOS>ATOM
   1 C1             0.6117     1.4142    -0.0223 C.2     
   2 C2             0.3070    -0.0315    -0.0137 C.ar    
   3 C3             1.3439    -0.9662    -0.0764 C.ar    
   4 C4             1.0608    -2.3173    -0.0685 C.ar    
   5 C5            -0.2473    -2.7547     0.0009 C.ar    
   6 C6            -1.2935    -1.8316     0.0636 C.ar    
   7 C7            -1.0148    -0.4663     0.0628 C.ar    
   8 O8             1.7654     1.7920     0.0204 O.2     
   9 O9            -0.3896     2.3132    -0.0830 O.3     
  10 C10            2.7744    -0.4983    -0.1534 C.3     
  11 N11           -4.4288    -3.6892     0.2789 N.pl3   
  12 N12           -3.0374    -3.5444     0.2250 N.2     
  13 C13           -2.6933    -2.3020     0.1374 C.2     
  14 N14           -3.8037    -1.4597     0.1214 N.pl3   
  15 C15           -4.9891    -2.3286     0.2133 C.3     
  16 C16           -5.1783    -4.9442     0.3751 C.3     
  17 C17           -5.8683    -2.1698    -1.0288 C.3     
  18 C18           -6.4370    -0.7501    -1.0730 C.3     
  19 C19           -0.5466    -4.2317     0.0084 C.3     
  20 C20           -0.2159    -4.9340    -1.3190 C.3     
  21 C21            0.3161    -6.1051    -0.4762 C.3     
  22 C22            0.5653    -5.0823     0.6448 C.3     
  23 C23           -0.0163     3.7164    -0.0878 C.3     
  24 H24            1.8658    -3.0355    -0.1172 H       
  25 H25           -1.8198     0.2517     0.1159 H       
  26 H26            3.1382    -0.2753     0.8496 H       
  27 H27            3.3894    -1.2811    -0.5973 H       
  28 H28            2.8302     0.4001    -0.7681 H       
  29 H29           -3.7969    -0.4916     0.0621 H       
  30 H30           -5.5576    -2.1054     1.1161 H       
  31 H31           -4.4819    -5.7823     0.4004 H       
  32 H32           -5.7766    -4.9412     1.2862 H       
  33 H33           -5.8342    -5.0429    -0.4899 H       
  34 H34           -5.2705    -2.3497    -1.9224 H       
  35 H35           -6.6871    -2.8881    -0.9887 H       
  36 H36           -5.6181    -0.0318    -1.1132 H       
  37 H37           -7.0632    -0.6369    -1.9579 H       
  38 H38           -7.0347    -0.5702    -0.1794 H       
  39 H39           -1.5432    -4.4597     0.3866 H       
  40 H40           -1.0959    -5.1862    -1.9107 H       
  41 H41            0.5554    -4.4286    -1.9002 H       
  42 H42           -0.4441    -6.8464    -0.2298 H       
  43 H43            1.2290    -6.5493    -0.8729 H       
  44 H44            1.5502    -4.6173     0.6006 H       
  45 H45            0.3159    -5.4542     1.6386 H       
  46 H46            0.6144     3.9216    -0.9527 H       
  47 H47           -0.9149     4.3312    -0.1393 H       
  48 H48            0.5317     3.9496     0.8251 H       
@<TRIPOS>BOND
   1    1    2 1
   2    1    8 2
   3    1    9 1
   4    2    3 ar
   5    2    7 ar
   6    3    4 ar
   7    3   10 1
   8    4    5 ar
   9    4   24 1
  10    5    6 ar
  11    5   19 1
  12    6    7 ar
  13    6   13 1
  14    7   25 1
  15    9   23 1
  16   10   26 1
  17   10   27 1
  18   10   28 1
  19   11   12 1
  20   11   15 1
  21   11   16 1
  22   12   13 2
  23   13   14 1
  24   14   15 1
  25   14   29 1
  26   15   17 1
  27   15   30 1
  28   16   31 1
  29   16   32 1
  30   16   33 1
  31   17   18 1
  32   17   34 1
  33   17   35 1
  34   18   36 1
  35   18   37 1
  36   18   38 1
  37   19   20 1
  38   19   22 1
  39   19   39 1
  40   20   21 1
  41   20   40 1
  42   20   41 1
  43   21   22 1
  44   21   42 1
  45   21   43 1
  46   22   44 1
  47   22   45 1
  48   23   46 1
  49   23   47 1
  50   23   48 1

#	End of record

