#	Name: ASD03730043
#	Creating user name:	WinNT
#	Creation time:	15. 06. 2019 20:43

#	Modifying user name:	WinNT
#	Modification time:	15. 06. 2019 20:43

#	Program:	/corina/corina34_cracker 3.40 0067  02.08.2006

@<TRIPOS>MOLECULE
ASD03730043
  34   37    0    0    0
SMALL
NO_CHARGES


@<TRIPOS>ATOM
   1 C1            -0.0184     1.5028     0.0103 C.2     
   2 C2             0.0021    -0.0041     0.0020 C.3     
   3 O3             1.0291     2.1267     0.0037 O.co2   
   4 O4            -1.0824     2.0980     0.0186 O.co2   
   5 O5             5.6630    -1.2137     1.3835 O.3     
   6 C6             4.5875    -0.2790     1.1732 C.3     
   7 C7             3.4664    -1.1771     0.6322 C.3     
   8 C8             3.8255    -2.5371     1.1677 C.ar    
   9 C9             5.1463    -2.4564     1.6003 C.ar    
  10 C10            5.7405    -3.5813     2.1639 C.ar    
  11 C11            5.0315    -4.7611     2.2803 C.ar    
  12 C12            3.7199    -4.8336     1.8365 C.ar    
  13 C13            3.1208    -3.7161     1.2804 C.ar    
  14 N14            1.3897    -0.4735    -0.0138 N.am    
  15 C15            2.1130    -0.7211     1.0965 C.2     
  16 C16            3.4022    -1.1516    -0.8660 C.ar    
  17 C17            4.3040    -1.4531    -1.8622 C.ar    
  18 C18            3.9379    -1.3254    -3.1902 C.ar    
  19 C19            2.6644    -0.8946    -3.5148 C.ar    
  20 C20            1.7573    -0.5920    -2.5208 C.ar    
  21 C21            2.1174    -0.7167    -1.1811 C.ar    
  22 O22            1.7430    -0.5999     2.2452 O.2     
  23 F23            5.6180    -5.8480     2.8279 F       
  24 F24            3.0295    -5.9897     1.9462 F       
  25 H25           -0.4983    -0.3791     0.8948 H       
  26 H26           -0.5153    -0.3696    -0.8850 H       
  27 H27            4.2906     0.1870     2.1128 H       
  28 H28            4.8682     0.4749     0.4378 H       
  29 H29            6.7617    -3.5318     2.5120 H       
  30 H30            2.0991    -3.7684     0.9342 H       
  31 H31            5.2980    -1.7891    -1.6065 H       
  32 H32            4.6450    -1.5613    -3.9717 H       
  33 H33            2.3786    -0.7952    -4.5515 H       
  34 H34            0.7649    -0.2556    -2.7821 H       
@<TRIPOS>BOND
   1    1    2 1
   2    1    3 ar
   3    1    4 ar
   4    2   14 1
   5    2   25 1
   6    2   26 1
   7    5    6 1
   8    5    9 1
   9    6    7 1
  10    6   27 1
  11    6   28 1
  12    7    8 1
  13    7   15 1
  14    7   16 1
  15    8    9 ar
  16    8   13 ar
  17    9   10 ar
  18   10   11 ar
  19   10   29 1
  20   11   12 ar
  21   11   23 1
  22   12   13 ar
  23   12   24 1
  24   13   30 1
  25   14   15 am
  26   14   21 1
  27   15   22 2
  28   16   17 ar
  29   16   21 ar
  30   17   18 ar
  31   17   31 1
  32   18   19 ar
  33   18   32 1
  34   19   20 ar
  35   19   33 1
  36   20   21 ar
  37   20   34 1

#	End of record

