#	Name: ASD03731883
#	Creating user name:	WinNT
#	Creation time:	15. 06. 2019 20:46

#	Modifying user name:	WinNT
#	Modification time:	15. 06. 2019 20:46

#	Program:	/corina/corina34_cracker 3.40 0067  02.08.2006

@<TRIPOS>MOLECULE
ASD03731883
  41   42    0    0    0
SMALL
NO_CHARGES


@<TRIPOS>ATOM
   1 C1            -0.4029     1.1031    -1.9591 C.2     
   2 C2            -0.2818    -0.2737    -1.4496 C.ar    
   3 C3             0.9024    -0.9949    -1.6483 C.ar    
   4 C4             1.0104    -2.2843    -1.1684 C.ar    
   5 C5            -0.0528    -2.8659    -0.4901 C.ar    
   6 C6            -1.2313    -2.1525    -0.2912 C.ar    
   7 C7            -1.3468    -0.8632    -0.7607 C.ar    
   8 O8             0.5255     1.6151    -2.5530 O.2     
   9 O9            -1.5454     1.7929    -1.7715 O.3     
  10 F10            1.9365    -0.4296    -2.3089 F       
  11 O11            0.0574    -4.1342    -0.0202 O.3     
  12 C12            1.2596    -4.7566    -0.1396 C.ar    
  13 C13            2.2111    -4.6282     0.8624 C.ar    
  14 C14            3.4322    -5.2615     0.7391 C.ar    
  15 C15            3.7075    -6.0234    -0.3829 C.ar    
  16 C16            2.7604    -6.1524    -1.3832 C.ar    
  17 C17            1.5352    -5.5259    -1.2607 C.ar    
  18 C18            4.4659    -5.1223     1.8269 C.3     
  19 F19            3.9612    -4.3108     2.8486 F       
  20 F20            4.7724    -6.3859     2.3434 F       
  21 F21            5.6236    -4.5411     1.2985 F       
  22 Cl22           5.2434    -6.8180    -0.5358 Cl      
  23 Cl23          -2.5561    -2.8873     0.5567 Cl      
  24 C24           -1.5938     3.1443    -2.3005 C.3     
  25 C25           -1.3800     3.1071    -3.8150 C.3     
  26 C26           -2.9587     3.7636    -1.9931 C.3     
  27 C27           -0.4938     3.9861    -1.6506 C.3     
  28 H28            1.9228    -2.8419    -1.3206 H       
  29 H29           -2.2602    -0.3094    -0.6012 H       
  30 H30            1.9969    -4.0331     1.7378 H       
  31 H31            2.9773    -6.7472    -2.2582 H       
  32 H32            0.7942    -5.6311    -2.0393 H       
  33 H33           -2.1637     2.5074    -4.2780 H       
  34 H34           -1.4164     4.1216    -4.2121 H       
  35 H35           -0.4077     2.6659    -4.0339 H       
  36 H36           -3.1110     3.7901    -0.9142 H       
  37 H37           -2.9951     4.7781    -2.3902 H       
  38 H38           -3.7424     3.1639    -2.4561 H       
  39 H39            0.4785     3.5449    -1.8696 H       
  40 H40           -0.5302     5.0005    -2.0477 H       
  41 H41           -0.6462     4.0126    -0.5716 H       
@<TRIPOS>BOND
   1    1    2 1
   2    1    8 2
   3    1    9 1
   4    2    3 ar
   5    2    7 ar
   6    3    4 ar
   7    3   10 1
   8    4    5 ar
   9    4   28 1
  10    5    6 ar
  11    5   11 1
  12    6    7 ar
  13    6   23 1
  14    7   29 1
  15    9   24 1
  16   11   12 1
  17   12   13 ar
  18   12   17 ar
  19   13   14 ar
  20   13   30 1
  21   14   15 ar
  22   14   18 1
  23   15   16 ar
  24   15   22 1
  25   16   17 ar
  26   16   31 1
  27   17   32 1
  28   18   19 1
  29   18   20 1
  30   18   21 1
  31   24   25 1
  32   24   27 1
  33   24   26 1
  34   25   33 1
  35   25   34 1
  36   25   35 1
  37   26   36 1
  38   26   37 1
  39   26   38 1
  40   27   39 1
  41   27   40 1
  42   27   41 1

#	End of record

