#	Name: ASD01890240
#	Creating user name:	WinNT
#	Creation time:	15. 06. 2019 19:50

#	Modifying user name:	WinNT
#	Modification time:	15. 06. 2019 19:50

#	Program:	/corina/corina34_cracker 3.40 0067  02.08.2006

@<TRIPOS>MOLECULE
ASD01890240
  28   29    0    0    0
SMALL
NO_CHARGES


@<TRIPOS>ATOM
   1 C1            -0.0177     1.4575     0.0101 C.2     
   2 C2             0.0021    -0.0041     0.0020 C.2     
   3 C3             1.1813    -0.6637    -0.0128 C.2     
   4 O4             1.0281     2.0804     0.0034 O.2     
   5 C5            -1.3086     2.1795     0.0201 C.ar    
   6 C6            -1.3311     3.5754     0.0278 C.ar    
   7 C7            -2.5384     4.2426     0.0372 C.ar    
   8 C8            -3.7255     3.5314     0.0390 C.ar    
   9 C9            -3.7103     2.1478     0.0314 C.ar    
  10 C10           -2.5099     1.4682     0.0162 C.ar    
  11 C11            1.2012    -2.1340    -0.0209 C.ar    
  12 C12            2.4207    -2.8204    -0.0362 C.ar    
  13 C13            2.4311    -4.2004    -0.0438 C.ar    
  14 C14            1.2358    -4.9059    -0.0366 C.ar    
  15 C15            0.0263    -4.2315    -0.0215 C.ar    
  16 C16            0.0012    -2.8532    -0.0075 C.ar    
  17 F17            3.6068    -4.8657    -0.0586 F       
  18 Cl18           1.2571    -6.6417    -0.0474 Cl      
  19 H19           -0.9258    -0.5567     0.0079 H       
  20 H20            2.1092    -0.1110    -0.0187 H       
  21 H21           -0.4054     4.1317     0.0268 H       
  22 H22           -2.5572     5.3224     0.0435 H       
  23 H23           -4.6680     4.0587     0.0467 H       
  24 H24           -4.6403     1.5987     0.0332 H       
  25 H25           -2.4994     0.3883     0.0057 H       
  26 H26            3.3509    -2.2717    -0.0425 H       
  27 H27           -0.8999    -4.7869    -0.0160 H       
  28 H28           -0.9432    -2.3295     0.0088 H       
@<TRIPOS>BOND
   1    1    2 1
   2    1    4 2
   3    1    5 1
   4    2    3 2
   5    2   19 1
   6    3   11 1
   7    3   20 1
   8    5    6 ar
   9    5   10 ar
  10    6    7 ar
  11    6   21 1
  12    7    8 ar
  13    7   22 1
  14    8    9 ar
  15    8   23 1
  16    9   10 ar
  17    9   24 1
  18   10   25 1
  19   11   12 ar
  20   11   16 ar
  21   12   13 ar
  22   12   26 1
  23   13   14 ar
  24   13   17 1
  25   14   15 ar
  26   14   18 1
  27   15   16 ar
  28   15   27 1
  29   16   28 1

#	End of record

