#	Name: ASD02030255
#	Creating user name:	WinNT
#	Creation time:	15. 06. 2019 20:14

#	Modifying user name:	WinNT
#	Modification time:	15. 06. 2019 20:14

#	Program:	/corina/corina34_cracker 3.40 0067  02.08.2006

@<TRIPOS>MOLECULE
ASD02030255
  46   49    0    0    0
SMALL
NO_CHARGES


@<TRIPOS>ATOM
   1 N1            -0.0963     1.8251     0.1254 N.am    
   2 C2             0.1703     0.3993    -0.1109 C.3     
   3 C3            -0.5840    -0.4214     0.9425 C.3     
   4 N4            -1.9785     0.0404     0.9876 N.am    
   5 C5            -2.2451     1.4662     1.2239 C.3     
   6 C6            -1.4909     2.2860     0.1760 C.3     
   7 C7             0.9198     2.6935     0.2982 C.2     
   8 C8             2.3118     2.1996     0.3597 C.2     
   9 N9             3.3763     2.9191     0.6428 N.2     
  10 N10            2.7128     0.9337     0.1418 N.2     
  11 C11            4.0127     0.9063     0.2908 C.2     
  12 N12            4.4135     2.1555     0.6041 N.pl3   
  13 C13            5.7346     2.5554     0.8465 C.ar    
  14 O14            0.6916     3.8829     0.4034 O.2     
  15 C15           -2.9946    -0.8280     0.8148 C.2     
  16 C16           -2.7149    -2.2212     0.4564 C.2     
  17 O17           -4.1445    -0.4551     0.9564 O.2     
  18 C18            6.0141     3.8782     1.1610 C.ar    
  19 C19            7.3185     4.2694     1.3996 C.ar    
  20 C20            8.3442     3.3436     1.3245 C.ar    
  21 C21            8.0678     2.0255     1.0108 C.ar    
  22 C22            6.7659     1.6278     0.7781 C.ar    
  23 Cl23           7.6699     5.9234     1.7930 Cl      
  24 C24           -3.7467     1.7344     1.1051 C.3     
  25 C25           -3.6441    -3.1677     0.1294 C.2     
  26 C26           -2.9386    -4.3504    -0.1398 C.2     
  27 C27           -1.6240    -4.0778     0.0326 C.2     
  28 O28           -1.4940    -2.7919     0.3862 O.3     
  29 Br29          -3.6841    -6.0123    -0.6479 Br      
  30 Br30          -0.2049    -5.3066    -0.1953 Br      
  31 H31           -0.1757     0.1226    -1.1068 H       
  32 H32            1.2401     0.2083    -0.0263 H       
  33 H33           -0.5568    -1.4770     0.6721 H       
  34 H34           -0.1198    -0.2791     1.9184 H       
  35 H35           -1.8992     1.7429     2.2198 H       
  36 H36           -1.5189     3.3413     0.4476 H       
  37 H37           -1.9530     2.1448    -0.8010 H       
  38 H38            4.6488     0.0399     0.1853 H       
  39 H39            5.2137     4.6009     1.2190 H       
  40 H40            9.3626     3.6512     1.5108 H       
  41 H41            8.8704     1.3053     0.9522 H       
  42 H42            6.5510     0.5980     0.5336 H       
  43 H43           -4.2709     1.2321     1.9182 H       
  44 H44           -3.9299     2.8074     1.1628 H       
  45 H45           -4.1092     1.3548     0.1499 H       
  46 H46           -4.7147    -3.0320     0.0867 H       
@<TRIPOS>BOND
   1    1    2 1
   2    1    7 am
   3    1    6 1
   4    2    3 1
   5    2   31 1
   6    2   32 1
   7    3    4 1
   8    3   33 1
   9    3   34 1
  10    4    5 1
  11    4   15 am
  12    5    6 1
  13    5   24 1
  14    5   35 1
  15    6   36 1
  16    6   37 1
  17    7    8 1
  18    7   14 2
  19    8    9 2
  20    8   10 1
  21    9   12 1
  22   10   11 2
  23   11   12 1
  24   11   38 1
  25   12   13 1
  26   13   18 ar
  27   13   22 ar
  28   15   16 1
  29   15   17 2
  30   16   25 2
  31   16   28 1
  32   18   19 ar
  33   18   39 1
  34   19   20 ar
  35   19   23 1
  36   20   21 ar
  37   20   40 1
  38   21   22 ar
  39   21   41 1
  40   22   42 1
  41   24   43 1
  42   24   44 1
  43   24   45 1
  44   25   26 1
  45   25   46 1
  46   26   27 2
  47   26   29 1
  48   27   28 1
  49   27   30 1

#	End of record

