#	Name: ASD03240610
#	Creating user name:	WinNT
#	Creation time:	15. 06. 2019 20:35

#	Modifying user name:	WinNT
#	Modification time:	15. 06. 2019 20:35

#	Program:	/corina/corina34_cracker 3.40 0067  02.08.2006

@<TRIPOS>MOLECULE
ASD03240610
  67   73    0    0    0
SMALL
NO_CHARGES


@<TRIPOS>ATOM
   1 C1            -0.5783     2.3040    -0.0126 C.ar    
   2 C2            -0.7119     0.9414     0.1570 C.ar    
   3 N3             0.3450     0.1719     0.3357 N.ar    
   4 C4             1.5754     0.6661     0.3613 C.ar    
   5 C5             1.7852     2.0320     0.1822 C.ar    
   6 C6             0.6910     2.8673    -0.0014 C.ar    
   7 N7             2.6464    -0.1934     0.5895 N.pl3   
   8 C8             3.4441    -0.0490     1.7213 C.ar    
   9 C9             4.1853     1.1200     1.9244 C.ar    
  10 C10            4.1514     2.2058     0.9200 C.2     
  11 N11            3.0765     2.5782     0.1660 N.pl3   
  12 C12            3.5050    -1.0705     2.6598 C.ar    
  13 C13            4.2852    -0.9252     3.7910 C.ar    
  14 C14            5.0099     0.2358     3.9987 C.ar    
  15 C15            4.9644     1.2585     3.0727 C.ar    
  16 N16            5.1763     2.9748     0.6117 N.2     
  17 C17            4.8148     3.8522    -0.3371 C.2     
  18 C18            3.4847     3.6215    -0.6405 C.2     
  19 C19            2.6651     4.3466    -1.6305 C.ar    
  20 C20            2.7111     5.7415    -1.6931 C.ar    
  21 C21            1.8438     3.6411    -2.5135 C.ar    
  22 C22            1.0809     4.3254    -3.4365 C.ar    
  23 C23            1.1278     5.7074    -3.4895 C.ar    
  24 C24            1.9427     6.4125    -2.6213 C.ar    
  25 C25            5.6844     4.8830    -0.9504 C.ar    
  26 C26            0.2920     6.4478    -4.5015 C.3     
  27 C27            6.6578     5.5216    -0.1847 C.ar    
  28 C28            7.4685     6.4850    -0.7653 C.ar    
  29 C29            7.3087     6.8108    -2.1066 C.ar    
  30 C30            6.3425     6.1774    -2.8657 C.ar    
  31 C31            5.5349     5.2131    -2.2977 C.ar    
  32 N32           -0.8102     5.6360    -5.0346 N.3     
  33 C33           -0.1431     7.8473    -4.0356 C.3     
  34 C34            0.1317     8.3246    -5.4714 C.3     
  35 C35            1.1212     7.1532    -5.5876 C.3     
  36 N36            8.4473     7.1294    -0.0004 N.am    
  37 C37            9.1108     6.4500     0.9560 C.2     
  38 C38           10.2362     7.1126     1.7078 C.3     
  39 O39            8.8020     5.3053     1.2116 O.2     
  40 H40           -1.4503     2.9248    -0.1568 H       
  41 H41           -1.6966     0.4978     0.1436 H       
  42 H42            0.8242     3.9309    -0.1333 H       
  43 H43            2.8386    -0.9003    -0.0463 H       
  44 H44            2.9418    -1.9790     2.5058 H       
  45 H45            4.3297    -1.7226     4.5180 H       
  46 H46            5.6128     0.3419     4.8884 H       
  47 H47            5.5309     2.1632     3.2370 H       
  48 H48            3.3466     6.2930    -1.0161 H       
  49 H49            1.8068     2.5624    -2.4736 H       
  50 H50            0.4456     3.7813    -4.1197 H       
  51 H51            1.9741     7.4910    -2.6680 H       
  52 H52            6.7803     5.2672     0.8577 H       
  53 H53            7.9410     7.5615    -2.5573 H       
  54 H54            6.2221     6.4350    -3.9076 H       
  55 H55            4.7812     4.7204    -2.8940 H       
  56 H56           -0.4774     4.7375    -5.3508 H       
  57 H57           -1.5444     5.5294    -4.3507 H       
  58 H58           -1.1933     7.9053    -3.7496 H       
  59 H59            0.5235     8.2874    -3.2940 H       
  60 H60           -0.7297     8.2359    -6.1334 H       
  61 H61            0.6068     9.3043    -5.5224 H       
  62 H62            2.1335     7.4037    -5.2703 H       
  63 H63            1.0916     6.6510    -6.5546 H       
  64 H64            8.6482     8.0651    -0.1585 H       
  65 H65            9.8389     7.6098     2.5927 H       
  66 H66           10.9641     6.3597     2.0102 H       
  67 H67           10.7198     7.8477     1.0644 H       
@<TRIPOS>BOND
   1    1    2 ar
   2    1    6 ar
   3    1   40 1
   4    2    3 ar
   5    2   41 1
   6    3    4 ar
   7    4    5 ar
   8    4    7 1
   9    5    6 ar
  10    5   11 1
  11    6   42 1
  12    7    8 1
  13    7   43 1
  14    8    9 ar
  15    8   12 ar
  16    9   10 1
  17    9   15 ar
  18   10   11 1
  19   10   16 2
  20   11   18 1
  21   12   13 ar
  22   12   44 1
  23   13   14 ar
  24   13   45 1
  25   14   15 ar
  26   14   46 1
  27   15   47 1
  28   16   17 1
  29   17   18 2
  30   17   25 1
  31   18   19 1
  32   19   20 ar
  33   19   21 ar
  34   20   24 ar
  35   20   48 1
  36   21   22 ar
  37   21   49 1
  38   22   23 ar
  39   22   50 1
  40   23   24 ar
  41   23   26 1
  42   24   51 1
  43   25   27 ar
  44   25   31 ar
  45   26   33 1
  46   26   32 1
  47   26   35 1
  48   27   28 ar
  49   27   52 1
  50   28   29 ar
  51   28   36 1
  52   29   30 ar
  53   29   53 1
  54   30   31 ar
  55   30   54 1
  56   31   55 1
  57   32   56 1
  58   32   57 1
  59   33   34 1
  60   33   58 1
  61   33   59 1
  62   34   35 1
  63   34   60 1
  64   34   61 1
  65   35   62 1
  66   35   63 1
  67   36   37 am
  68   36   64 1
  69   37   38 1
  70   37   39 2
  71   38   65 1
  72   38   66 1
  73   38   67 1

#	End of record

