#	Name: ASD05430633
#	Creating user name:	WinNT
#	Creation time:	15. 06. 2019 21:00

#	Modifying user name:	WinNT
#	Modification time:	15. 06. 2019 21:00

#	Program:	/corina/corina34_cracker 3.40 0067  02.08.2006

@<TRIPOS>MOLECULE
ASD05430633
  33   35    0    0    0
SMALL
NO_CHARGES


@<TRIPOS>ATOM
   1 C1            -0.0168     1.3875     0.0097 C.ar    
   2 C2             0.0021    -0.0041     0.0020 C.ar    
   3 C3             1.2138    -0.6750    -0.0132 C.ar    
   4 C4             2.4064     0.0310    -0.0203 C.ar    
   5 C5             2.4031     1.4084    -0.0124 C.ar    
   6 C6             1.1903     2.1006     0.0020 C.ar    
   7 C7             3.7054     2.1667    -0.0193 C.3     
   8 C8             4.5197     1.7929     1.2209 C.3     
   9 C9             4.4982     1.8072    -1.2775 C.3     
  10 N10           -1.2016    -0.7246     0.0101 N.pl3   
  11 C11           -2.2466    -0.5410     0.8579 C.2     
  12 C12           -1.5475    -1.7428    -0.8400 C.2     
  13 C13           -2.7811    -2.1475    -0.4823 C.2     
  14 N14           -3.1833    -1.3982     0.5548 N.2     
  15 C15           -3.5741    -3.2494    -1.1365 C.3     
  16 N16            0.8601     3.4205     0.0116 N.2     
  17 C17           -0.4346     3.5282     0.0230 C.2     
  18 O18           -1.0023     2.3120     0.0187 O.3     
  19 H19            1.2293    -1.7549    -0.0191 H       
  20 H20            3.3452    -0.5027    -0.0318 H       
  21 H21            3.5023     3.2376    -0.0114 H       
  22 H22            3.9549     2.0490     2.1172 H       
  23 H23            4.7228     0.7220     1.2130 H       
  24 H24            5.4617     2.3414     1.2159 H       
  25 H25            3.9181     2.0735    -2.1610 H       
  26 H26            5.4402     2.3557    -1.2825 H       
  27 H27            4.7013     0.7363    -1.2853 H       
  28 H28           -2.2945     0.1913     1.6503 H       
  29 H29           -0.9463    -2.1432    -1.6428 H       
  30 H30           -3.3534    -4.1970    -0.6450 H       
  31 H31           -4.6387    -3.0332    -1.0473 H       
  32 H32           -3.3038    -3.3151    -2.1904 H       
  33 H33           -0.9763     4.4624     0.0324 H       
@<TRIPOS>BOND
   1    1    2 ar
   2    1    6 ar
   3    1   18 1
   4    2    3 ar
   5    2   10 1
   6    3    4 ar
   7    3   19 1
   8    4    5 ar
   9    4   20 1
  10    5    6 ar
  11    5    7 1
  12    6   16 1
  13    7    8 1
  14    7    9 1
  15    7   21 1
  16    8   22 1
  17    8   23 1
  18    8   24 1
  19    9   25 1
  20    9   26 1
  21    9   27 1
  22   10   11 1
  23   10   12 1
  24   11   14 2
  25   11   28 1
  26   12   13 2
  27   12   29 1
  28   13   14 1
  29   13   15 1
  30   15   30 1
  31   15   31 1
  32   15   32 1
  33   16   17 2
  34   17   18 1
  35   17   33 1

#	End of record

