#	Name: ASD03090728
#	Creating user name:	WinNT
#	Creation time:	15. 06. 2019 20:29

#	Modifying user name:	WinNT
#	Modification time:	15. 06. 2019 20:29

#	Program:	/corina/corina34_cracker 3.40 0067  02.08.2006

@<TRIPOS>MOLECULE
ASD03090728
  42   44    0    0    0
SMALL
NO_CHARGES


@<TRIPOS>ATOM
   1 N1            -0.1766     1.3451    -0.5681 N.am    
   2 C2            -0.1679    -0.0024    -0.5927 C.2     
   3 O3             0.7312    -0.5943    -1.1580 O.2     
   4 N4            -1.1558    -0.6938     0.0094 N.am    
   5 C5            -1.1931    -2.0934    -0.0881 C.ar    
   6 C6            -2.4055    -2.7688     0.0336 C.ar    
   7 C7            -2.4390    -4.1498    -0.0630 C.ar    
   8 C8            -1.2660    -4.8577    -0.2807 C.ar    
   9 C9            -0.0600    -4.1838    -0.4011 C.ar    
  10 C10           -0.0243    -2.8048    -0.3113 C.ar    
  11 C11            1.2128    -4.9556    -0.6366 C.3     
  12 O12           -1.2988    -6.2137    -0.3755 O.3     
  13 C13           -2.5748    -6.8428    -0.2414 C.3     
  14 O14           -3.5541    -2.0731     0.2474 O.3     
  15 C15           -4.7599    -2.8312     0.3621 C.3     
  16 O16            1.9641     3.6825    -1.8598 O.3     
  17 N17            0.9711     3.3605    -1.2497 N.2     
  18 C18            0.8458     2.0606    -1.1911 C.2     
  19 C19            1.9600     1.5231    -1.8889 C.2     
  20 C20            2.6462     2.6144    -2.2978 C.2     
  21 C21            3.9271     2.6274    -3.0916 C.3     
  22 C22            3.9079     3.3268    -4.4523 C.3     
  23 C23            4.6337     3.9727    -3.2704 C.3     
  24 H24           -0.8960     1.8174    -0.1205 H       
  25 H25           -1.8411    -0.2240     0.5100 H       
  26 H26           -3.3777    -4.6754     0.0314 H       
  27 H27            0.9154    -2.2817    -0.4102 H       
  28 H28            1.3768    -5.0675    -1.7083 H       
  29 H29            2.0513    -4.4170    -0.1950 H       
  30 H30            1.1309    -5.9404    -0.1767 H       
  31 H31           -2.4595    -7.9224    -0.3370 H       
  32 H32           -2.9950    -6.6074     0.7364 H       
  33 H33           -3.2433    -6.4784    -1.0214 H       
  34 H34           -5.5989    -2.1561     0.5306 H       
  35 H35           -4.9247    -3.3932    -0.5573 H       
  36 H36           -4.6760    -3.5227     1.2005 H       
  37 H37            2.2027     0.4839    -2.0547 H       
  38 H38            4.5518     1.7400    -2.9906 H       
  39 H39            4.5203     2.8996    -5.2464 H       
  40 H40            2.9688     3.7774    -4.7733 H       
  41 H41            4.1721     4.8482    -2.8139 H       
  42 H42            5.7236     3.9704    -3.2869 H       
@<TRIPOS>BOND
   1    1    2 am
   2    1   18 1
   3    1   24 1
   4    2    3 2
   5    2    4 am
   6    4    5 1
   7    4   25 1
   8    5    6 ar
   9    5   10 ar
  10    6    7 ar
  11    6   14 1
  12    7    8 ar
  13    7   26 1
  14    8    9 ar
  15    8   12 1
  16    9   10 ar
  17    9   11 1
  18   10   27 1
  19   11   28 1
  20   11   29 1
  21   11   30 1
  22   12   13 1
  23   13   31 1
  24   13   32 1
  25   13   33 1
  26   14   15 1
  27   15   34 1
  28   15   35 1
  29   15   36 1
  30   16   17 1
  31   16   20 1
  32   17   18 2
  33   18   19 1
  34   19   20 2
  35   19   37 1
  36   20   21 1
  37   21   22 1
  38   21   23 1
  39   21   38 1
  40   22   23 1
  41   22   39 1
  42   22   40 1
  43   23   41 1
  44   23   42 1

#	End of record

