#	Name: ASD01910506
#	Creating user name:	WinNT
#	Creation time:	15. 06. 2019 19:56

#	Modifying user name:	WinNT
#	Modification time:	15. 06. 2019 19:56

#	Program:	/corina/corina34_cracker 3.40 0067  02.08.2006

@<TRIPOS>MOLECULE
ASD01910506
  42   45    0    0    0
SMALL
NO_CHARGES


@<TRIPOS>ATOM
   1 O1             0.0357     1.1061     0.1169 O.3     
   2 C2             0.0395    -0.2260    -0.0599 C.2     
   3 N3             1.3100    -0.5913    -0.1503 N.2     
   4 C4             2.0185     0.5403    -0.0236 C.2     
   5 N5             1.1760     1.5188     0.1340 N.2     
   6 C6            -1.1345    -1.1049    -0.1374 C.2     
   7 C7            -2.4416    -0.7144    -0.0424 C.2     
   8 C8            -3.2296    -1.8649    -0.1691 C.2     
   9 C9            -2.3977    -2.9193    -0.3364 C.2     
  10 N10           -1.1165    -2.4669    -0.3242 N.pl3   
  11 C11            3.9364     1.5747    -1.2115 C.3     
  12 C12            3.5206     0.6572    -0.0572 C.3     
  13 C13            4.0165     1.2495     1.2639 C.3     
  14 C14            5.5442     1.3382     1.2436 C.3     
  15 C15            5.9829     2.2633     0.1041 C.3     
  16 N16            5.3897     1.7819    -1.1509 N.am    
  17 C17            6.1639     1.5351    -2.2261 C.2     
  18 C18            7.6023     1.8700    -2.1931 C.ar    
  19 O19            5.6785     1.0368    -3.2232 O.2     
  20 C20            8.0287     3.0721    -1.6253 C.ar    
  21 C21            9.3722     3.3809    -1.5966 C.ar    
  22 C22           10.3001     2.5010    -2.1304 C.ar    
  23 C23            9.8827     1.3038    -2.6971 C.ar    
  24 C24            8.5407     0.9825    -2.7247 C.ar    
  25 F25           11.6152     2.8091    -2.0998 F       
  26 F26           10.7918     0.4500    -3.2165 F       
  27 H27           -2.7996     0.2940     0.1035 H       
  28 H28           -4.3085    -1.9039    -0.1387 H       
  29 H29           -2.7017    -3.9479    -0.4628 H       
  30 H30           -0.3219    -3.0142    -0.4243 H       
  31 H31            3.6729     1.1092    -2.1612 H       
  32 H32            3.4263     2.5334    -1.1181 H       
  33 H33            3.9593    -0.3302    -0.2012 H       
  34 H34            3.5966     2.2468     1.3951 H       
  35 H35            3.7008     0.6114     2.0892 H       
  36 H36            5.8981     1.7383     2.1937 H       
  37 H37            5.9643     0.3446     1.0877 H       
  38 H38            5.6398     3.2783     0.3047 H       
  39 H39            7.0698     2.2523     0.0223 H       
  40 H40            7.3070     3.7595    -1.2094 H       
  41 H41            9.7021     4.3108    -1.1573 H       
  42 H42            8.2161     0.0514    -3.1651 H       
@<TRIPOS>BOND
   1    1    2 1
   2    1    5 1
   3    2    3 2
   4    2    6 1
   5    3    4 1
   6    4    5 2
   7    4   12 1
   8    6    7 2
   9    6   10 1
  10    7    8 1
  11    7   27 1
  12    8    9 2
  13    8   28 1
  14    9   10 1
  15    9   29 1
  16   10   30 1
  17   11   12 1
  18   11   16 1
  19   11   31 1
  20   11   32 1
  21   12   13 1
  22   12   33 1
  23   13   14 1
  24   13   34 1
  25   13   35 1
  26   14   15 1
  27   14   36 1
  28   14   37 1
  29   15   16 1
  30   15   38 1
  31   15   39 1
  32   16   17 am
  33   17   18 1
  34   17   19 2
  35   18   20 ar
  36   18   24 ar
  37   20   21 ar
  38   20   40 1
  39   21   22 ar
  40   21   41 1
  41   22   23 ar
  42   22   25 1
  43   23   24 ar
  44   23   26 1
  45   24   42 1

#	End of record

