#	Name: ASD03540566
#	Creating user name:	WinNT
#	Creation time:	15. 06. 2019 20:43

#	Modifying user name:	WinNT
#	Modification time:	15. 06. 2019 20:43

#	Program:	/corina/corina34_cracker 3.40 0067  02.08.2006

@<TRIPOS>MOLECULE
ASD03540566
  77   81    0    0    0
SMALL
NO_CHARGES


@<TRIPOS>ATOM
   1 C1            -0.1355     1.6509    -0.0886 C.3     
   2 C2             1.3526     1.5300    -0.4233 C.3     
   3 C3             0.4798     2.5399    -1.1711 C.3     
   4 C4            -1.0426     0.5344    -0.5376 C.2     
   5 O5            -0.5868    -0.4099    -1.1380 O.2     
   6 O6            -2.3569     0.5889    -0.2706 O.3     
   7 C7            -0.5038     2.3015     1.2199 C.ar    
   8 C8            -1.8330     2.4375     1.5742 C.ar    
   9 C9            -2.1709     3.0343     2.7744 C.ar    
  10 C10           -1.1795     3.4949     3.6205 C.ar    
  11 C11            0.1498     3.3581     3.2666 C.ar    
  12 C12            0.4878     2.7573     2.0684 C.ar    
  13 C13           -1.5478     4.1465     4.9285 C.3     
  14 N14           -4.9470     3.6854     6.2718 N.am    
  15 C15           -3.8243     4.2170     5.7592 C.2     
  16 N16           -2.7314     3.4874     5.4861 N.am    
  17 C17           -2.7028     2.1565     5.7156 C.2     
  18 C18           -3.9081     1.5195     6.2773 C.ar    
  19 C19           -3.9574     0.1566     6.5410 C.ar    
  20 C20           -5.1236    -0.3931     7.0720 C.ar    
  21 C21           -6.2292     0.4253     7.3343 C.ar    
  22 C22           -6.1803     1.7658     7.0748 C.ar    
  23 C23           -5.0270     2.3312     6.5458 C.ar    
  24 O24           -1.7097     1.5012     5.4652 O.2     
  25 O25           -3.7973     5.4112     5.5333 O.2     
  26 C26           -0.3813     4.0155     5.9098 C.3     
  27 C27           -5.1930    -1.8400     7.3577 C.2     
  28 N28           -6.3198    -2.3723     7.8710 N.am    
  29 O29           -4.2337    -2.5514     7.1299 O.2     
  30 C30           -6.3887    -3.8079     8.1544 C.3     
  31 C31           -7.7454    -4.1442     8.7177 C.ar    
  32 C32           -8.7774    -4.4972     7.8679 C.ar    
  33 C33          -10.0220    -4.8059     8.3818 C.ar    
  34 C34          -10.2360    -4.7615     9.7518 C.ar    
  35 C35           -9.1989    -4.4070    10.6024 C.ar    
  36 C36           -7.9546    -4.1047    10.0839 C.ar    
  37 O37          -11.4596    -5.0643    10.2597 O.3     
  38 C38          -11.6072    -4.9976    11.6795 C.3     
  39 C39           -3.1702    -0.5214    -0.7332 C.3     
  40 C40           -2.6740    -1.8189    -0.0921 C.3     
  41 C41           -4.6294    -0.2835    -0.3395 C.3     
  42 C42           -3.0642    -0.6317    -2.2555 C.3     
  43 H43            2.0652     1.9212     0.3029 H       
  44 H44            1.6754     0.6430    -0.9683 H       
  45 H45            0.2285     2.3173    -2.2081 H       
  46 H46            0.6182     3.5954    -0.9369 H       
  47 H47           -2.6076     2.0777     0.9131 H       
  48 H48           -3.2094     3.1412     3.0508 H       
  49 H49            0.9244     3.7182     3.9275 H       
  50 H50            1.5264     2.6471     1.7936 H       
  51 H51           -1.7646     5.2014     4.7605 H       
  52 H52           -5.7085     4.2576     6.4549 H       
  53 H53           -3.1021    -0.4704     6.3366 H       
  54 H54           -7.1293    -0.0074     7.7453 H       
  55 H55           -7.0396     2.3867     7.2810 H       
  56 H56           -0.1644     2.9606     6.0778 H       
  57 H57            0.4993     4.5059     5.4949 H       
  58 H58           -0.6477     4.4868     6.8558 H       
  59 H59           -7.0852    -1.8047     8.0527 H       
  60 H60           -6.2287    -4.3682     7.2332 H       
  61 H61           -5.6187    -4.0726     8.8790 H       
  62 H62           -8.6104    -4.5313     6.8014 H       
  63 H63          -10.8278    -5.0812     7.7176 H       
  64 H64           -9.3630    -4.3716    11.6692 H       
  65 H65           -7.1456    -3.8333    10.7459 H       
  66 H66          -10.9140    -5.6949    12.1501 H       
  67 H67          -11.3911    -3.9850    12.0201 H       
  68 H68          -12.6291    -5.2621    11.9514 H       
  69 H69           -2.7495    -1.7403     0.9925 H       
  70 H70           -3.2845    -2.6524    -0.4393 H       
  71 H71           -1.6344    -1.9884    -0.3725 H       
  72 H72           -4.9829     0.6408    -0.7963 H       
  73 H73           -5.2399    -1.1171    -0.6868 H       
  74 H74           -4.7049    -0.2049     0.7450 H       
  75 H75           -2.0246    -0.8012    -2.5360 H       
  76 H76           -3.6747    -1.4653    -2.6028 H       
  77 H77           -3.4177     0.2926    -2.7123 H       
@<TRIPOS>BOND
   1    1    2 1
   2    1    3 1
   3    1    4 1
   4    1    7 1
   5    2    3 1
   6    2   43 1
   7    2   44 1
   8    3   45 1
   9    3   46 1
  10    4    5 2
  11    4    6 1
  12    6   39 1
  13    7    8 ar
  14    7   12 ar
  15    8    9 ar
  16    8   47 1
  17    9   10 ar
  18    9   48 1
  19   10   11 ar
  20   10   13 1
  21   11   12 ar
  22   11   49 1
  23   12   50 1
  24   13   16 1
  25   13   26 1
  26   13   51 1
  27   14   15 am
  28   14   23 1
  29   14   52 1
  30   15   16 am
  31   15   25 2
  32   16   17 am
  33   17   18 1
  34   17   24 2
  35   18   19 ar
  36   18   23 ar
  37   19   20 ar
  38   19   53 1
  39   20   21 ar
  40   20   27 1
  41   21   22 ar
  42   21   54 1
  43   22   23 ar
  44   22   55 1
  45   26   56 1
  46   26   57 1
  47   26   58 1
  48   27   28 am
  49   27   29 2
  50   28   30 1
  51   28   59 1
  52   30   31 1
  53   30   60 1
  54   30   61 1
  55   31   32 ar
  56   31   36 ar
  57   32   33 ar
  58   32   62 1
  59   33   34 ar
  60   33   63 1
  61   34   35 ar
  62   34   37 1
  63   35   36 ar
  64   35   64 1
  65   36   65 1
  66   37   38 1
  67   38   66 1
  68   38   67 1
  69   38   68 1
  70   39   40 1
  71   39   42 1
  72   39   41 1
  73   40   69 1
  74   40   70 1
  75   40   71 1
  76   41   72 1
  77   41   73 1
  78   41   74 1
  79   42   75 1
  80   42   76 1
  81   42   77 1

#	End of record

