#	Name: ASD04882046
#	Creating user name:	WinNT
#	Creation time:	15. 06. 2019 20:53

#	Modifying user name:	WinNT
#	Modification time:	15. 06. 2019 20:53

#	Program:	/corina/corina34_cracker 3.40 0067  02.08.2006

@<TRIPOS>MOLECULE
ASD04882046
  81   85    0    0    0
SMALL
NO_CHARGES


@<TRIPOS>ATOM
   1 C1             1.5176     1.4364     1.7945 C.ar    
   2 C2             1.4798     0.0563     1.8137 C.ar    
   3 C3             2.6607    -0.6681     1.9184 C.ar    
   4 C4             3.8758    -0.0007     2.0035 C.ar    
   5 C5             3.9065     1.3801     1.9837 C.ar    
   6 C6             2.7293     2.0978     1.8795 C.ar    
   7 C7             5.1593    -0.7822     2.1177 C.3     
   8 N8             2.6261    -2.0642     1.9386 N.3     
   9 C9             3.2416    -2.6239     0.7271 C.3     
  10 C10            3.2554    -4.1512     0.8241 C.3     
  11 N11            1.8796    -4.6416     0.9870 N.3     
  12 C12            1.2641    -4.0820     2.1985 C.3     
  13 C13            1.2503    -2.5546     2.1015 C.3     
  14 C14            1.8451    -6.0335     1.0071 C.ar    
  15 C15            2.1826    -6.7566    -0.1403 C.ar    
  16 C16            2.1486    -8.1381    -0.1200 C.ar    
  17 C17            1.7766    -8.8078     1.0491 C.ar    
  18 C18            1.4402    -8.0785     2.1930 C.ar    
  19 C19            1.4804    -6.7021     2.1702 C.ar    
  20 C20            1.7384   -10.2823     1.0754 C.2     
  21 N21            1.3795   -10.9271     2.2031 N.am    
  22 O22            2.0308   -10.9159     0.0796 O.2     
  23 C23            1.3416   -12.3914     2.2292 C.3     
  24 C24            0.9064   -12.8657     3.6173 C.3     
  25 C25            0.8668   -14.3949     3.6445 C.3     
  26 N26            0.4501   -14.8490     4.9736 N.am    
  27 C27           -0.9437   -15.0820     5.3697 C.3     
  28 C28           -0.9335   -15.1133     6.9142 C.3     
  29 C29            0.5218   -15.5434     7.2112 C.3     
  30 C30            1.2956   -15.1112     5.9851 C.2     
  31 O31            2.5027   -15.0091     5.9258 O.2     
  32 N32            2.5546    -6.0815    -1.3104 N.am    
  33 C33            3.3598    -6.6829    -2.2083 C.2     
  34 O34            3.6997    -7.8386    -2.0421 O.2     
  35 C35            3.8287    -5.9393    -3.3929 C.ar    
  36 C36            3.4407    -4.6118    -3.5879 C.ar    
  37 C37            4.6710    -6.5592    -4.3265 C.ar    
  38 C38            5.1056    -5.8507    -5.4363 C.ar    
  39 C39            4.7098    -4.5404    -5.6198 C.ar    
  40 C40            3.8823    -3.9226    -4.6968 C.ar    
  41 O41            5.0594    -7.8462    -4.1447 O.3     
  42 C42            5.9180    -8.4111    -5.1375 C.3     
  43 H43            0.6003     2.0000     1.7086 H       
  44 H44            0.5332    -0.4596     1.7477 H       
  45 H45            4.8510     1.8996     2.0498 H       
  46 H46            2.7561     3.1774     1.8639 H       
  47 H47            5.5091    -1.0539     1.1217 H       
  48 H48            5.9137    -0.1714     2.6137 H       
  49 H49            4.9835    -1.6865     2.7003 H       
  50 H50            2.6655    -2.3202    -0.1470 H       
  51 H51            4.2635    -2.2561     0.6353 H       
  52 H52            3.6851    -4.5695    -0.0861 H       
  53 H53            3.8540    -4.4557     1.6825 H       
  54 H54            0.2422    -4.4498     2.2903 H       
  55 H55            1.8402    -4.3857     3.0726 H       
  56 H56            0.8206    -2.1363     3.0117 H       
  57 H57            0.6517    -2.2501     1.2430 H       
  58 H58            2.4087    -8.6989    -1.0055 H       
  59 H59            1.1523    -8.5949     3.0968 H       
  60 H60            1.2202    -6.1407     3.0553 H       
  61 H61            1.1463   -10.4217     2.9975 H       
  62 H62            0.6318   -12.7499     1.4837 H       
  63 H63            2.3333   -12.7846     2.0053 H       
  64 H64            1.6162   -12.5072     4.3628 H       
  65 H65           -0.0853   -12.4725     3.8412 H       
  66 H66            0.1570   -14.7533     2.8990 H       
  67 H67            1.8585   -14.7881     3.4206 H       
  68 H68           -1.5779   -14.2705     5.0131 H       
  69 H69           -1.2934   -16.0362     4.9755 H       
  70 H70           -1.1400   -14.1253     7.3257 H       
  71 H71           -1.6428   -15.8486     7.2942 H       
  72 H72            0.8958   -15.0356     8.1003 H       
  73 H73            0.5825   -16.6247     7.3344 H       
  74 H74            2.2326    -5.1812    -1.4741 H       
  75 H75            2.7954    -4.1261    -2.8709 H       
  76 H76            5.7549    -6.3240    -6.1580 H       
  77 H77            5.0513    -3.9927    -6.4857 H       
  78 H78            3.5779    -2.8976    -4.8491 H       
  79 H79            6.1519    -9.4420    -4.8716 H       
  80 H80            5.4173    -8.3902    -6.1055 H       
  81 H81            6.8398    -7.8320    -5.1927 H       
@<TRIPOS>BOND
   1    1    2 ar
   2    1    6 ar
   3    1   43 1
   4    2    3 ar
   5    2   44 1
   6    3    4 ar
   7    3    8 1
   8    4    5 ar
   9    4    7 1
  10    5    6 ar
  11    5   45 1
  12    6   46 1
  13    7   47 1
  14    7   48 1
  15    7   49 1
  16    8    9 1
  17    8   13 1
  18    9   10 1
  19    9   50 1
  20    9   51 1
  21   10   11 1
  22   10   52 1
  23   10   53 1
  24   11   12 1
  25   11   14 1
  26   12   13 1
  27   12   54 1
  28   12   55 1
  29   13   56 1
  30   13   57 1
  31   14   15 ar
  32   14   19 ar
  33   15   16 ar
  34   15   32 1
  35   16   17 ar
  36   16   58 1
  37   17   18 ar
  38   17   20 1
  39   18   19 ar
  40   18   59 1
  41   19   60 1
  42   20   21 am
  43   20   22 2
  44   21   23 1
  45   21   61 1
  46   23   24 1
  47   23   62 1
  48   23   63 1
  49   24   25 1
  50   24   64 1
  51   24   65 1
  52   25   26 1
  53   25   66 1
  54   25   67 1
  55   26   27 1
  56   26   30 am
  57   27   28 1
  58   27   68 1
  59   27   69 1
  60   28   29 1
  61   28   70 1
  62   28   71 1
  63   29   30 1
  64   29   72 1
  65   29   73 1
  66   30   31 2
  67   32   33 am
  68   32   74 1
  69   33   34 2
  70   33   35 1
  71   35   36 ar
  72   35   37 ar
  73   36   40 ar
  74   36   75 1
  75   37   38 ar
  76   37   41 1
  77   38   39 ar
  78   38   76 1
  79   39   40 ar
  80   39   77 1
  81   40   78 1
  82   41   42 1
  83   42   79 1
  84   42   80 1
  85   42   81 1

#	End of record

