#	Name: ASD02038515
#	Creating user name:	WinNT
#	Creation time:	15. 06. 2019 20:16

#	Modifying user name:	WinNT
#	Modification time:	15. 06. 2019 20:16

#	Program:	/corina/corina34_cracker 3.40 0067  02.08.2006

@<TRIPOS>MOLECULE
ASD02038515
  47   49    0    0    0
SMALL
NO_CHARGES


@<TRIPOS>ATOM
   1 Cl1            7.7885     3.7612     0.2993 Cl      
   2 C2             0.1494     1.1045    -0.6403 C.3     
   3 N3             0.0740    -0.1560     0.1104 N.3     
   4 C4            -1.3120    -0.6349     0.1972 C.3     
   5 C5            -2.1368     0.3403     1.0396 C.3     
   6 C6            -3.5804    -0.1585     1.1300 C.3     
   7 O7            -4.3765     0.8091     1.8170 O.3     
   8 C8            -5.6943     0.5181     1.9838 C.ar    
   9 C9            -6.5243     1.4134     2.6420 C.ar    
  10 C10           -6.2096    -0.6715     1.4909 C.ar    
  11 C11           -7.5482    -0.9672     1.6603 C.ar    
  12 C12           -8.3770    -0.0744     2.3235 C.ar    
  13 O13           -9.6947    -0.3657     2.4907 O.3     
  14 C14            0.6577     0.0157     1.4507 C.3     
  15 C15            2.1683     0.2106     1.3074 C.3     
  16 N16            2.4474     1.2474     0.3180 N.am    
  17 C17            3.7138     1.8436     0.3133 C.ar    
  18 C18            4.7377     1.2957    -0.4480 C.ar    
  19 C19            5.9864     1.8859    -0.4508 C.ar    
  20 C20            6.2177     3.0221     0.3046 C.ar    
  21 C21            5.1991     3.5699     1.0645 C.ar    
  22 C22            3.9468     2.9873     1.0656 C.ar    
  23 C23           -7.8629     1.1177     2.8115 C.ar    
  24 O24           -1.5791     0.4253     2.3525 O.3     
  25 C25            1.5472     1.6528    -0.5838 C.2     
  26 O26            1.8725     2.4988    -1.3898 O.2     
  27 H27           -0.1267     0.9239    -1.6792 H       
  28 H28           -0.5406     1.8270    -0.2044 H       
  29 H29           -1.7374    -0.6997    -0.8042 H       
  30 H30           -1.3275    -1.6203     0.6630 H       
  31 H31           -2.1213     1.3257     0.5738 H       
  32 H32           -3.9767    -0.3080     0.1257 H       
  33 H33           -3.6052    -1.1023     1.6747 H       
  34 H34           -6.1239     2.3415     3.0223 H       
  35 H35           -5.5643    -1.3665     0.9742 H       
  36 H36           -7.9495    -1.8933     1.2761 H       
  37 H37           -9.8906    -0.8476     3.3059 H       
  38 H38            0.2201     0.8912     1.9305 H       
  39 H39            0.4590    -0.8712     2.0523 H       
  40 H40            2.5876     0.5061     2.2691 H       
  41 H41            2.6250    -0.7262     0.9882 H       
  42 H42            4.5579     0.4086    -1.0372 H       
  43 H43            6.7830     1.4602    -1.0428 H       
  44 H44            5.3823     4.4564     1.6534 H       
  45 H45            3.1522     3.4154     1.6586 H       
  46 H46           -8.5082     1.8127     3.3282 H       
  47 H47           -1.5607    -0.4169     2.8273 H       
@<TRIPOS>BOND
   1    1   20 1
   2    2    3 1
   3    2   25 1
   4    2   27 1
   5    2   28 1
   6    3    4 1
   7    3   14 1
   8    4    5 1
   9    4   29 1
  10    4   30 1
  11    5    6 1
  12    5   24 1
  13    5   31 1
  14    6    7 1
  15    6   32 1
  16    6   33 1
  17    7    8 1
  18    8    9 ar
  19    8   10 ar
  20    9   23 ar
  21    9   34 1
  22   10   11 ar
  23   10   35 1
  24   11   12 ar
  25   11   36 1
  26   12   23 ar
  27   12   13 1
  28   13   37 1
  29   14   15 1
  30   14   38 1
  31   14   39 1
  32   15   16 1
  33   15   40 1
  34   15   41 1
  35   16   17 1
  36   16   25 am
  37   17   18 ar
  38   17   22 ar
  39   18   19 ar
  40   18   42 1
  41   19   20 ar
  42   19   43 1
  43   20   21 ar
  44   21   22 ar
  45   21   44 1
  46   22   45 1
  47   23   46 1
  48   24   47 1
  49   25   26 2

#	End of record

