#	Name: ASD03540293
#	Creating user name:	WinNT
#	Creation time:	15. 06. 2019 20:42

#	Modifying user name:	WinNT
#	Modification time:	15. 06. 2019 20:42

#	Program:	/corina/corina34_cracker 3.40 0067  02.08.2006

@<TRIPOS>MOLECULE
ASD03540293
  55   57    0    0    0
SMALL
NO_CHARGES


@<TRIPOS>ATOM
   1 C1            -0.0167     1.3831     0.0096 C.ar    
   2 C2             0.0021    -0.0041     0.0020 C.ar    
   3 C3             1.2141    -0.6789    -0.0132 C.ar    
   4 C4             2.3989     0.0314    -0.0207 C.ar    
   5 C5             2.3774     1.4139    -0.0126 C.ar    
   6 C6             1.1708     2.0889     0.0021 C.ar    
   7 O7            -1.1648    -0.7006     0.0099 O.3     
   8 C8            -1.0693    -2.1264     0.0013 C.3     
   9 C9             3.6714     2.1863    -0.0198 C.3     
  10 N10            4.0783     2.4445    -1.4033 N.am    
  11 C11            5.2138     3.1251    -1.6559 C.2     
  12 C12            5.6207     3.3833    -3.0392 C.2     
  13 O13            5.9013     3.5253    -0.7345 O.2     
  14 S14            4.7304     2.8683    -4.4606 S.3     
  15 C15            5.8815     3.5666    -5.5121 C.2     
  16 C16            6.9018     4.1669    -4.7842 C.2     
  17 C17            6.7266     4.0536    -3.4031 C.2     
  18 N18            5.9262     3.6092    -6.8943 N.am    
  19 C19            6.9317     4.2161    -7.5410 C.2     
  20 N20            7.9433     4.8120    -6.8894 N.am    
  21 C21            7.9889     4.8237    -5.5443 C.2     
  22 O22            8.9095     5.3662    -4.9620 O.2     
  23 O23            6.9277     4.2268    -8.7567 O.2     
  24 C24            4.8533     2.9781    -7.6669 C.3     
  25 C25            9.0130     5.4584    -7.6536 C.3     
  26 C26            8.6466     6.9223    -7.9058 C.3     
  27 C27            9.7638     7.5974    -8.7040 C.3     
  28 C28            9.3974     9.0613    -8.9562 C.3     
  29 C29           10.5146     9.7364    -9.7544 C.3     
  30 C30           10.1621    11.1449    -9.9970 C.1     
  31 N31            9.8901    12.2318   -10.1842 N.1     
  32 H32           -0.9590     1.9108     0.0170 H       
  33 H33            1.2314    -1.7588    -0.0188 H       
  34 H34            3.3426    -0.4935    -0.0325 H       
  35 H35            1.1567     3.1688     0.0084 H       
  36 H36           -2.0703    -2.5577     0.0089 H       
  37 H37           -0.5412    -2.4498    -0.8957 H       
  38 H38           -0.5235    -2.4593     0.8841 H       
  39 H39            3.5318     3.1338     0.5007 H       
  40 H40            4.4441     1.6055     0.4838 H       
  41 H41            3.5304     2.1257    -2.1375 H       
  42 H42            7.4251     4.4632    -2.6885 H       
  43 H43            4.0608     3.7041    -7.8483 H       
  44 H44            5.2497     2.6273    -8.6198 H       
  45 H45            4.4513     2.1334    -7.1075 H       
  46 H46            9.9439     5.4089    -7.0889 H       
  47 H47            9.1389     4.9459    -8.6074 H       
  48 H48            7.7156     6.9718    -8.4706 H       
  49 H49            8.5207     7.4348    -6.9521 H       
  50 H50           10.6947     7.5480    -8.1393 H       
  51 H51            9.8897     7.0849    -9.6577 H       
  52 H52            8.4664     9.1108    -9.5209 H       
  53 H53            9.2715     9.5738    -8.0025 H       
  54 H54           11.4455     9.6870    -9.1896 H       
  55 H55           10.6405     9.2239   -10.7081 H       
@<TRIPOS>BOND
   1    1    2 ar
   2    1    6 ar
   3    1   32 1
   4    2    3 ar
   5    2    7 1
   6    3    4 ar
   7    3   33 1
   8    4    5 ar
   9    4   34 1
  10    5    6 ar
  11    5    9 1
  12    6   35 1
  13    7    8 1
  14    8   36 1
  15    8   37 1
  16    8   38 1
  17    9   10 1
  18    9   39 1
  19    9   40 1
  20   10   11 am
  21   10   41 1
  22   11   12 1
  23   11   13 2
  24   12   14 1
  25   12   17 2
  26   14   15 1
  27   15   16 2
  28   15   18 1
  29   16   17 1
  30   16   21 1
  31   17   42 1
  32   18   19 am
  33   18   24 1
  34   19   20 am
  35   19   23 2
  36   20   21 am
  37   20   25 1
  38   21   22 2
  39   24   43 1
  40   24   44 1
  41   24   45 1
  42   25   26 1
  43   25   46 1
  44   25   47 1
  45   26   27 1
  46   26   48 1
  47   26   49 1
  48   27   28 1
  49   27   50 1
  50   27   51 1
  51   28   29 1
  52   28   52 1
  53   28   53 1
  54   29   30 1
  55   29   54 1
  56   29   55 1
  57   30   31 3

#	End of record

