#	Name: ASD09116076
#	Creating user name:	WinNT
#	Creation time:	15. 06. 2019 21:20

#	Modifying user name:	WinNT
#	Modification time:	15. 06. 2019 21:20

#	Program:	/corina/corina34_cracker 3.40 0067  02.08.2006

@<TRIPOS>MOLECULE
ASD09116076
  77   83    0    0    0
SMALL
NO_CHARGES


@<TRIPOS>ATOM
   1 C1             0.1080     1.3843    -1.1108 C.ar    
   2 N2             0.0806     0.0033    -0.9285 N.pl3   
   3 N3             1.1353    -0.8079    -0.4792 N.2     
   4 C4             0.6868    -2.0397    -0.4521 C.2     
   5 N5            -0.5884    -2.0517    -0.8580 N.2     
   6 C6            -0.9745    -0.8270    -1.1445 C.2     
   7 N7            -2.2259    -0.4525    -1.5942 N.pl3   
   8 N8             1.4217    -3.1591    -0.0629 N.pl3   
   9 C9             1.2791     2.1108    -0.8376 C.ar    
  10 N10           -0.9759     2.0169    -1.5383 N.ar    
  11 C11           -0.9606     3.3214    -1.7186 C.ar    
  12 N12            0.1231     4.0260    -1.4824 N.ar    
  13 C13            1.2455     3.4722    -1.0449 C.ar    
  14 C14            0.7975    -4.4093     0.0288 C.ar    
  15 C15            1.5265    -5.5682    -0.2042 C.ar    
  16 C16            0.9111    -6.8009    -0.1133 C.ar    
  17 C17           -0.4369    -6.8819     0.2107 C.ar    
  18 C18           -1.1658    -5.7231     0.4438 C.ar    
  19 C19           -0.5491    -4.4906     0.3585 C.ar    
  20 N20           -1.0609    -8.1314     0.3020 N.3     
  21 C21           -2.4802    -7.9868     0.6543 C.3     
  22 C22            2.4351     4.3530    -0.8120 C.3     
  23 C23            2.6291     4.7013     0.6555 C.3     
  24 C24            2.2575     3.5658     1.6022 C.3     
  25 C25            3.5193     2.7289     1.4475 C.3     
  26 C26            3.7501     1.9905     0.1349 C.3     
  27 C27            2.4613     1.3329    -0.3432 C.3     
  28 C28           -0.3675    -8.9972     1.2659 C.3     
  29 C29           -1.0305   -10.3766     1.2776 C.3     
  30 N30           -2.4499   -10.2320     1.6300 N.3     
  31 C31           -3.1433    -9.3662     0.6660 C.3     
  32 C32           -3.1048   -11.5434     1.7257 C.3     
  33 C33           -2.4232   -12.4123     2.8265 C.3     
  34 C34           -4.5659   -11.3825     2.2040 C.3     
  35 C35           -4.6295   -12.1693     3.5487 C.3     
  36 C36           -3.0532   -13.8280     2.6522 C.3     
  37 C37           -4.5143   -13.6670     3.1304 C.3     
  38 C38           -3.1845   -11.9113     4.1043 C.3     
  39 H39           -2.9147    -1.1227    -1.7254 H       
  40 H40           -2.4157     0.4807    -1.7788 H       
  41 H41            2.3653    -3.0718     0.1444 H       
  42 H42           -1.8542     3.8185    -2.0634 H       
  43 H43            2.5746    -5.5052    -0.4569 H       
  44 H44            1.4780    -7.7021    -0.2946 H       
  45 H45           -2.2142    -5.7860     0.6954 H       
  46 H46           -1.1160    -3.5894     0.5401 H       
  47 H47           -2.5654    -7.5340     1.6421 H       
  48 H48           -2.9746    -7.3519    -0.0810 H       
  49 H49            3.3285     3.9094    -1.2287 H       
  50 H50            2.2633     5.2960    -1.3581 H       
  51 H51            3.6735     4.9717     0.8189 H       
  52 H52            2.0114     5.5708     0.8938 H       
  53 H53            2.1359     3.9294     2.6291 H       
  54 H54            1.3607     3.0365     1.2816 H       
  55 H55            4.3826     3.3785     1.6272 H       
  56 H56            3.5248     1.9844     2.2540 H       
  57 H57            4.1642     2.6454    -0.6216 H       
  58 H58            4.4956     1.1954     0.3129 H       
  59 H59            2.1048     0.7065     0.4846 H       
  60 H60            2.7402     0.6333    -1.1411 H       
  61 H61            0.6785    -9.0990     0.9766 H       
  62 H62           -0.4286    -8.5559     2.2607 H       
  63 H63           -0.9454   -10.8294     0.2898 H       
  64 H64           -0.5362   -11.0115     2.0129 H       
  65 H65           -4.1892    -9.2645     0.9554 H       
  66 H66           -3.0821    -9.8075    -0.3288 H       
  67 H67           -3.0722   -12.0548     0.7636 H       
  68 H68           -1.3342   -12.3758     2.8560 H       
  69 H69           -4.7983   -10.3303     2.3681 H       
  70 H70           -5.2534   -11.8156     1.4774 H       
  71 H71           -5.4620   -11.9211     4.2071 H       
  72 H72           -3.0271   -14.1291     1.6049 H       
  73 H73           -2.5288   -14.5561     3.2710 H       
  74 H74           -4.7083   -14.3160     3.9844 H       
  75 H75           -5.2066   -13.8891     2.3183 H       
  76 H76           -2.9664   -12.5263     4.9774 H       
  77 H77           -3.0042   -10.8542     4.2993 H       
@<TRIPOS>BOND
   1    1    2 1
   2    1    9 ar
   3    1   10 ar
   4    2    3 1
   5    2    6 1
   6    3    4 2
   7    4    5 1
   8    4    8 1
   9    5    6 2
  10    6    7 1
  11    7   39 1
  12    7   40 1
  13    8   14 1
  14    8   41 1
  15    9   13 ar
  16    9   27 1
  17   10   11 ar
  18   11   12 ar
  19   11   42 1
  20   12   13 ar
  21   13   22 1
  22   14   15 ar
  23   14   19 ar
  24   15   16 ar
  25   15   43 1
  26   16   17 ar
  27   16   44 1
  28   17   18 ar
  29   17   20 1
  30   18   19 ar
  31   18   45 1
  32   19   46 1
  33   20   21 1
  34   20   28 1
  35   21   31 1
  36   21   47 1
  37   21   48 1
  38   22   23 1
  39   22   49 1
  40   22   50 1
  41   23   24 1
  42   23   51 1
  43   23   52 1
  44   24   25 1
  45   24   53 1
  46   24   54 1
  47   25   26 1
  48   25   55 1
  49   25   56 1
  50   26   27 1
  51   26   57 1
  52   26   58 1
  53   27   59 1
  54   27   60 1
  55   28   29 1
  56   28   61 1
  57   28   62 1
  58   29   30 1
  59   29   63 1
  60   29   64 1
  61   30   31 1
  62   30   32 1
  63   31   65 1
  64   31   66 1
  65   32   33 1
  66   32   34 1
  67   32   67 1
  68   33   36 1
  69   33   38 1
  70   33   68 1
  71   34   35 1
  72   34   69 1
  73   34   70 1
  74   35   37 1
  75   35   38 1
  76   35   71 1
  77   36   37 1
  78   36   72 1
  79   36   73 1
  80   37   74 1
  81   37   75 1
  82   38   76 1
  83   38   77 1

#	End of record

