#	Name: ASD03080097
#	Creating user name:	WinNT
#	Creation time:	15. 06. 2019 20:26

#	Modifying user name:	WinNT
#	Modification time:	15. 06. 2019 20:26

#	Program:	/corina/corina34_cracker 3.40 0067  02.08.2006

@<TRIPOS>MOLECULE
ASD03080097
  30   32    0    0    0
SMALL
NO_CHARGES


@<TRIPOS>ATOM
   1 F1             0.0021    -0.0041     0.0020 F       
   2 C2            -0.0169     1.3948     0.0097 C.3     
   3 O3             1.3237     1.8894    -0.0004 O.3     
   4 C4             2.1021     1.5406    -1.0585 C.ar    
   5 C5             1.5843     0.7382    -2.0660 C.ar    
   6 C6             2.3717     0.3801    -3.1449 C.ar    
   7 C7             3.6773     0.8185    -3.2273 C.ar    
   8 C8             4.2065     1.6262    -2.2192 C.ar    
   9 C9             3.4097     1.9905    -1.1339 C.ar    
  10 C10            5.6052     2.0978    -2.3040 C.2     
  11 O11            6.2426     2.8739    -1.4139 O.3     
  12 N12            7.3803     3.0761    -1.7820 N.2     
  13 C13            7.6041     2.4712    -2.9204 C.2     
  14 N14            6.4676     1.8315    -3.2668 N.2     
  15 C15            8.8753     2.4823    -3.6868 C.ar    
  16 C16            9.9854     3.1841    -3.2102 C.ar    
  17 C17           11.1480     3.1630    -3.9619 C.ar    
  18 C18           11.1730     2.4546    -5.1490 C.ar    
  19 N19           10.1084     1.8012    -5.5734 N.ar    
  20 C20            8.9825     1.7883    -4.8899 C.ar    
  21 F21           -0.6935     1.8582    -1.1237 F       
  22 F22           -0.6717     1.8460     1.1607 F       
  23 H23            0.5630     0.3920    -2.0068 H       
  24 H24            1.9635    -0.2450    -3.9253 H       
  25 H25            4.2896     0.5367    -4.0712 H       
  26 H26            3.8135     2.6154    -0.3511 H       
  27 H27            9.9377     3.7296    -2.2793 H       
  28 H28           12.0257     3.6944    -3.6248 H       
  29 H29           12.0779     2.4361    -5.7382 H       
  30 H30            8.1321     1.2415    -5.2698 H       
@<TRIPOS>BOND
   1    1    2 1
   2    2    3 1
   3    2   21 1
   4    2   22 1
   5    3    4 1
   6    4    5 ar
   7    4    9 ar
   8    5    6 ar
   9    5   23 1
  10    6    7 ar
  11    6   24 1
  12    7    8 ar
  13    7   25 1
  14    8    9 ar
  15    8   10 1
  16    9   26 1
  17   10   11 1
  18   10   14 2
  19   11   12 1
  20   12   13 2
  21   13   14 1
  22   13   15 1
  23   15   16 ar
  24   15   20 ar
  25   16   17 ar
  26   16   27 1
  27   17   18 ar
  28   17   28 1
  29   18   19 ar
  30   18   29 1
  31   19   20 ar
  32   20   30 1

#	End of record

