#	Name: ASD00170694
#	Creating user name:	WinNT
#	Creation time:	15. 06. 2019 18:32

#	Modifying user name:	WinNT
#	Modification time:	15. 06. 2019 18:32

#	Program:	/corina/corina34_cracker 3.40 0067  02.08.2006

@<TRIPOS>MOLECULE
ASD00170694
  38   39    0    0    0
SMALL
NO_CHARGES


@<TRIPOS>ATOM
   1 N1             0.0225     1.3139     0.5038 N.pl3   
   2 C2             0.0180    -0.0400     0.2347 C.2     
   3 S3             1.4161    -0.9899     0.0158 S.3     
   4 C4             0.4793    -2.4485    -0.2535 C.2     
   5 C5            -0.8192    -2.1978    -0.1756 C.2     
   6 C6            -1.1153    -0.8097     0.1120 C.2     
   7 C7            -2.4724    -0.2817     0.2481 C.2     
   8 O8            -2.9677    -0.1529     1.3531 O.2     
   9 C9            -3.2432     0.0958    -0.9562 C.ar    
  10 C10           -4.5758     0.4940    -0.8387 C.ar    
  11 C11           -5.2901     0.8455    -1.9651 C.ar    
  12 C12           -4.6882     0.8037    -3.2113 C.ar    
  13 C13           -3.3650     0.4087    -3.3350 C.ar    
  14 C14           -2.6389     0.0608    -2.2144 C.ar    
  15 Cl15          -2.6186     0.3580    -4.9015 Cl      
  16 Cl16          -5.5940     1.2471    -4.6244 Cl      
  17 C17           -1.8804    -3.2513    -0.3626 C.3     
  18 C18           -2.2096    -3.8891     0.9886 C.3     
  19 C19           -2.7220    -2.8138     1.9489 C.3     
  20 C20           -3.2871    -4.9587     0.7988 C.3     
  21 C21           -0.9489    -4.5327     1.5694 C.3     
  22 Br22           1.2233    -4.1505    -0.6081 Br      
  23 H23            0.8623     1.7759     0.6529 H       
  24 H24           -0.8137     1.8040     0.5398 H       
  25 H25           -5.0470     0.5264     0.1326 H       
  26 H26           -6.3213     1.1537    -1.8748 H       
  27 H27           -1.6081    -0.2466    -2.3113 H       
  28 H28           -2.7786    -2.7928    -0.7764 H       
  29 H29           -1.5154    -4.0174    -1.0467 H       
  30 H30           -3.6201    -2.3553     1.5351 H       
  31 H31           -2.9565    -3.2682     2.9115 H       
  32 H32           -1.9544    -2.0518     2.0841 H       
  33 H33           -2.9220    -5.7247     0.1147 H       
  34 H34           -3.5215    -5.4130     1.7614 H       
  35 H35           -4.1852    -4.5002     0.3850 H       
  36 H36           -0.1813    -3.7707     1.7047 H       
  37 H37           -1.1834    -4.9871     2.5320 H       
  38 H38           -0.5838    -5.2988     0.8853 H       
@<TRIPOS>BOND
   1    1    2 1
   2    1   23 1
   3    1   24 1
   4    2    3 1
   5    2    6 2
   6    3    4 1
   7    4    5 2
   8    4   22 1
   9    5    6 1
  10    5   17 1
  11    6    7 1
  12    7    8 2
  13    7    9 1
  14    9   10 ar
  15    9   14 ar
  16   10   11 ar
  17   10   25 1
  18   11   12 ar
  19   11   26 1
  20   12   13 ar
  21   12   16 1
  22   13   14 ar
  23   13   15 1
  24   14   27 1
  25   17   18 1
  26   17   28 1
  27   17   29 1
  28   18   19 1
  29   18   20 1
  30   18   21 1
  31   19   30 1
  32   19   31 1
  33   19   32 1
  34   20   33 1
  35   20   34 1
  36   20   35 1
  37   21   36 1
  38   21   37 1
  39   21   38 1

#	End of record

