#	Name: ASD01141043
#	Creating user name:	WinNT
#	Creation time:	15. 06. 2019 19:01

#	Modifying user name:	WinNT
#	Modification time:	15. 06. 2019 19:01

#	Program:	/corina/corina34_cracker 3.40 0067  02.08.2006

@<TRIPOS>MOLECULE
ASD01141043
  54   57    0    0    0
SMALL
NO_CHARGES


@<TRIPOS>ATOM
   1 C1            -0.0236     1.5620     0.0096 C.3     
   2 C2            -0.0202     0.0127    -0.0040 C.3     
   3 C3             1.4688     1.9641    -0.0014 C.3     
   4 C4             1.4757    -0.4156     0.0680 C.3     
   5 C5             2.0882     0.7932     0.7918 C.3     
   6 C6             1.7646     3.2689     0.6969 C.3     
   7 C7             1.8946     1.9995    -1.4666 C.3     
   8 C8             3.5759     0.8769     0.8935 C.3     
   9 C9             3.2414     3.3649     1.1050 C.3     
  10 C10            4.0953     2.2625     0.5106 C.3     
  11 C11            4.3235    -0.1768     0.0802 C.3     
  12 C12            5.5661     2.3712     0.9319 C.3     
  13 C13            5.8141    -0.0935     0.4413 C.3     
  14 C14            6.0433     1.0204     1.4576 C.3     
  15 C15            5.7370     3.4285     2.0196 C.3     
  16 C16            6.3742     2.7800    -0.3054 C.3     
  17 C17            7.5192     1.0974     1.8487 C.3     
  18 H18            5.4794     0.7802     2.3712 H       
  19 C19            7.1984     3.5126     2.4583 C.3     
  20 C20            7.6999     2.1535     2.9400 C.3     
  21 H21            8.7617     2.2304     3.1901 H       
  22 O22            6.9762     1.7622     4.1090 O.3     
  23 H23            7.0468     2.3878     4.8430 H       
  24 C24           -0.6855     2.0860    -1.1932 C.1     
  25 C25           -1.2143     2.5046    -2.1541 C.1     
  26 Br26          -2.0701     3.1821    -3.7093 Br      
  27 H27           -0.4951     1.9380     0.9115 H       
  28 H28           -0.5570    -0.3721     0.8607 H       
  29 H29           -0.4676    -0.3563    -0.9249 H       
  30 H30            1.5796    -1.3158     0.6761 H       
  31 H31            1.8949    -0.5644    -0.9173 H       
  32 H32            1.6654     0.8090     1.8196 H       
  33 H33            1.5128     4.1062     0.0337 H       
  34 H34            1.1340     3.3529     1.5929 H       
  35 H35            1.2248     2.6543    -2.0239 H       
  36 H36            2.9148     2.3762    -1.5394 H       
  37 H37            1.8484     0.9931    -1.8828 H       
  38 H38            3.8314     0.7078     1.9594 H       
  39 H39            3.6326     4.3405     0.7867 H       
  40 H40            3.3060     3.3265     2.2005 H       
  41 H41            4.1137     2.3590    -0.5800 H       
  42 H42            3.9468    -1.1688     0.3261 H       
  43 H43            4.1966     0.0154    -0.9834 H       
  44 H44            6.1191    -1.0481     0.8838 H       
  45 H45            6.4012     0.0766    -0.4570 H       
  46 H46            5.4237     4.4016     1.6339 H       
  47 H47            5.1169     3.1710     2.8802 H       
  48 H48            6.2469     2.0304    -1.0865 H       
  49 H49            6.0210     3.7455    -0.6675 H       
  50 H50            7.4293     2.8546    -0.0420 H       
  51 H51            7.8289     0.1239     2.2466 H       
  52 H52            8.1396     1.3323     0.9908 H       
  53 H53            7.8228     3.8710     1.6423 H       
  54 H54            7.2762     4.2300     3.2849 H       
@<TRIPOS>BOND
   1    1    2 1
   2    1    3 1
   3    1   24 1
   4    1   27 1
   5    2    4 1
   6    2   28 1
   7    2   29 1
   8    3    5 1
   9    3    6 1
  10    3    7 1
  11    4    5 1
  12    4   30 1
  13    4   31 1
  14    5    8 1
  15    5   32 1
  16    6    9 1
  17    6   33 1
  18    6   34 1
  19    7   35 1
  20    7   36 1
  21    7   37 1
  22    8   10 1
  23    8   11 1
  24    8   38 1
  25    9   10 1
  26    9   39 1
  27    9   40 1
  28   10   12 1
  29   10   41 1
  30   11   13 1
  31   11   42 1
  32   11   43 1
  33   12   14 1
  34   12   15 1
  35   12   16 1
  36   13   14 1
  37   13   44 1
  38   13   45 1
  39   14   17 1
  40   14   18 1
  41   15   19 1
  42   15   46 1
  43   15   47 1
  44   16   48 1
  45   16   49 1
  46   16   50 1
  47   17   20 1
  48   17   51 1
  49   17   52 1
  50   19   20 1
  51   19   53 1
  52   19   54 1
  53   20   21 1
  54   20   22 1
  55   22   23 1
  56   24   25 3
  57   25   26 1

#	End of record

