#	Name: ASD01820006
#	Creating user name:	WinNT
#	Creation time:	15. 06. 2019 19:36

#	Modifying user name:	WinNT
#	Modification time:	15. 06. 2019 19:36

#	Program:	/corina/corina34_cracker 3.40 0067  02.08.2006

@<TRIPOS>MOLECULE
ASD01820006
  41   41    0    0    0
SMALL
NO_CHARGES


@<TRIPOS>ATOM
   1 C1            -0.0167     1.3782     0.0096 C.ar    
   2 C2             0.0021    -0.0041     0.0020 C.ar    
   3 C3             1.2076    -0.6815    -0.0127 C.ar    
   4 C4             2.3963     0.0219    -0.0199 C.ar    
   5 C5             2.3802     1.4093    -0.0127 C.ar    
   6 C6             1.1697     2.0864     0.0021 C.ar    
   7 O7             3.5484     2.1036    -0.0193 O.3     
   8 C8             3.7096    -0.7170    -0.0349 C.3     
   9 C9             3.4557     3.5296    -0.0113 C.3     
  10 N10            4.2663    -0.7539     1.3240 N.3     
  11 C11            5.5498    -1.4681     1.3479 C.3     
  12 C12            6.0971    -1.4857     2.7766 C.3     
  13 C13            7.4339    -2.2296     2.8015 C.3     
  14 C14            7.9812    -2.2471     4.2301 C.3     
  15 C15            9.3180    -2.9910     4.2550 C.3     
  16 C16            9.8653    -3.0085     5.6837 C.3     
  17 N17           11.1488    -3.7228     5.7076 N.3     
  18 H18           -0.9595     1.9050     0.0170 H       
  19 H19           -0.9263    -0.5558     0.0080 H       
  20 H20            1.2196    -1.7614    -0.0183 H       
  21 H21            1.1545     3.1663     0.0073 H       
  22 H22            3.5497    -1.7351    -0.3898 H       
  23 H23            4.4065    -0.2059    -0.6993 H       
  24 H24            2.9117     3.8632    -0.8950 H       
  25 H25            2.9270     3.8543     0.8849 H       
  26 H26            4.4575     3.9589    -0.0178 H       
  27 H27            4.3636     0.1772     1.7003 H       
  28 H28            5.4026    -2.4915     1.0026 H       
  29 H29            6.2594    -0.9622     0.6932 H       
  30 H30            6.2443    -0.4623     3.1219 H       
  31 H31            5.3876    -1.9916     3.4313 H       
  32 H32            7.2867    -3.2529     2.4562 H       
  33 H33            8.1435    -1.7237     2.1467 H       
  34 H34            8.1284    -1.2238     4.5754 H       
  35 H35            7.2716    -2.7530     4.8849 H       
  36 H36            9.1708    -4.0143     3.9097 H       
  37 H37           10.0275    -2.4851     3.6003 H       
  38 H38           10.0125    -1.9852     6.0290 H       
  39 H39            9.1557    -3.5144     6.3384 H       
  40 H40           11.8037    -3.3113     5.0596 H       
  41 H41           11.5311    -3.7481     6.6410 H       
@<TRIPOS>BOND
   1    1    2 ar
   2    1    6 ar
   3    1   18 1
   4    2    3 ar
   5    2   19 1
   6    3    4 ar
   7    3   20 1
   8    4    5 ar
   9    4    8 1
  10    5    6 ar
  11    5    7 1
  12    6   21 1
  13    7    9 1
  14    8   10 1
  15    8   22 1
  16    8   23 1
  17    9   24 1
  18    9   25 1
  19    9   26 1
  20   10   11 1
  21   10   27 1
  22   11   12 1
  23   11   28 1
  24   11   29 1
  25   12   13 1
  26   12   30 1
  27   12   31 1
  28   13   14 1
  29   13   32 1
  30   13   33 1
  31   14   15 1
  32   14   34 1
  33   14   35 1
  34   15   16 1
  35   15   36 1
  36   15   37 1
  37   16   17 1
  38   16   38 1
  39   16   39 1
  40   17   40 1
  41   17   41 1

#	End of record

