#	Name: ASD09116345
#	Creating user name:	WinNT
#	Creation time:	15. 06. 2019 21:21

#	Modifying user name:	WinNT
#	Modification time:	15. 06. 2019 21:21

#	Program:	/corina/corina34_cracker 3.40 0067  02.08.2006

@<TRIPOS>MOLECULE
ASD09116345
  70   75    0    0    0
SMALL
NO_CHARGES


@<TRIPOS>ATOM
   1 N1            -0.0989     1.6424    -0.1747 N.2     
   2 N2            -0.1647     0.2734     0.1309 N.pl3   
   3 C3             1.1669     1.9834    -0.1332 C.2     
   4 N4             1.8983     0.9077     0.1807 N.2     
   5 C5             1.1091    -0.1326     0.3433 C.2     
   6 N6             1.5098    -1.4133     0.6735 N.pl3   
   7 C7            -1.3159    -0.5132     0.2016 C.ar    
   8 N8             1.6696     3.2615    -0.3769 N.pl3   
   9 C9             3.0315     3.5260    -0.1872 C.ar    
  10 C10            3.6579     4.5142    -0.9362 C.ar    
  11 C11            3.7542     2.8046     0.7533 C.ar    
  12 C12            5.0980     3.0652     0.9415 C.ar    
  13 C13            5.7264     4.0480     0.1902 C.ar    
  14 C14            5.0021     4.7749    -0.7487 C.ar    
  15 N15            7.0892     4.3124     0.3817 N.3     
  16 F16            5.6135     5.7317    -1.4808 F       
  17 N17           -1.2373    -1.8212     0.0081 N.ar    
  18 N18           -2.2676    -2.5886     0.0528 N.ar    
  19 C19           -3.4779    -2.1117     0.2959 C.ar    
  20 C20           -3.6545    -0.7456     0.5338 C.ar    
  21 C21           -2.5502     0.0785     0.4822 C.ar    
  22 C22           -4.6742    -2.9853     0.2944 C.ar    
  23 C23           -5.7919    -2.5973    -0.4460 C.ar    
  24 C24           -5.7335    -1.3365    -1.2643 C.3     
  25 C25           -5.8783    -0.0961    -0.3870 C.3     
  26 C26           -5.0193    -0.2184     0.8688 C.3     
  27 C27           -4.6969    -4.1724     1.0180 C.ar    
  28 C28           -5.8363    -4.9536     1.0145 C.ar    
  29 C29           -6.9490    -4.5551     0.2963 C.ar    
  30 C30           -6.9276    -3.3783    -0.4322 C.ar    
  31 C31            7.3573     4.7167     1.7683 C.3     
  32 C32            7.9086     3.1532     0.0036 C.3     
  33 C33            7.6869     2.8309    -1.4767 C.3     
  34 C34            9.3879     3.4760     0.2316 C.3     
  35 C35           10.2399     2.2880    -0.2209 C.3     
  36 N36            9.9924     2.0202    -1.6434 N.3     
  37 C37            8.5881     1.6616    -1.8797 C.3     
  38 C38           10.8944     0.9759    -2.1472 C.3     
  39 H39            2.4507    -1.6079     0.8066 H       
  40 H40            0.8501    -2.1176     0.7720 H       
  41 H41            1.0758     3.9670    -0.6778 H       
  42 H42            3.0947     5.0782    -1.6650 H       
  43 H43            3.2657     2.0395     1.3385 H       
  44 H44            5.6593     2.5041     1.6739 H       
  45 H45           -2.6372     1.1426     0.6451 H       
  46 H46           -4.7776    -1.2943    -1.7865 H       
  47 H47           -6.5391    -1.3502    -1.9983 H       
  48 H48           -5.5648     0.7817    -0.9520 H       
  49 H49           -6.9229     0.0187    -0.0974 H       
  50 H50           -5.5040    -0.8980     1.5697 H       
  51 H51           -4.9205     0.7631     1.3325 H       
  52 H52           -3.8283    -4.4821     1.5802 H       
  53 H53           -5.8581    -5.8774     1.5735 H       
  54 H54           -7.8399    -5.1656     0.3038 H       
  55 H55           -7.8003    -3.0723    -0.9899 H       
  56 H56            7.0582     3.9159     2.4446 H       
  57 H57            8.4221     4.9158     1.8893 H       
  58 H58            6.7904     5.6185     1.9999 H       
  59 H59            7.6248     2.2932     0.6102 H       
  60 H60            6.6437     2.5586    -1.6376 H       
  61 H61            7.9327     3.7046    -2.0802 H       
  62 H62            9.6605     4.3600    -0.3450 H       
  63 H63            9.5601     3.6647     1.2912 H       
  64 H64           11.2945     2.5203    -0.0732 H       
  65 H65            9.9764     1.4078     0.3655 H       
  66 H66            8.3324     0.7843    -1.2855 H       
  67 H67            8.4431     1.4388    -2.9368 H       
  68 H68           10.7345     0.0557    -1.5853 H       
  69 H69           10.6898     0.7973    -3.2028 H       
  70 H70           11.9282     1.2999    -2.0272 H       
@<TRIPOS>BOND
   1    1    2 1
   2    1    3 2
   3    2    7 1
   4    2    5 1
   5    3    4 1
   6    3    8 1
   7    4    5 2
   8    5    6 1
   9    6   39 1
  10    6   40 1
  11    7   17 ar
  12    7   21 ar
  13    8    9 1
  14    8   41 1
  15    9   10 ar
  16    9   11 ar
  17   10   14 ar
  18   10   42 1
  19   11   12 ar
  20   11   43 1
  21   12   13 ar
  22   12   44 1
  23   13   14 ar
  24   13   15 1
  25   14   16 1
  26   15   31 1
  27   15   32 1
  28   17   18 ar
  29   18   19 ar
  30   19   20 ar
  31   19   22 1
  32   20   21 ar
  33   20   26 1
  34   21   45 1
  35   22   23 ar
  36   22   27 ar
  37   23   24 1
  38   23   30 ar
  39   24   25 1
  40   24   46 1
  41   24   47 1
  42   25   26 1
  43   25   48 1
  44   25   49 1
  45   26   50 1
  46   26   51 1
  47   27   28 ar
  48   27   52 1
  49   28   29 ar
  50   28   53 1
  51   29   30 ar
  52   29   54 1
  53   30   55 1
  54   31   56 1
  55   31   57 1
  56   31   58 1
  57   32   33 1
  58   32   34 1
  59   32   59 1
  60   33   37 1
  61   33   60 1
  62   33   61 1
  63   34   35 1
  64   34   62 1
  65   34   63 1
  66   35   36 1
  67   35   64 1
  68   35   65 1
  69   36   37 1
  70   36   38 1
  71   37   66 1
  72   37   67 1
  73   38   68 1
  74   38   69 1
  75   38   70 1

#	End of record

