#	Name: ASD01917590
#	Creating user name:	WinNT
#	Creation time:	15. 06. 2019 20:09

#	Modifying user name:	WinNT
#	Modification time:	15. 06. 2019 20:09

#	Program:	/corina/corina34_cracker 3.40 0067  02.08.2006

@<TRIPOS>MOLECULE
ASD01917590
  51   54    0    0    0
SMALL
NO_CHARGES


@<TRIPOS>ATOM
   1 C1            -0.0187     1.4004    -0.0727 C.ar    
   2 C2            -0.0014     0.0018    -0.1648 C.ar    
   3 C3             1.1901    -0.6525    -0.2575 C.ar    
   4 C4             2.3920     0.0511    -0.2619 C.ar    
   5 C5             2.4103     1.4094    -0.1734 C.ar    
   6 C6             1.2006     2.1186    -0.0769 C.ar    
   7 N7             1.1898     3.4538     0.0098 N.ar    
   8 C8             0.0681     4.1296     0.1000 C.ar    
   9 C9            -1.1686     3.4989     0.1111 C.ar    
  10 C10           -1.2356     2.1177     0.0193 C.ar    
  11 N11           -2.4557     1.4591     0.0216 N.3     
  12 C12           -2.6494     0.7059    -1.2240 C.3     
  13 C13           -4.0602     0.1133    -1.2492 C.3     
  14 C14           -4.2432    -0.8081    -0.0400 C.3     
  15 C15           -3.9885    -0.0109     1.2423 C.3     
  16 C16           -2.5798     0.5853     1.1953 C.3     
  17 S17           -2.6464     4.4504     0.2351 S.o2    
  18 O18           -3.4301     3.8436     1.2533 O.2     
  19 O19           -2.2445     5.8129     0.2718 O.2     
  20 C20           -3.5341     4.2340    -1.2715 C.ar    
  21 C21           -4.4502     3.2059    -1.3923 C.ar    
  22 C22           -5.1466     3.0360    -2.5743 C.ar    
  23 C23           -4.9272     3.8946    -3.6353 C.ar    
  24 C24           -4.0118     4.9233    -3.5141 C.ar    
  25 C25           -3.3186     5.0958    -2.3306 C.ar    
  26 C26           -5.6857     3.7089    -4.9242 C.3     
  27 C27           -5.6716    -1.3560    -0.0262 C.3     
  28 H28           -0.9274    -0.5540    -0.1620 H       
  29 H29            1.2027    -1.7301    -0.3282 H       
  30 H30            3.3241    -0.4893    -0.3363 H       
  31 H31            3.3509     1.9402    -0.1774 H       
  32 H32            0.1084     5.2067     0.1678 H       
  33 H33           -2.5207     1.3735    -2.0759 H       
  34 H34           -1.9164    -0.0990    -1.2795 H       
  35 H35           -4.7939     0.9183    -1.2076 H       
  36 H36           -4.1983    -0.4587    -2.1667 H       
  37 H37           -3.5355    -1.6348    -0.1015 H       
  38 H38           -4.7210     0.7922     1.3231 H       
  39 H39           -4.0754    -0.6716     2.1049 H       
  40 H40           -1.8471    -0.2190     1.1284 H       
  41 H41           -2.4005     1.1654     2.1005 H       
  42 H42           -4.6216     2.5351    -0.5635 H       
  43 H43           -5.8618     2.2324    -2.6690 H       
  44 H44           -3.8402     5.5939    -4.3431 H       
  45 H45           -2.6060     5.9017    -2.2347 H       
  46 H46           -6.6112     4.2835    -4.8872 H       
  47 H47           -5.0756     4.0560    -5.7581 H       
  48 H48           -5.9189     2.6528    -5.0595 H       
  49 H49           -5.8538    -1.9186    -0.9419 H       
  50 H50           -5.8009    -2.0117     0.8349 H       
  51 H51           -6.3777    -0.5282     0.0382 H       
@<TRIPOS>BOND
   1    1    2 ar
   2    1    6 ar
   3    1   10 ar
   4    2    3 ar
   5    2   28 1
   6    3    4 ar
   7    3   29 1
   8    4    5 ar
   9    4   30 1
  10    5    6 ar
  11    5   31 1
  12    6    7 ar
  13    7    8 ar
  14    8    9 ar
  15    8   32 1
  16    9   10 ar
  17    9   17 1
  18   10   11 1
  19   11   12 1
  20   11   16 1
  21   12   13 1
  22   12   33 1
  23   12   34 1
  24   13   14 1
  25   13   35 1
  26   13   36 1
  27   14   15 1
  28   14   27 1
  29   14   37 1
  30   15   16 1
  31   15   38 1
  32   15   39 1
  33   16   40 1
  34   16   41 1
  35   17   18 2
  36   17   19 2
  37   17   20 1
  38   20   21 ar
  39   20   25 ar
  40   21   22 ar
  41   21   42 1
  42   22   23 ar
  43   22   43 1
  44   23   24 ar
  45   23   26 1
  46   24   25 ar
  47   24   44 1
  48   25   45 1
  49   26   46 1
  50   26   47 1
  51   26   48 1
  52   27   49 1
  53   27   50 1
  54   27   51 1

#	End of record

