#	Name: ASD02500777
#	Creating user name:	WinNT
#	Creation time:	15. 06. 2019 20:23

#	Modifying user name:	WinNT
#	Modification time:	15. 06. 2019 20:23

#	Program:	/corina/corina34_cracker 3.40 0067  02.08.2006

@<TRIPOS>MOLECULE
ASD02500777
  51   54    0    0    0
SMALL
NO_CHARGES


@<TRIPOS>ATOM
   1 C1            -0.0167     1.3800     0.0096 C.ar    
   2 C2             0.0021    -0.0041     0.0020 C.ar    
   3 C3             1.2108    -0.6795    -0.0132 C.ar    
   4 C4             2.3982     0.0278    -0.0207 C.ar    
   5 C5             2.3807     1.4097    -0.0131 C.ar    
   6 C6             1.1731     2.0873     0.0021 C.ar    
   7 S7            -1.5540     2.2408     0.0216 S.o2    
   8 O8            -1.2961     3.5302    -0.5171 O.2     
   9 O9            -2.5173     1.3494    -0.5231 O.2     
  10 N10           -1.9742     2.4717     1.6067 N.am    
  11 F11            1.1563     3.4381     0.0090 F       
  12 F12           -1.1584    -0.6957     0.0098 F       
  13 N13           -0.1321     4.1881     4.9597 N.am    
  14 C14           -1.1886     4.9903     4.3282 C.3     
  15 C15           -2.0493     4.0721     3.4547 C.3     
  16 C16           -1.1507     3.3260     2.4658 C.3     
  17 C17           -0.1498     2.4613     3.2357 C.3     
  18 C18            0.7324     3.3612     4.1067 C.3     
  19 S19            0.0847     4.2205     6.6012 S.o2    
  20 O20            1.4326     3.8363     6.8356 O.2     
  21 O21           -0.4625     5.4513     7.0539 O.2     
  22 O22           -3.2983    -0.0232     8.8988 O.3     
  23 C23           -2.5070     0.9468     8.3647 C.ar    
  24 C24           -1.1981     0.6694     7.9871 C.ar    
  25 O25           -0.6795    -0.5798     8.1384 O.3     
  26 C26           -1.3765    -1.4628     9.0241 C.3     
  27 C27           -2.8755    -1.3774     8.7057 C.3     
  28 C28           -0.4081     1.6738     7.4489 C.ar    
  29 C29           -0.9220     2.9467     7.2855 C.ar    
  30 C30           -2.2241     3.2219     7.6585 C.ar    
  31 C31           -3.0165     2.2255     8.1974 C.ar    
  32 H32            1.2257    -1.7594    -0.0187 H       
  33 H33            3.3405    -0.4999    -0.0322 H       
  34 H34            3.3091     1.9614    -0.0186 H       
  35 H35           -2.7657     2.0413     1.9663 H       
  36 H36           -1.8089     5.4488     5.0983 H       
  37 H37           -0.7378     5.7661     3.7093 H       
  38 H38           -2.5708     3.3530     4.0864 H       
  39 H39           -2.7770     4.6697     2.9056 H       
  40 H40           -0.6106     4.0462     1.8512 H       
  41 H41           -0.6892     1.7574     3.8694 H       
  42 H42            0.4744     1.9123     2.5307 H       
  43 H43            1.3399     4.0041     3.4698 H       
  44 H44            1.3796     2.7448     4.7306 H       
  45 H45           -1.0267    -2.4843     8.8753 H       
  46 H46           -1.2020    -1.1607    10.0568 H       
  47 H47           -3.4313    -2.0349     9.3741 H       
  48 H48           -3.0489    -1.6726     7.6708 H       
  49 H49            0.6098     1.4614     7.1569 H       
  50 H50           -2.6230     4.2171     7.5291 H       
  51 H51           -4.0337     2.4432     8.4880 H       
@<TRIPOS>BOND
   1    1    2 ar
   2    1    6 ar
   3    1    7 1
   4    2    3 ar
   5    2   12 1
   6    3    4 ar
   7    3   32 1
   8    4    5 ar
   9    4   33 1
  10    5    6 ar
  11    5   34 1
  12    6   11 1
  13    7    8 2
  14    7    9 2
  15    7   10 am
  16   10   16 1
  17   10   35 1
  18   13   14 1
  19   13   18 1
  20   13   19 am
  21   14   15 1
  22   14   36 1
  23   14   37 1
  24   15   16 1
  25   15   38 1
  26   15   39 1
  27   16   17 1
  28   16   40 1
  29   17   18 1
  30   17   41 1
  31   17   42 1
  32   18   43 1
  33   18   44 1
  34   19   20 2
  35   19   21 2
  36   19   29 1
  37   22   23 1
  38   22   27 1
  39   23   24 ar
  40   23   31 ar
  41   24   25 1
  42   24   28 ar
  43   25   26 1
  44   26   27 1
  45   26   45 1
  46   26   46 1
  47   27   47 1
  48   27   48 1
  49   28   29 ar
  50   28   49 1
  51   29   30 ar
  52   30   31 ar
  53   30   50 1
  54   31   51 1

#	End of record

