#	Name: ASD02408067
#	Creating user name:	WinNT
#	Creation time:	15. 06. 2019 20:21

#	Modifying user name:	WinNT
#	Modification time:	15. 06. 2019 20:21

#	Program:	/corina/corina34_cracker 3.40 0067  02.08.2006

@<TRIPOS>MOLECULE
ASD02408067
  41   43    0    0    0
SMALL
NO_CHARGES


@<TRIPOS>ATOM
   1 C1             0.5495     0.6128    -0.0827 C.ar    
   2 C2             0.8211    -0.7217    -0.3165 C.ar    
   3 C3             1.6722     1.6179    -0.0636 C.3     
   4 C4             1.8814     2.1637    -1.4526 C.2     
   5 N5             2.8457     3.0828    -1.6527 N.am    
   6 N6             1.1256     1.7263    -2.4229 N.2     
   7 C7             1.2665     2.1750    -3.6768 C.2     
   8 C8             2.2500     3.1385    -3.9553 C.2     
   9 C9             3.0609     3.5927    -2.8836 C.2     
  10 N10            0.4586     1.6980    -4.6796 N.pl3   
  11 C11           -0.9713     1.4599    -4.4395 C.3     
  12 O12            3.9292     4.4277    -3.0694 O.2     
  13 C13           -0.2107    -1.6451    -0.3340 C.ar    
  14 C14           -1.5135    -1.2299    -0.1171 C.ar    
  15 C15           -1.7828     0.1056     0.1165 C.ar    
  16 C16           -0.7527     1.0272     0.1281 C.ar    
  17 F17            0.0536    -2.9500    -0.5629 F       
  18 C18           -1.3062     0.0207    -4.8436 C.3     
  19 C19           -0.8639    -0.2149    -6.2896 C.3     
  20 C20            0.6504    -0.0223    -6.3995 C.3     
  21 C21            1.0063     1.4217    -6.0146 C.3     
  22 O22           -1.2040    -1.5467    -6.6805 O.3     
  23 C23            2.4322     3.6435    -5.2829 C.1     
  24 N24            2.5767     4.0440    -6.3361 N.1     
  25 H25            1.8378    -1.0444    -0.4859 H       
  26 H26            1.4180     2.4338     0.6129 H       
  27 H27            2.5872     1.1341     0.2782 H       
  28 H28            3.3893     3.3805    -0.9065 H       
  29 H29           -1.1931     1.6036    -3.3820 H       
  30 H30           -1.5626     2.1541    -5.0366 H       
  31 H31           -2.3191    -1.9490    -0.1309 H       
  32 H32           -2.7990     0.4297     0.2857 H       
  33 H33           -0.9640     2.0703     0.3111 H       
  34 H34           -0.7830    -0.6731    -4.1855 H       
  35 H35           -2.3812    -0.1395    -4.7612 H       
  36 H36           -1.3688     0.4955    -6.9441 H       
  37 H37            1.1551    -0.7157    -5.7268 H       
  38 H38            0.9679    -0.2131    -7.4246 H       
  39 H39            0.5759     2.1103    -6.7417 H       
  40 H40            2.0899     1.5381    -5.9950 H       
  41 H41           -0.9525    -1.7666    -7.5879 H       
@<TRIPOS>BOND
   1    1    2 ar
   2    1    3 1
   3    1   16 ar
   4    2   13 ar
   5    2   25 1
   6    3    4 1
   7    3   26 1
   8    3   27 1
   9    4    5 1
  10    4    6 2
  11    5    9 am
  12    5   28 1
  13    6    7 1
  14    7    8 2
  15    7   10 1
  16    8    9 1
  17    8   23 1
  18    9   12 2
  19   10   11 1
  20   10   21 1
  21   11   18 1
  22   11   29 1
  23   11   30 1
  24   13   14 ar
  25   13   17 1
  26   14   15 ar
  27   14   31 1
  28   15   16 ar
  29   15   32 1
  30   16   33 1
  31   18   19 1
  32   18   34 1
  33   18   35 1
  34   19   20 1
  35   19   22 1
  36   19   36 1
  37   20   21 1
  38   20   37 1
  39   20   38 1
  40   21   39 1
  41   21   40 1
  42   22   41 1
  43   23   24 3

#	End of record

