#	Name: ASD01912330
#	Creating user name:	WinNT
#	Creation time:	15. 06. 2019 19:59

#	Modifying user name:	WinNT
#	Modification time:	15. 06. 2019 19:59

#	Program:	/corina/corina34_cracker 3.40 0067  02.08.2006

@<TRIPOS>MOLECULE
ASD01912330
  41   43    0    0    0
SMALL
NO_CHARGES


@<TRIPOS>ATOM
   1 C1            -0.7890     2.9074    -3.9676 C.ar    
   2 C2            -0.8328     1.6571    -4.5913 C.ar    
   3 C3             0.2997     1.1852    -5.2291 C.ar    
   4 C4             1.4415     1.9755    -5.2252 C.ar    
   5 C5             1.4165     3.2032    -4.5890 C.ar    
   6 N6             0.3260     3.6322    -3.9878 N.ar    
   7 C7             2.6545     4.0624    -4.5836 C.3     
   8 C8            -1.9545     3.4140    -3.3076 C.1     
   9 C9            -2.9100     3.8293    -2.7665 C.1     
  10 C10           -4.0755     4.3359    -2.1065 C.2     
  11 N11           -3.6438     7.2946     0.5609 N.am    
  12 C12           -4.8601     6.4737     0.6197 C.3     
  13 C13           -5.2594     6.0798    -0.8080 C.3     
  14 C14           -4.0388     5.5270    -1.5106 C.2     
  15 C15           -2.7758     6.3598    -1.5206 C.3     
  16 C16           -2.4387     6.7467    -0.0750 C.3     
  17 C17           -3.6352     8.5385     1.0796 C.2     
  18 O18           -4.6666     9.0299     1.4994 O.2     
  19 C19           -2.3848     9.2989     1.1383 C.2     
  20 C20           -2.2693    10.6496     0.9629 C.2     
  21 C21           -0.9769    11.1034     1.0704 C.2     
  22 C22           -0.0622    10.1578     1.3254 C.2     
  23 S23           -0.7931     8.6213     1.4530 S.3     
  24 Cl24           1.6379    10.4571     1.5088 Cl      
  25 H25           -1.7379     1.0681    -4.5748 H       
  26 H26            0.2963     0.2228    -5.7193 H       
  27 H27            2.3417     1.6341    -5.7146 H       
  28 H28            2.6470     4.7160    -5.4559 H       
  29 H29            2.6733     4.6669    -3.6768 H       
  30 H30            3.5387     3.4258    -4.6143 H       
  31 H31           -4.9842     3.7524    -2.0917 H       
  32 H32           -4.6667     5.5754     1.2060 H       
  33 H33           -5.6655     7.0463     1.0796 H       
  34 H34           -6.0393     5.3191    -0.7743 H       
  35 H35           -5.6245     6.9569    -1.3422 H       
  36 H36           -1.9569     5.7794    -1.9457 H       
  37 H37           -2.9347     7.2603    -2.1140 H       
  38 H38           -1.6500     7.4991    -0.0726 H       
  39 H39           -2.1063     5.8641     0.4714 H       
  40 H40           -3.1105    11.2959     0.7600 H       
  41 H41           -0.7172    12.1457     0.9574 H       
@<TRIPOS>BOND
   1    1    2 ar
   2    1    6 ar
   3    1    8 1
   4    2    3 ar
   5    2   25 1
   6    3    4 ar
   7    3   26 1
   8    4    5 ar
   9    4   27 1
  10    5    6 ar
  11    5    7 1
  12    7   28 1
  13    7   29 1
  14    7   30 1
  15    8    9 3
  16    9   10 1
  17   10   14 2
  18   10   31 1
  19   11   12 1
  20   11   16 1
  21   11   17 am
  22   12   13 1
  23   12   32 1
  24   12   33 1
  25   13   14 1
  26   13   34 1
  27   13   35 1
  28   14   15 1
  29   15   16 1
  30   15   36 1
  31   15   37 1
  32   16   38 1
  33   16   39 1
  34   17   18 2
  35   17   19 1
  36   19   20 2
  37   19   23 1
  38   20   21 1
  39   20   40 1
  40   21   22 2
  41   21   41 1
  42   22   23 1
  43   22   24 1

#	End of record

