#	Name: ASD01917628
#	Creating user name:	WinNT
#	Creation time:	15. 06. 2019 20:09

#	Modifying user name:	WinNT
#	Modification time:	15. 06. 2019 20:09

#	Program:	/corina/corina34_cracker 3.40 0067  02.08.2006

@<TRIPOS>MOLECULE
ASD01917628
  59   63    0    0    0
SMALL
NO_CHARGES


@<TRIPOS>ATOM
   1 C1            -0.0166     1.3755     0.0096 C.ar    
   2 C2             0.0021    -0.0041     0.0020 C.ar    
   3 C3            -1.1968    -0.7150     0.0096 C.ar    
   4 C4            -2.4089    -0.0278     0.0249 C.ar    
   5 C5            -1.1824    -2.1985     0.0011 C.2     
   6 N6            -0.0847    -2.9817    -0.0136 N.2     
   7 C7            -2.2727    -3.0090     0.0125 C.2     
   8 N8            -1.8065    -4.2961    -0.0016 N.pl3   
   9 C9            -0.4491    -4.2335    -0.0174 C.2     
  10 C10           -2.5853    -5.4629     0.0039 C.ar    
  11 C11           -3.5997    -5.6168     0.9389 C.ar    
  12 C12           -4.3654    -6.7663     0.9429 C.ar    
  13 C13           -3.1138    -7.6105    -0.9222 C.ar    
  14 C14           -2.3461    -6.4624    -0.9292 C.ar    
  15 C15            0.4828    -5.4177    -0.0362 C.3     
  16 C16            0.7765    -5.8032    -1.4631 C.2     
  17 N17            1.5930    -6.8428    -1.7258 N.am    
  18 O18            0.2782    -5.1780    -2.3750 O.2     
  19 C19            1.8929    -7.2359    -3.1110 C.3     
  20 C20            2.2126    -7.6106    -0.6350 C.3     
  21 C21            3.7200    -7.6974    -0.8960 C.3     
  22 N22            3.9503    -8.2359    -2.2433 N.3     
  23 C23            3.4136    -7.3382    -3.2696 C.3     
  24 C24            5.2957    -8.4811    -2.4562 C.ar    
  25 N25            5.6870    -8.9711    -3.6233 N.ar    
  26 N26            6.1623    -8.2153    -1.4899 N.ar    
  27 C27            7.4550    -8.4376    -1.6610 C.ar    
  28 C28            7.8981    -8.9547    -2.8683 C.ar    
  29 C29            6.9652    -9.2164    -3.8593 C.ar    
  30 C30           -4.1213    -7.7650     0.0152 C.ar    
  31 F31           -4.8707    -8.8891     0.0211 F       
  32 Cl32          -1.2404     3.7896     0.0394 Cl      
  33 C33           -2.4169     1.3523     0.0324 C.ar    
  34 C34           -1.2236     2.0537     0.0305 C.ar    
  35 C35            1.2788     2.1455     0.0014 C.3     
  36 H36            0.9441    -0.5322    -0.0102 H       
  37 H37           -3.3404    -0.5742     0.0305 H       
  38 H38           -3.3069    -2.6982     0.0295 H       
  39 H39           -3.7898    -4.8384     1.6630 H       
  40 H40           -5.1547    -6.8864     1.6702 H       
  41 H41           -2.9283    -8.3882    -1.6483 H       
  42 H42           -1.5607    -6.3421    -1.6607 H       
  43 H43            1.4129    -5.1561     0.4683 H       
  44 H44            0.0142    -6.2570     0.4779 H       
  45 H45            1.4366    -8.2025    -3.3243 H       
  46 H46            1.5029    -6.4843    -3.7975 H       
  47 H47            2.0339    -7.1067     0.3149 H       
  48 H48            1.7876    -8.6139    -0.6061 H       
  49 H49            4.1599    -6.7029    -0.8217 H       
  50 H50            4.1797    -8.3549    -0.1581 H       
  51 H51            3.6462    -7.7352    -4.2577 H       
  52 H52            3.8615    -6.3506    -3.1593 H       
  53 H53            8.1567    -8.2186    -0.8698 H       
  54 H54            8.9481    -9.1454    -3.0346 H       
  55 H55            7.2776    -9.6195    -4.8113 H       
  56 H56           -3.3558     1.8859     0.0442 H       
  57 H57            1.5813     2.3366    -1.0282 H       
  58 H58            1.1414     3.0934     0.5216 H       
  59 H59            2.0507     1.5633     0.5047 H       
@<TRIPOS>BOND
   1    1    2 ar
   2    1   35 1
   3    1   34 ar
   4    2    3 ar
   5    2   36 1
   6    3    4 ar
   7    3    5 1
   8    4   33 ar
   9    4   37 1
  10    5    6 1
  11    5    7 2
  12    6    9 2
  13    7    8 1
  14    7   38 1
  15    8    9 1
  16    8   10 1
  17    9   15 1
  18   10   11 ar
  19   10   14 ar
  20   11   12 ar
  21   11   39 1
  22   12   30 ar
  23   12   40 1
  24   13   14 ar
  25   13   30 ar
  26   13   41 1
  27   14   42 1
  28   15   16 1
  29   15   43 1
  30   15   44 1
  31   16   17 am
  32   16   18 2
  33   17   19 1
  34   17   20 1
  35   19   23 1
  36   19   45 1
  37   19   46 1
  38   20   21 1
  39   20   47 1
  40   20   48 1
  41   21   22 1
  42   21   49 1
  43   21   50 1
  44   22   23 1
  45   22   24 1
  46   23   51 1
  47   23   52 1
  48   24   25 ar
  49   24   26 ar
  50   25   29 ar
  51   26   27 ar
  52   27   28 ar
  53   27   53 1
  54   28   29 ar
  55   28   54 1
  56   29   55 1
  57   30   31 1
  58   32   34 1
  59   33   34 ar
  60   33   56 1
  61   35   57 1
  62   35   58 1
  63   35   59 1

#	End of record

