#	Name: ASD05380062
#	Creating user name:	WinNT
#	Creation time:	15. 06. 2019 20:59

#	Modifying user name:	WinNT
#	Modification time:	15. 06. 2019 20:59

#	Program:	/corina/corina34_cracker 3.40 0067  02.08.2006

@<TRIPOS>MOLECULE
ASD05380062
  51   55    0    0    0
SMALL
NO_CHARGES


@<TRIPOS>ATOM
   1 C1            -0.1399     1.4432    -0.4444 C.ar    
   2 C2             0.0691     0.1187     0.0024 C.ar    
   3 C3             0.9331     2.1966    -0.9226 C.ar    
   4 C4             2.1954     1.6365    -0.9545 C.ar    
   5 C5             2.4009     0.3364    -0.5165 C.ar    
   6 C6             1.3544    -0.4229    -0.0406 C.ar    
   7 N7            -0.9885    -0.5949     0.4637 N.2     
   8 C8            -2.1841    -0.0903     0.5039 C.2     
   9 N9            -2.4761     1.1740     0.0943 N.am    
  10 C10           -1.5031     1.9861    -0.3807 C.2     
  11 C11           -3.7943     1.6411     0.1703 C.ar    
  12 C12           -4.6636     1.4474    -0.8951 C.ar    
  13 C13           -4.2363     2.2940     1.3134 C.ar    
  14 C14           -5.5367     2.7535     1.3852 C.ar    
  15 C15           -6.3985     2.5637     0.3205 C.ar    
  16 C16           -5.9629     1.9092    -0.8171 C.ar    
  17 C17           -3.3055    -0.9485     1.0303 C.3     
  18 N18           -3.0877    -2.3393     0.6248 N.pl3   
  19 C19           -4.1618    -3.2049     0.5170 C.ar    
  20 N20           -5.3964    -2.7898     0.7779 N.ar    
  21 O21           -1.7501     3.1194    -0.7505 O.2     
  22 C22           -3.9707    -4.5406     0.1236 C.ar    
  23 C23           -5.0968    -5.3750     0.0303 C.ar    
  24 N24           -6.2964    -4.8781     0.3149 N.ar    
  25 C25           -6.4323    -3.6127     0.6768 C.ar    
  26 N26           -2.8910    -5.2871    -0.2159 N.2     
  27 C27           -3.2740    -6.4964    -0.5043 C.2     
  28 N28           -4.6275    -6.6013    -0.3674 N.pl3   
  29 N29           -7.6996    -3.1305     0.9603 N.pl3   
  30 F30            0.7388     3.4629    -1.3513 F       
  31 C31           -3.3401    -0.8621     2.5575 C.3     
  32 C32           -4.5527    -1.6320     3.0845 C.3     
  33 H33            3.0291     2.2154    -1.3237 H       
  34 H34            3.3943    -0.0861    -0.5491 H       
  35 H35            1.5281    -1.4339     0.2974 H       
  36 H36           -4.3240     0.9364    -1.7839 H       
  37 H37           -3.5639     2.4420     2.1455 H       
  38 H38           -5.8811     3.2614     2.2740 H       
  39 H39           -7.4152     2.9233     0.3794 H       
  40 H40           -6.6383     1.7625    -1.6470 H       
  41 H41           -4.2539    -0.5961     0.6248 H       
  42 H42           -2.1904    -2.6534     0.4318 H       
  43 H43           -2.6178    -7.2987    -0.8077 H       
  44 H44           -5.1602    -7.3971    -0.5222 H       
  45 H45           -7.8180    -2.2056     1.2276 H       
  46 H46           -8.4685    -3.7178     0.8917 H       
  47 H47           -2.4280    -1.2964     2.9668 H       
  48 H48           -3.4131     0.1824     2.8607 H       
  49 H49           -4.4798    -2.6764     2.7813 H       
  50 H50           -4.5774    -1.5704     4.1725 H       
  51 H51           -5.4648    -1.1977     2.6752 H       
@<TRIPOS>BOND
   1    1    2 ar
   2    1    3 ar
   3    1   10 1
   4    2    7 1
   5    2    6 ar
   6    3    4 ar
   7    3   30 1
   8    4    5 ar
   9    4   33 1
  10    5    6 ar
  11    5   34 1
  12    6   35 1
  13    7    8 2
  14    8    9 1
  15    8   17 1
  16    9   10 am
  17    9   11 1
  18   10   21 2
  19   11   12 ar
  20   11   13 ar
  21   12   16 ar
  22   12   36 1
  23   13   14 ar
  24   13   37 1
  25   14   15 ar
  26   14   38 1
  27   15   16 ar
  28   15   39 1
  29   16   40 1
  30   17   18 1
  31   17   31 1
  32   17   41 1
  33   18   19 1
  34   18   42 1
  35   19   20 ar
  36   19   22 ar
  37   20   25 ar
  38   22   23 ar
  39   22   26 1
  40   23   24 ar
  41   23   28 1
  42   24   25 ar
  43   25   29 1
  44   26   27 2
  45   27   28 1
  46   27   43 1
  47   28   44 1
  48   29   45 1
  49   29   46 1
  50   31   32 1
  51   31   47 1
  52   31   48 1
  53   32   49 1
  54   32   50 1
  55   32   51 1

#	End of record

