#	Name: ASD01150766
#	Creating user name:	WinNT
#	Creation time:	15. 06. 2019 19:05

#	Modifying user name:	WinNT
#	Modification time:	15. 06. 2019 19:05

#	Program:	/corina/corina34_cracker 3.40 0067  02.08.2006

@<TRIPOS>MOLECULE
ASD01150766
  61   65    0    0    0
SMALL
NO_CHARGES


@<TRIPOS>ATOM
   1 C1             0.0404     1.4788     0.4555 C.2     
   2 C2            -0.8244     1.0315    -0.6948 C.3     
   3 N3             3.4364     2.7921    -0.2041 N.ar    
   4 C4             2.4441     1.9672     0.0042 C.ar    
   5 C5             1.1336     2.4292     0.2249 C.ar    
   6 C6             0.8846     3.8135     0.2213 C.ar    
   7 C7             1.9824     4.6795    -0.0076 C.ar    
   8 C8             1.8152     6.0699    -0.0258 C.ar    
   9 C9             2.9073     6.8824    -0.2513 C.ar    
  10 C10            4.1736     6.3262    -0.4610 C.ar    
  11 C11            4.3572     4.9781    -0.4473 C.ar    
  12 C12            3.2672     4.1214    -0.2202 C.ar    
  13 C13           -0.4749     4.3462     0.4479 C.ar    
  14 C14           -1.1044     4.1611     1.6808 C.ar    
  15 C15           -2.3733     4.6614     1.8856 C.ar    
  16 C16           -3.0228     5.3450     0.8728 C.ar    
  17 C17           -2.4052     5.5316    -0.3514 C.ar    
  18 C18           -1.1340     5.0421    -0.5679 C.ar    
  19 C19            2.7105     0.4839     0.0076 C.3     
  20 N20            2.7474     8.2694    -0.2707 N.3     
  21 C21            4.0271     8.9432    -0.5252 C.3     
  22 C22            3.8428    10.4569    -0.3955 C.3     
  23 C23            2.7886    10.9259    -1.4021 C.3     
  24 C24            1.4796    10.1739    -1.1461 C.3     
  25 C25            1.7324     8.6684    -1.2541 C.3     
  26 C26            2.5592    12.4063    -1.2381 C.ar    
  27 C27            2.1839    13.1723    -2.3259 C.ar    
  28 C28            1.9736    14.5302    -2.1755 C.ar    
  29 C29            2.1381    15.1221    -0.9372 C.ar    
  30 C30            2.5125    14.3560     0.1508 C.ar    
  31 C31            2.7186    12.9973     0.0014 C.ar    
  32 O32            3.2427    10.6560    -2.7298 O.3     
  33 F33           -2.1320     1.4894    -0.5007 F       
  34 F34           -0.3192     1.5558    -1.8894 F       
  35 F35           -0.8248    -0.3659    -0.7621 F       
  36 O36           -0.1708     1.0566     1.5731 O.2     
  37 H37            0.8389     6.5028     0.1350 H       
  38 H38            5.0179     6.9764    -0.6368 H       
  39 H39            5.3420     4.5661    -0.6115 H       
  40 H40           -0.5989     3.6271     2.4719 H       
  41 H41           -2.8613     4.5190     2.8385 H       
  42 H42           -4.0165     5.7343     1.0384 H       
  43 H43           -2.9181     6.0655    -1.1378 H       
  44 H44           -0.6514     5.1923    -1.5223 H       
  45 H45            2.8637     0.1446     1.0320 H       
  46 H46            1.8576    -0.0393    -0.4247 H       
  47 H47            3.6027     0.2736    -0.5821 H       
  48 H48            4.7667     8.6039     0.2000 H       
  49 H49            4.3695     8.7040    -1.5320 H       
  50 H50            3.5136    10.6981     0.6153 H       
  51 H51            4.7892    10.9575    -0.5998 H       
  52 H52            1.1132    10.4106    -0.1472 H       
  53 H53            0.7376    10.4723    -1.8867 H       
  54 H54            2.0856     8.4305    -2.2575 H       
  55 H55            0.8054     8.1295    -1.0583 H       
  56 H56            2.0554    12.7098    -3.2934 H       
  57 H57            1.6811    15.1288    -3.0256 H       
  58 H58            1.9744    16.1832    -0.8198 H       
  59 H59            2.6413    14.8185     1.1183 H       
  60 H60            3.0075    12.3981     0.8522 H       
  61 H61            2.6228    10.9280    -3.4204 H       
@<TRIPOS>BOND
   1    1    2 1
   2    1    5 1
   3    1   36 2
   4    2   33 1
   5    2   34 1
   6    2   35 1
   7    3    4 ar
   8    3   12 ar
   9    4    5 ar
  10    4   19 1
  11    5    6 ar
  12    6    7 ar
  13    6   13 1
  14    7    8 ar
  15    7   12 ar
  16    8    9 ar
  17    8   37 1
  18    9   10 ar
  19    9   20 1
  20   10   11 ar
  21   10   38 1
  22   11   12 ar
  23   11   39 1
  24   13   14 ar
  25   13   18 ar
  26   14   15 ar
  27   14   40 1
  28   15   16 ar
  29   15   41 1
  30   16   17 ar
  31   16   42 1
  32   17   18 ar
  33   17   43 1
  34   18   44 1
  35   19   45 1
  36   19   46 1
  37   19   47 1
  38   20   21 1
  39   20   25 1
  40   21   22 1
  41   21   48 1
  42   21   49 1
  43   22   23 1
  44   22   50 1
  45   22   51 1
  46   23   24 1
  47   23   26 1
  48   23   32 1
  49   24   25 1
  50   24   52 1
  51   24   53 1
  52   25   54 1
  53   25   55 1
  54   26   27 ar
  55   26   31 ar
  56   27   28 ar
  57   27   56 1
  58   28   29 ar
  59   28   57 1
  60   29   30 ar
  61   29   58 1
  62   30   31 ar
  63   30   59 1
  64   31   60 1
  65   32   61 1

#	End of record

