#	Name: ASD01917003
#	Creating user name:	WinNT
#	Creation time:	15. 06. 2019 20:08

#	Modifying user name:	WinNT
#	Modification time:	15. 06. 2019 20:08

#	Program:	/corina/corina34_cracker 3.40 0067  02.08.2006

@<TRIPOS>MOLECULE
ASD01917003
  62   66    0    0    0
SMALL
NO_CHARGES


@<TRIPOS>ATOM
   1 C1            -0.0188     1.3111     0.0950 C.2     
   2 N2             0.0022     0.0222    -0.1686 N.2     
   3 N3            -1.3325    -0.4140    -0.1812 N.pl3   
   4 C4            -2.0930     0.6736     0.0837 C.2     
   5 N5            -1.2883     1.7014     0.2530 N.2     
   6 C6             1.1730     2.1882     0.2055 C.ar    
   7 C7             1.0183     3.5437     0.4903 C.ar    
   8 C8             2.4494     1.6569     0.0303 C.ar    
   9 C9             3.5553     2.4744     0.1340 C.ar    
  10 C10            3.3979     3.8253     0.4126 C.ar    
  11 C11           -1.8078    -1.7769    -0.4315 C.3     
  12 C12           -1.8436    -2.5427     0.8659 C.2     
  13 N13           -2.2514    -3.8272     0.8792 N.am    
  14 O14           -1.5053    -2.0032     1.8981 O.2     
  15 C15           -2.2939    -4.5928     2.1343 C.3     
  16 C16           -3.6794    -5.2338     2.2669 C.3     
  17 N17           -3.9740    -6.0105     1.0553 N.3     
  18 C18           -4.0367    -5.1453    -0.1302 C.3     
  19 C19           -2.6716    -4.4987    -0.3600 C.3     
  20 C20           -5.1440    -6.7351     1.2029 C.ar    
  21 N21           -5.5639    -7.4962     0.2029 N.ar    
  22 C22           -6.6777    -8.2013     0.3114 C.ar    
  23 C23           -7.4069    -8.1366     1.4884 C.ar    
  24 C24           -6.9391    -7.3306     2.5143 C.ar    
  25 N25           -5.8146    -6.6554     2.3428 N.ar    
  26 C26           -3.5699     0.7012     0.1738 C.ar    
  27 C27            2.1279     4.3563     0.5929 C.ar    
  28 C28           -4.2575     1.9069     0.0355 C.ar    
  29 C29           -5.6346     1.9261     0.1205 C.ar    
  30 C30           -6.3332     0.7528     0.3428 C.ar    
  31 C31           -5.6569    -0.4462     0.4807 C.ar    
  32 C32           -4.2804    -0.4794     0.3915 C.ar    
  33 O33            4.4892     4.6282     0.5147 O.3     
  34 C34            4.2548     6.0080     0.8032 C.3     
  35 C35            5.5921     6.7475     0.8794 C.3     
  36 H36            0.0306     3.9573     0.6303 H       
  37 H37            2.5725     0.6060    -0.1861 H       
  38 H38            4.5447     2.0632    -0.0013 H       
  39 H39           -2.8098    -1.7395    -0.8591 H       
  40 H40           -1.1337    -2.2745    -1.1287 H       
  41 H41           -1.5308    -5.3709     2.1146 H       
  42 H42           -2.1175    -3.9244     2.9771 H       
  43 H43           -3.6934    -5.8938     3.1343 H       
  44 H44           -4.4307    -4.4539     2.3906 H       
  45 H45           -4.3098    -5.7409    -1.0012 H       
  46 H46           -4.7830    -4.3665     0.0269 H       
  47 H47           -2.7429    -3.7698    -1.1673 H       
  48 H48           -1.9420    -5.2660    -0.6192 H       
  49 H49           -7.0151    -8.8196    -0.5073 H       
  50 H50           -8.3201    -8.7018     1.6034 H       
  51 H51           -7.4839    -7.2579     3.4440 H       
  52 H52            2.0084     5.4076     0.8095 H       
  53 H53           -3.7133     2.8236    -0.1373 H       
  54 H54           -6.1682     2.8590     0.0137 H       
  55 H55           -7.4109     0.7731     0.4092 H       
  56 H56           -6.2079    -1.3587     0.6541 H       
  57 H57           -3.7536    -1.4160     0.4990 H       
  58 H58            3.6423     6.4451     0.0146 H       
  59 H59            3.7358     6.0965     1.7576 H       
  60 H60            5.4133     7.7999     1.0995 H       
  61 H61            6.2046     6.3103     1.6680 H       
  62 H62            6.1111     6.6589    -0.0750 H       
@<TRIPOS>BOND
   1    1    2 2
   2    1    6 1
   3    1    5 1
   4    2    3 1
   5    3    4 1
   6    3   11 1
   7    4    5 2
   8    4   26 1
   9    6    7 ar
  10    6    8 ar
  11    7   27 ar
  12    7   36 1
  13    8    9 ar
  14    8   37 1
  15    9   10 ar
  16    9   38 1
  17   10   27 ar
  18   10   33 1
  19   11   12 1
  20   11   39 1
  21   11   40 1
  22   12   13 am
  23   12   14 2
  24   13   15 1
  25   13   19 1
  26   15   16 1
  27   15   41 1
  28   15   42 1
  29   16   17 1
  30   16   43 1
  31   16   44 1
  32   17   18 1
  33   17   20 1
  34   18   19 1
  35   18   45 1
  36   18   46 1
  37   19   47 1
  38   19   48 1
  39   20   21 ar
  40   20   25 ar
  41   21   22 ar
  42   22   23 ar
  43   22   49 1
  44   23   24 ar
  45   23   50 1
  46   24   25 ar
  47   24   51 1
  48   26   28 ar
  49   26   32 ar
  50   27   52 1
  51   28   29 ar
  52   28   53 1
  53   29   30 ar
  54   29   54 1
  55   30   31 ar
  56   30   55 1
  57   31   32 ar
  58   31   56 1
  59   32   57 1
  60   33   34 1
  61   34   35 1
  62   34   58 1
  63   34   59 1
  64   35   60 1
  65   35   61 1
  66   35   62 1

#	End of record

