#	Name: ASD01008001
#	Creating user name:	WinNT
#	Creation time:	15. 06. 2019 18:55

#	Modifying user name:	WinNT
#	Modification time:	15. 06. 2019 18:55

#	Program:	/corina/corina34_cracker 3.40 0067  02.08.2006

@<TRIPOS>MOLECULE
ASD01008001
  66   70    0    0    0
SMALL
NO_CHARGES


@<TRIPOS>ATOM
   1 C1             0.8411     2.3398     0.0987 C.2     
   2 C2             1.6891     1.1310     0.0262 C.ar    
   3 C3             3.0348     1.1958     0.3912 C.ar    
   4 C4             3.8205     0.0640     0.3217 C.ar    
   5 C5             3.2775    -1.1334    -0.1092 C.ar    
   6 C6             1.9443    -1.2045    -0.4725 C.ar    
   7 C7             1.1462    -0.0814    -0.4021 C.ar    
   8 O8             1.2702     3.4077    -0.2926 O.2     
   9 N9            -0.4098     2.2568     0.5936 N.am    
  10 C10            4.1420    -2.3655    -0.1836 C.3     
  11 C11           -1.1728     3.4776     0.8648 C.3     
  12 C12           -1.3009     3.6737     2.3767 C.3     
  13 C13           -2.0874     4.8911     2.8671 C.3     
  14 C14           -2.6869     3.4895     2.9981 C.3     
  15 N15           -4.5420     2.1497     0.0007 N.pl3   
  16 N16           -3.2584     2.3182     0.5352 N.2     
  17 C17           -2.5460     3.3575     0.2557 C.2     
  18 N18           -2.9884     4.3578    -0.5734 N.am    
  19 C19           -4.2139     4.2883    -1.1388 C.2     
  20 C20           -5.0464     3.1233    -0.8423 C.2     
  21 C21           -6.3091     2.7303    -1.2305 C.2     
  22 C22           -6.5596     1.5033    -0.6082 C.2     
  23 C23           -5.4658     1.1772     0.1273 C.2     
  24 O24           -4.6142     5.1721    -1.8750 O.2     
  25 Cl25          -7.3824     3.5927    -2.2878 Cl      
  26 C26           -2.1257     5.5099    -0.8471 C.3     
  27 C27           -1.4865     5.3482    -2.2022 C.ar    
  28 C28           -2.1087     5.8601    -3.3254 C.ar    
  29 C29           -1.5224     5.7117    -4.5685 C.ar    
  30 C30           -0.3137     5.0517    -4.6882 C.ar    
  31 C31            0.3089     4.5406    -3.5648 C.ar    
  32 C32           -0.2753     4.6928    -2.3212 C.ar    
  33 C33           -1.0064     0.9456     0.8603 C.3     
  34 C34           -1.7805     0.4770    -0.3734 C.3     
  35 C35           -2.3664    -0.9117    -0.1108 C.3     
  36 N36           -3.0040    -1.4137    -1.3353 N.3     
  37 H37            3.4600     2.1301     0.7270 H       
  38 H38            4.8618     0.1128     0.6038 H       
  39 H39            1.5265    -2.1423    -0.8080 H       
  40 H40            0.1046    -0.1393    -0.6817 H       
  41 H41            4.0994    -2.8972     0.7670 H       
  42 H42            3.7802    -3.0157    -0.9801 H       
  43 H43            5.1717    -2.0748    -0.3915 H       
  44 H44           -0.6561     4.3332     0.4299 H       
  45 H45           -0.4391     3.3606     2.9661 H       
  46 H46           -1.7433     5.3785     3.7792 H       
  47 H47           -2.5136     5.5522     2.1125 H       
  48 H48           -3.5074     3.2286     2.3297 H       
  49 H49           -2.7371     3.0549     3.9964 H       
  50 H50           -7.4619     0.9168    -0.6996 H       
  51 H51           -5.3547     0.2817     0.7207 H       
  52 H52           -2.7224     6.4220    -0.8334 H       
  53 H53           -1.3496     5.5720    -0.0843 H       
  54 H54           -3.0531     6.3757    -3.2319 H       
  55 H55           -2.0088     6.1111    -5.4461 H       
  56 H56            0.1440     4.9352    -5.6594 H       
  57 H57            1.2531     4.0246    -3.6584 H       
  58 H58            0.2130     4.2966    -1.4431 H       
  59 H59           -0.2188     0.2278     1.0894 H       
  60 H60           -1.6866     1.0218     1.7087 H       
  61 H61           -2.5881     1.1783    -0.5836 H       
  62 H62           -1.1070     0.4314    -1.2292 H       
  63 H63           -1.5689    -1.5918     0.1886 H       
  64 H64           -3.1081    -0.8486     0.6854 H       
  65 H65           -3.3990    -2.3304    -1.1876 H       
  66 H66           -3.7037    -0.7681    -1.6694 H       
@<TRIPOS>BOND
   1    1    2 1
   2    1    8 2
   3    1    9 am
   4    2    3 ar
   5    2    7 ar
   6    3    4 ar
   7    3   37 1
   8    4    5 ar
   9    4   38 1
  10    5    6 ar
  11    5   10 1
  12    6    7 ar
  13    6   39 1
  14    7   40 1
  15    9   33 1
  16    9   11 1
  17   10   41 1
  18   10   42 1
  19   10   43 1
  20   11   12 1
  21   11   17 1
  22   11   44 1
  23   12   13 1
  24   12   14 1
  25   12   45 1
  26   13   14 1
  27   13   46 1
  28   13   47 1
  29   14   48 1
  30   14   49 1
  31   15   16 1
  32   15   20 1
  33   15   23 1
  34   16   17 2
  35   17   18 1
  36   18   19 am
  37   18   26 1
  38   19   20 1
  39   19   24 2
  40   20   21 2
  41   21   22 1
  42   21   25 1
  43   22   23 2
  44   22   50 1
  45   23   51 1
  46   26   27 1
  47   26   52 1
  48   26   53 1
  49   27   28 ar
  50   27   32 ar
  51   28   29 ar
  52   28   54 1
  53   29   30 ar
  54   29   55 1
  55   30   31 ar
  56   30   56 1
  57   31   32 ar
  58   31   57 1
  59   32   58 1
  60   33   34 1
  61   33   59 1
  62   33   60 1
  63   34   35 1
  64   34   61 1
  65   34   62 1
  66   35   36 1
  67   35   63 1
  68   35   64 1
  69   36   65 1
  70   36   66 1

#	End of record

