#	Name: ASD00310303
#	Creating user name:	WinNT
#	Creation time:	15. 06. 2019 18:34

#	Modifying user name:	WinNT
#	Modification time:	15. 06. 2019 18:34

#	Program:	/corina/corina34_cracker 3.40 0067  02.08.2006

@<TRIPOS>MOLECULE
ASD00310303
  25   26    0    0    0
SMALL
NO_CHARGES


@<TRIPOS>ATOM
   1 C1            -0.0188     1.5336     0.0105 C.3     
   2 C2             0.0021    -0.0041     0.0020 C.3     
   3 C3             1.3815     0.0967    -0.6702 C.3     
   4 C4             1.5179     1.4762    -0.0045 C.3     
   5 C5            -0.6126     2.1361    -1.2367 C.2     
   6 O6            -1.0154     1.4187    -2.1215 O.2     
   7 O7            -0.6940     3.4698    -1.3646 O.3     
   8 C8            -0.5886     2.1226     1.2751 C.ar    
   9 C9            -0.6696     3.4947     1.4229 C.ar    
  10 C10           -1.1926     4.0354     2.5825 C.ar    
  11 C11           -1.6349     3.2034     3.5952 C.ar    
  12 C12           -1.5535     1.8305     3.4469 C.ar    
  13 C13           -1.0353     1.2907     2.2848 C.ar    
  14 Br14          -2.3498     3.9426     5.1821 Br      
  15 H15            0.0329    -0.4458     0.9980 H       
  16 H16           -0.7629    -0.4476    -0.6353 H       
  17 H17            2.0998    -0.6373    -0.3050 H       
  18 H18            1.3349     0.1396    -1.7584 H       
  19 H19            1.9766     2.2276    -0.6471 H       
  20 H20            1.9632     1.4391     0.9897 H       
  21 H21           -1.0824     3.8095    -2.1823 H       
  22 H22           -0.3240     4.1443     0.6324 H       
  23 H23           -1.2555     5.1074     2.6980 H       
  24 H24           -1.8984     1.1805     4.2374 H       
  25 H25           -0.9756     0.2188     2.1672 H       
@<TRIPOS>BOND
   1    1    2 1
   2    1    4 1
   3    1    5 1
   4    1    8 1
   5    2    3 1
   6    2   15 1
   7    2   16 1
   8    3    4 1
   9    3   17 1
  10    3   18 1
  11    4   19 1
  12    4   20 1
  13    5    6 2
  14    5    7 1
  15    7   21 1
  16    8    9 ar
  17    8   13 ar
  18    9   10 ar
  19    9   22 1
  20   10   11 ar
  21   10   23 1
  22   11   12 ar
  23   11   14 1
  24   12   13 ar
  25   12   24 1
  26   13   25 1

#	End of record

