#	Name: ASD00431414
#	Creating user name:	WinNT
#	Creation time:	15. 06. 2019 18:35

#	Modifying user name:	WinNT
#	Modification time:	15. 06. 2019 18:35

#	Program:	/corina/corina34_cracker 3.40 0067  02.08.2006

@<TRIPOS>MOLECULE
ASD00431414
  32   33    0    0    0
SMALL
NO_CHARGES


@<TRIPOS>ATOM
   1 C1            -0.0547     1.2311     0.0165 C.ar    
   2 C2            -0.2128    -0.1489     0.0042 C.ar    
   3 C3             0.9107    -0.9563    -0.0034 C.ar    
   4 C4             2.1637    -0.3491     0.0018 C.ar    
   5 C5             2.2441     1.0337     0.0142 C.ar    
   6 N6             1.1512     1.7733     0.0212 N.ar    
   7 O7             3.2946    -1.1043    -0.0049 O.3     
   8 C8             3.1302    -2.5197     0.1039 C.3     
   9 C9             2.8714    -3.1112    -1.2832 C.3     
  10 C10            4.4003    -3.1369     0.6927 C.3     
  11 O11           -1.1507     2.0321     0.0183 O.3     
  12 C12           -0.9609     3.3728     0.1346 C.ar    
  13 C13           -0.4987     4.1056    -0.9492 C.ar    
  14 C14           -0.3069     5.4683    -0.8289 C.ar    
  15 C15           -0.5750     6.1023     0.3711 C.ar    
  16 C16           -1.0355     5.3735     1.4531 C.ar    
  17 C17           -1.2345     4.0116     1.3354 C.ar    
  18 Br18          -0.3109     7.9678     0.5329 Br      
  19 H19           -1.2003    -0.5861     0.0008 H       
  20 H20            0.8180    -2.0323    -0.0127 H       
  21 H21            3.2123     1.5121     0.0183 H       
  22 H22            2.2842    -2.7381     0.7557 H       
  23 H23            3.7174    -2.8927    -1.9349 H       
  24 H24            2.7460    -4.1907    -1.2002 H       
  25 H25            1.9665    -2.6714    -1.7027 H       
  26 H26            4.5846    -2.7155     1.6809 H       
  27 H27            4.2749    -4.2165     0.7757 H       
  28 H28            5.2463    -2.9184     0.0410 H       
  29 H29           -0.2886     3.6109    -1.8859 H       
  30 H30            0.0528     6.0390    -1.6723 H       
  31 H31           -1.2435     5.8703     2.3892 H       
  32 H32           -1.5983     3.4438     2.1790 H       
@<TRIPOS>BOND
   1    1    2 ar
   2    1    6 ar
   3    1   11 1
   4    2    3 ar
   5    2   19 1
   6    3    4 ar
   7    3   20 1
   8    4    5 ar
   9    4    7 1
  10    5    6 ar
  11    5   21 1
  12    7    8 1
  13    8    9 1
  14    8   10 1
  15    8   22 1
  16    9   23 1
  17    9   24 1
  18    9   25 1
  19   10   26 1
  20   10   27 1
  21   10   28 1
  22   11   12 1
  23   12   13 ar
  24   12   17 ar
  25   13   14 ar
  26   13   29 1
  27   14   15 ar
  28   14   30 1
  29   15   16 ar
  30   15   18 1
  31   16   17 ar
  32   16   31 1
  33   17   32 1

#	End of record

