#	Name: ASD01911250
#	Creating user name:	WinNT
#	Creation time:	15. 06. 2019 19:57

#	Modifying user name:	WinNT
#	Modification time:	15. 06. 2019 19:57

#	Program:	/corina/corina34_cracker 3.40 0067  02.08.2006

@<TRIPOS>MOLECULE
ASD01911250
  40   41    0    0    0
SMALL
NO_CHARGES


@<TRIPOS>ATOM
   1 N1            -0.0169     1.3965     0.0097 N.2     
   2 N2             0.0021    -0.0041     0.0020 N.pl3   
   3 C3             1.2284     1.8226     0.0001 C.2     
   4 C4             2.0722     0.6950    -0.0140 C.2     
   5 C5             1.2909    -0.4070    -0.0125 C.2     
   6 C6             1.7727    -1.8348    -0.0243 C.3     
   7 C7             1.6661     3.2408     0.0036 C.ar    
   8 C8             0.7202     4.2638     0.0186 C.ar    
   9 C9             1.1315     5.5809     0.0217 C.ar    
  10 C10            2.4827     5.8868     0.0099 C.ar    
  11 C11            3.4265     4.8727    -0.0056 C.ar    
  12 C12            3.0240     3.5528    -0.0025 C.ar    
  13 C13           -1.1724    -0.8798     0.0093 C.3     
  14 C14           -1.5891    -1.1729    -1.4090 C.2     
  15 O15           -2.6495    -1.9606    -1.6477 O.3     
  16 O16           -0.9688    -0.6990    -2.3312 O.2     
  17 C17           -2.9934    -2.1997    -3.0380 C.3     
  18 C18            2.0687    -2.2850     1.4077 C.3     
  19 C19            4.8948     5.2115    -0.0189 C.3     
  20 F20            2.8811     7.1777     0.0130 F       
  21 C21            0.1094     6.6882     0.0375 C.3     
  22 H22            3.1521     0.7089    -0.0246 H       
  23 H23            1.0022    -2.4747    -0.4544 H       
  24 H24            2.6808    -1.9069    -0.6229 H       
  25 H25           -0.3333     4.0262     0.0275 H       
  26 H26            3.7603     2.7629    -0.0141 H       
  27 H27           -0.9266    -1.8130     0.5160 H       
  28 H28           -1.9905    -0.3861     0.5337 H       
  29 H29           -3.2178    -1.2508    -3.5252 H       
  30 H30           -2.1539    -2.6777    -3.5429 H       
  31 H31           -3.8665    -2.8500    -3.0897 H       
  32 H32            2.4173    -3.3178     1.3991 H       
  33 H33            2.8392    -1.6451     1.8378 H       
  34 H34            1.1607    -2.2130     2.0063 H       
  35 H35            5.2595     5.2874     1.0055 H       
  36 H36            5.4435     4.4289    -0.5428 H       
  37 H37            5.0435     6.1632    -0.5290 H       
  38 H38           -0.1271     6.9497     1.0689 H       
  39 H39            0.5120     7.5616    -0.4756 H       
  40 H40           -0.7959     6.3543    -0.4695 H       
@<TRIPOS>BOND
   1    1    2 1
   2    1    3 2
   3    2   13 1
   4    2    5 1
   5    3    4 1
   6    3    7 1
   7    4    5 2
   8    4   22 1
   9    5    6 1
  10    6   18 1
  11    6   23 1
  12    6   24 1
  13    7    8 ar
  14    7   12 ar
  15    8    9 ar
  16    8   25 1
  17    9   10 ar
  18    9   21 1
  19   10   11 ar
  20   10   20 1
  21   11   12 ar
  22   11   19 1
  23   12   26 1
  24   13   14 1
  25   13   27 1
  26   13   28 1
  27   14   15 1
  28   14   16 2
  29   15   17 1
  30   17   29 1
  31   17   30 1
  32   17   31 1
  33   18   32 1
  34   18   33 1
  35   18   34 1
  36   19   35 1
  37   19   36 1
  38   19   37 1
  39   21   38 1
  40   21   39 1
  41   21   40 1

#	End of record

