#	Name: ASD03331021
#	Creating user name:	WinNT
#	Creation time:	15. 06. 2019 20:38

#	Modifying user name:	WinNT
#	Modification time:	15. 06. 2019 20:38

#	Program:	/corina/corina34_cracker 3.40 0067  02.08.2006

@<TRIPOS>MOLECULE
ASD03331021
  70   73    0    0    0
SMALL
NO_CHARGES


@<TRIPOS>ATOM
   1 N1            -0.1144     1.2726     0.4300 N.pl3   
   2 C2            -0.0295    -0.0795     0.3153 C.2     
   3 C3             1.2461    -0.8806     0.2993 C.3     
   4 N4             2.1115    -0.4315     1.4011 N.3     
   5 C5             2.9738     0.6746     0.9809 C.3     
   6 C6             2.2645     1.5637    -0.0365 C.3     
   7 C7             1.0187     2.1868     0.5991 C.3     
   8 C8            -1.4363     1.6056     0.3704 C.2     
   9 N9            -2.1401     0.5053     0.2426 N.2     
  10 C10           -1.3015    -0.5536     0.2083 C.2     
  11 C11           -1.6933    -1.9681     0.0778 C.2     
  12 O12           -0.8413    -2.8358     0.0584 O.2     
  13 N13           -2.9958    -2.3003    -0.0201 N.am    
  14 C14            2.9066    -1.5459     1.9338 C.3     
  15 C15           -1.9845     2.9775     0.4388 C.ar    
  16 C16           -2.9539     3.3927    -0.4783 C.ar    
  17 C17           -3.4612     4.6765    -0.4077 C.ar    
  18 C18           -3.0108     5.5480     0.5671 C.ar    
  19 C19           -2.0513     5.1419     1.4774 C.ar    
  20 C20           -1.5406     3.8612     1.4226 C.ar    
  21 C21           -1.5667     6.0992     2.5356 C.3     
  22 F22           -2.2281     7.3239     2.3945 F       
  23 F23           -1.8335     5.5684     3.8022 F       
  24 F24           -0.1888     6.2942     2.3924 F       
  25 F25           -3.3934     2.5419    -1.4313 F       
  26 C26           -4.7250    -3.7957    -0.8343 C.2     
  27 C27           -3.3853    -3.7066    -0.1499 C.3     
  28 C28           -3.4794    -4.3400     1.2397 C.3     
  29 C29           -4.0183    -5.7665     1.1145 C.3     
  30 O30           -5.5738    -2.9571    -0.6171 O.2     
  31 C31           -2.0901    -4.3740     1.8797 C.3     
  32 C32           -4.4238    -3.5130     2.1143 C.3     
  33 N33           -4.9798    -4.8073    -1.6876 N.am    
  34 C34           -6.2724    -5.0784    -2.3336 C.3     
  35 C35           -6.0958    -6.3443    -3.1984 C.3     
  36 C36           -4.8710    -7.0408    -2.5489 C.3     
  37 C37           -4.0069    -5.8215    -2.1329 C.3     
  38 F38           -7.2293    -7.1604    -3.1185 F       
  39 F39           -5.8234    -6.0019    -4.5273 F       
  40 H40            1.0139    -1.9380     0.4262 H       
  41 H41            1.7586    -0.7306    -0.6510 H       
  42 H42            3.2415     1.2713     1.8529 H       
  43 H43            3.8814     0.2706     0.5322 H       
  44 H44            2.9407     2.3551    -0.3598 H       
  45 H45            1.9706     0.9649    -0.8985 H       
  46 H46            0.7969     3.1361     0.1116 H       
  47 H47            1.1965     2.3542     1.6614 H       
  48 H48           -3.6753    -1.6083    -0.0047 H       
  49 H49            3.4807    -2.0010     1.1267 H       
  50 H50            3.5877    -1.1732     2.6988 H       
  51 H51            2.2414    -2.2904     2.3711 H       
  52 H52           -4.2104     4.9997    -1.1153 H       
  53 H53           -3.4096     6.5503     0.6179 H       
  54 H54           -0.7952     3.5450     2.1373 H       
  55 H55           -2.6392    -4.2372    -0.7413 H       
  56 H56           -3.3048    -6.3772     0.5612 H       
  57 H57           -4.1635    -6.1886     2.1089 H       
  58 H58           -4.9704    -5.7499     0.5842 H       
  59 H59           -1.7062    -3.3578     1.9689 H       
  60 H60           -2.1571    -4.8253     2.8697 H       
  61 H61           -1.4173    -4.9632     1.2566 H       
  62 H62           -5.4135    -3.4888     1.6583 H       
  63 H63           -4.4908    -3.9643     3.1043 H       
  64 H64           -4.0398    -2.4968     2.2035 H       
  65 H65           -7.0366    -5.2508    -1.5758 H       
  66 H66           -6.5558    -4.2354    -2.9638 H       
  67 H67           -5.1701    -7.6267    -1.6798 H       
  68 H68           -4.3444    -7.6614    -3.2740 H       
  69 H69           -3.4350    -5.4509    -2.9836 H       
  70 H70           -3.3393    -6.0917    -1.3147 H       
@<TRIPOS>BOND
   1    1    2 1
   2    1    7 1
   3    1    8 1
   4    2    3 1
   5    2   10 2
   6    3    4 1
   7    3   40 1
   8    3   41 1
   9    4    5 1
  10    4   14 1
  11    5    6 1
  12    5   42 1
  13    5   43 1
  14    6    7 1
  15    6   44 1
  16    6   45 1
  17    7   46 1
  18    7   47 1
  19    8    9 2
  20    8   15 1
  21    9   10 1
  22   10   11 1
  23   11   12 2
  24   11   13 am
  25   13   27 1
  26   13   48 1
  27   14   49 1
  28   14   50 1
  29   14   51 1
  30   15   16 ar
  31   15   20 ar
  32   16   17 ar
  33   16   25 1
  34   17   18 ar
  35   17   52 1
  36   18   19 ar
  37   18   53 1
  38   19   20 ar
  39   19   21 1
  40   20   54 1
  41   21   22 1
  42   21   23 1
  43   21   24 1
  44   26   30 2
  45   26   33 am
  46   26   27 1
  47   27   28 1
  48   27   55 1
  49   28   29 1
  50   28   31 1
  51   28   32 1
  52   29   56 1
  53   29   57 1
  54   29   58 1
  55   31   59 1
  56   31   60 1
  57   31   61 1
  58   32   62 1
  59   32   63 1
  60   32   64 1
  61   33   34 1
  62   33   37 1
  63   34   35 1
  64   34   65 1
  65   34   66 1
  66   35   36 1
  67   35   38 1
  68   35   39 1
  69   36   37 1
  70   36   67 1
  71   36   68 1
  72   37   69 1
  73   37   70 1

#	End of record

