#	Name: ASD01885657
#	Creating user name:	WinNT
#	Creation time:	15. 06. 2019 19:49

#	Modifying user name:	WinNT
#	Modification time:	15. 06. 2019 19:49

#	Program:	/corina/corina34_cracker 3.40 0067  02.08.2006

@<TRIPOS>MOLECULE
ASD01885657
  47   50    0    0    0
SMALL
NO_CHARGES


@<TRIPOS>ATOM
   1 C1            -0.0160     1.3290     0.0093 C.ar    
   2 C2             1.2006     2.0571     0.0016 C.ar    
   3 C3             2.4279     1.3474    -0.0140 C.ar    
   4 C4             2.3762    -0.0398    -0.0210 C.ar    
   5 C5             1.1334    -0.6832    -0.0126 C.ar    
   6 N6             0.0021    -0.0041     0.0020 N.ar    
   7 C7            -1.2256     3.3958     0.0263 C.ar    
   8 C8            -0.0270     4.1070     0.0236 C.ar    
   9 C9             1.1708     3.4578     0.0091 C.ar    
  10 C10            3.7240     2.0634    -0.0230 C.ar    
  11 C11            1.0867    -2.1653    -0.0201 C.2     
  12 C12           -2.5327     4.1456     0.0360 C.3     
  13 C13           -1.2343     2.0355     0.0189 C.ar    
  14 N14           -2.9504     4.3810     1.4204 N.am    
  15 C15            4.7207     1.7180     0.8901 C.ar    
  16 C16            5.9263     2.3875     0.8773 C.ar    
  17 C17            6.1486     3.4019    -0.0406 C.ar    
  18 C18            5.1615     3.7490    -0.9494 C.ar    
  19 C19            3.9546     3.0816    -0.9484 C.ar    
  20 F20            7.3314     4.0548    -0.0491 F       
  21 C21           -2.5487     5.5051     2.0323 C.2     
  22 C22           -2.9535     5.8110     3.4501 C.3     
  23 C23           -3.1657     4.4958     4.2075 C.3     
  24 C24           -4.1921     3.6528     3.4434 C.3     
  25 C25           -3.7240     3.4665     2.0243 C.2     
  26 N26           -0.1011    -2.8021    -0.0120 N.am    
  27 O27            2.1192    -2.8056    -0.0335 O.2     
  28 O28           -1.8457     6.2897     1.4324 O.2     
  29 O29           -4.0459     2.4670     1.4185 O.2     
  30 H30            3.2882    -0.6182    -0.0333 H       
  31 H31           -0.0480     5.1868     0.0285 H       
  32 H32            2.0928     4.0202     0.0037 H       
  33 H33           -2.4072     5.1012    -0.4731 H       
  34 H34           -3.2929     3.5572    -0.4778 H       
  35 H35           -2.1718     1.4994     0.0200 H       
  36 H36            4.5482     0.9279     1.6059 H       
  37 H37            6.6984     2.1211     1.5840 H       
  38 H38            5.3409     4.5376    -1.6651 H       
  39 H39            3.1876     3.3498    -1.6599 H       
  40 H40           -2.1677     6.3889     3.9367 H       
  41 H41           -3.8807     6.3841     3.4486 H       
  42 H42           -2.2220     3.9541     4.2717 H       
  43 H43           -3.5386     4.7067     5.2098 H       
  44 H44           -4.2960     2.6805     3.9251 H       
  45 H45           -5.1547     4.1642     3.4417 H       
  46 H46           -0.9254    -2.2910    -0.0013 H       
  47 H47           -0.1316    -3.7716    -0.0169 H       
@<TRIPOS>BOND
   1    1    6 ar
   2    1    2 ar
   3    1   13 ar
   4    2    3 ar
   5    2    9 ar
   6    3   10 1
   7    3    4 ar
   8    4    5 ar
   9    4   30 1
  10    5   11 1
  11    5    6 ar
  12    7   12 1
  13    7   13 ar
  14    7    8 ar
  15    8    9 ar
  16    8   31 1
  17    9   32 1
  18   10   15 ar
  19   10   19 ar
  20   11   26 am
  21   11   27 2
  22   12   14 1
  23   12   33 1
  24   12   34 1
  25   13   35 1
  26   14   21 am
  27   14   25 am
  28   15   16 ar
  29   15   36 1
  30   16   17 ar
  31   16   37 1
  32   17   20 1
  33   17   18 ar
  34   18   19 ar
  35   18   38 1
  36   19   39 1
  37   21   22 1
  38   21   28 2
  39   22   23 1
  40   22   40 1
  41   22   41 1
  42   23   24 1
  43   23   42 1
  44   23   43 1
  45   24   25 1
  46   24   44 1
  47   24   45 1
  48   25   29 2
  49   26   46 1
  50   26   47 1

#	End of record

