#	Name: ASD03090162
#	Creating user name:	WinNT
#	Creation time:	15. 06. 2019 20:28

#	Modifying user name:	WinNT
#	Modification time:	15. 06. 2019 20:28

#	Program:	/corina/corina34_cracker 3.40 0067  02.08.2006

@<TRIPOS>MOLECULE
ASD03090162
  49   51    0    0    0
SMALL
NO_CHARGES


@<TRIPOS>ATOM
   1 N1             0.0051     1.1515     1.2722 N.ar    
   2 C2             0.0633    -0.1663     1.2653 C.ar    
   3 C3             1.2506    -0.8218     1.0110 C.ar    
   4 C4             2.4012    -0.0673     0.7581 C.ar    
   5 C5             2.2931     1.3275     0.7749 C.ar    
   6 C6             1.0658     1.9002     1.0388 C.ar    
   7 C7             3.6971    -0.7263     0.4807 C.2     
   8 N8             5.7115    -3.4488    -0.4601 N.pl3   
   9 C9             4.8719    -4.4978    -0.8441 C.ar    
  10 C10            3.6670    -4.2278    -1.4801 C.ar    
  11 C11            2.8397    -5.2670    -1.8588 C.ar    
  12 C12            3.2099    -6.5749    -1.6054 C.ar    
  13 C13            4.4090    -6.8473    -0.9722 C.ar    
  14 C14            5.2432    -5.8134    -0.5957 C.ar    
  15 N15            3.8647    -1.9753     0.0950 N.2     
  16 C16            5.1650    -2.2277    -0.0603 C.2     
  17 N17            5.8488    -1.1428     0.2241 N.2     
  18 N18            4.9171    -0.1517     0.5728 N.pl3   
  19 C19            5.2098     1.2286     0.9668 C.3     
  20 C20            5.2591     2.1017    -0.2605 C.2     
  21 N21            5.5150     3.4195    -0.1402 N.am    
  22 O22            5.0685     1.6185    -1.3564 O.2     
  23 C23            5.5629     4.2682    -1.3334 C.3     
  24 C24            5.8686     5.7098    -0.9218 C.3     
  25 O25            7.1799     5.7762    -0.3577 O.3     
  26 C26            7.5664     7.0864     0.0620 C.3     
  27 C27            4.8082    -8.2744    -0.6981 C.3     
  28 F28            3.8132    -9.1362    -1.1719 F       
  29 F29            6.0153    -8.5539    -1.3477 F       
  30 F30            4.9667    -8.4579     0.6797 F       
  31 H31           -0.8304    -0.7400     1.4617 H       
  32 H32            1.2911    -1.9010     1.0077 H       
  33 H33            3.1574     1.9466     0.5850 H       
  34 H34            0.9722     2.9760     1.0536 H       
  35 H35            6.6740    -3.5690    -0.4712 H       
  36 H36            3.3771    -3.2064    -1.6780 H       
  37 H37            1.9025    -5.0578    -2.3530 H       
  38 H38            2.5610    -7.3856    -1.9022 H       
  39 H39            6.1794    -6.0268    -0.1014 H       
  40 H40            4.4294     1.5883     1.6375 H       
  41 H41            6.1723     1.2644     1.4771 H       
  42 H42            5.6675     3.8059     0.7363 H       
  43 H43            6.3433     3.9085    -2.0040 H       
  44 H44            4.6004     4.2324    -1.8436 H       
  45 H45            5.8167     6.3565    -1.7977 H       
  46 H46            5.1381     6.0394    -0.1830 H       
  47 H47            7.5497     7.7616    -0.7935 H       
  48 H48            6.8711     7.4445     0.8212 H       
  49 H49            8.5731     7.0523     0.4784 H       
@<TRIPOS>BOND
   1    1    2 ar
   2    1    6 ar
   3    2    3 ar
   4    2   31 1
   5    3    4 ar
   6    3   32 1
   7    4    5 ar
   8    4    7 1
   9    5    6 ar
  10    5   33 1
  11    6   34 1
  12    7   15 2
  13    7   18 1
  14    8    9 1
  15    8   16 1
  16    8   35 1
  17    9   10 ar
  18    9   14 ar
  19   10   11 ar
  20   10   36 1
  21   11   12 ar
  22   11   37 1
  23   12   13 ar
  24   12   38 1
  25   13   14 ar
  26   13   27 1
  27   14   39 1
  28   15   16 1
  29   16   17 2
  30   17   18 1
  31   18   19 1
  32   19   20 1
  33   19   40 1
  34   19   41 1
  35   20   21 am
  36   20   22 2
  37   21   23 1
  38   21   42 1
  39   23   24 1
  40   23   43 1
  41   23   44 1
  42   24   25 1
  43   24   45 1
  44   24   46 1
  45   25   26 1
  46   26   47 1
  47   26   48 1
  48   26   49 1
  49   27   28 1
  50   27   29 1
  51   27   30 1

#	End of record

