#	Name: ASD05740110
#	Creating user name:	WinNT
#	Creation time:	15. 06. 2019 21:02

#	Modifying user name:	WinNT
#	Modification time:	15. 06. 2019 21:02

#	Program:	/corina/corina34_cracker 3.40 0067  02.08.2006

@<TRIPOS>MOLECULE
ASD05740110
  50   53    0    0    0
SMALL
NO_CHARGES


@<TRIPOS>ATOM
   1 C1            -0.0612     1.4752     0.2094 C.3     
   2 C2            -2.9156     1.1728    -1.6466 C.ar    
   3 C3             1.2033    -0.7145     0.0923 C.2     
   4 C4             1.2301    -2.0988     0.1060 C.2     
   5 C5            -0.0243    -0.0313     0.2224 C.2     
   6 C6            -1.1761    -0.7460     0.3603 C.2     
   7 C7            -1.1152    -2.1488     0.3699 C.2     
   8 O8             0.0573    -2.7833     0.2459 O.3     
   9 C9            -2.4997    -0.0393     0.5014 C.3     
  10 C10           -3.1569     0.0709    -0.8502 C.ar    
  11 C11           -4.0014    -0.9316    -1.2915 C.ar    
  12 O12           -2.1412    -2.7961     0.4929 O.2     
  13 C13           -3.5219     1.2736    -2.8926 C.ar    
  14 C14           -4.3687     0.2646    -3.3330 C.ar    
  15 C15           -4.6061    -0.8347    -2.5311 C.ar    
  16 N16           -3.2801     2.3869    -3.7007 N.am    
  17 S17           -4.5382     3.1413    -4.4690 S.o2    
  18 O18           -3.9771     4.2407    -5.1731 O.2     
  19 O19           -5.2941     2.1175    -5.1014 O.2     
  20 C20            2.5178    -2.6181    -0.0328 C.2     
  21 C21            3.4957    -1.7204    -0.1538 C.2     
  22 S22            2.8402    -0.0929    -0.0917 S.3     
  23 O23            2.7604    -3.9585    -0.0435 O.3     
  24 C24            2.6513    -4.6154    -1.2238 C.2     
  25 N25            2.9280    -5.8680    -1.4041 N.2     
  26 S26            2.1212    -3.9133    -2.6897 S.3     
  27 C27            2.3253    -5.4565    -3.5148 C.2     
  28 C28            2.7635    -6.3470    -2.6237 C.2     
  29 N29           -5.5134     3.7858    -3.2960 N.am    
  30 C30           -5.2762     5.1486    -2.8135 C.3     
  31 C31           -6.6132     2.9932    -2.7407 C.3     
  32 H32            0.9509     1.8624     0.0913 H       
  33 H33           -0.6798     1.8163    -0.6207 H       
  34 H34           -0.4812     1.8365     1.1481 H       
  35 H35           -2.2599     1.9576    -1.2994 H       
  36 H36           -3.1441    -0.6057     1.1737 H       
  37 H37           -2.3371     0.9586     0.9088 H       
  38 H38           -4.1887    -1.7922    -0.6665 H       
  39 H39           -4.8411     0.3395    -4.3013 H       
  40 H40           -5.2644    -1.6196    -2.8729 H       
  41 H41           -2.3752     2.7181    -3.8119 H       
  42 H42            4.5425    -1.9600    -0.2689 H       
  43 H43            2.1272    -5.6486    -4.5589 H       
  44 H44            2.9692    -7.3760    -2.8794 H       
  45 H45           -5.8472     5.8528    -3.4187 H       
  46 H46           -5.5908     5.2255    -1.7728 H       
  47 H47           -4.2141     5.3815    -2.8903 H       
  48 H48           -6.6326     2.0137    -3.2186 H       
  49 H49           -6.4671     2.8709    -1.6674 H       
  50 H50           -7.5581     3.5051    -2.9228 H       
@<TRIPOS>BOND
   1    1    5 1
   2    1   32 1
   3    1   33 1
   4    1   34 1
   5    2   10 ar
   6    2   13 ar
   7    2   35 1
   8    3    4 2
   9    3    5 1
  10    3   22 1
  11    4   20 1
  12    4    8 1
  13    5    6 2
  14    6    7 1
  15    6    9 1
  16    7    8 1
  17    7   12 2
  18    9   10 1
  19    9   36 1
  20    9   37 1
  21   10   11 ar
  22   11   15 ar
  23   11   38 1
  24   13   14 ar
  25   13   16 1
  26   14   15 ar
  27   14   39 1
  28   15   40 1
  29   16   17 am
  30   16   41 1
  31   17   18 2
  32   17   19 2
  33   17   29 am
  34   20   21 2
  35   20   23 1
  36   21   22 1
  37   21   42 1
  38   23   24 1
  39   24   25 2
  40   24   26 1
  41   25   28 1
  42   26   27 1
  43   27   28 2
  44   27   43 1
  45   28   44 1
  46   29   30 1
  47   29   31 1
  48   30   45 1
  49   30   46 1
  50   30   47 1
  51   31   48 1
  52   31   49 1
  53   31   50 1

#	End of record

