#	Name: ASD01885466
#	Creating user name:	WinNT
#	Creation time:	15. 06. 2019 19:49

#	Modifying user name:	WinNT
#	Modification time:	15. 06. 2019 19:49

#	Program:	/corina/corina34_cracker 3.40 0067  02.08.2006

@<TRIPOS>MOLECULE
ASD01885466
  49   52    0    0    0
SMALL
NO_CHARGES


@<TRIPOS>ATOM
   1 C1             0.1903     1.2245     0.1420 C.ar    
   2 C2             0.3022    -0.1657     0.1636 C.ar    
   3 N3            -0.7597    -1.0085     0.2291 N.2     
   4 C4            -1.8646    -0.8910    -0.4123 C.2     
   5 C5            -2.1290     0.2754    -1.3279 C.3     
   6 C6            -2.1172     1.5352    -0.4996 C.2     
   7 N7            -1.0229     1.8997     0.1676 N.am    
   8 C8             1.3456     2.0033     0.0860 C.ar    
   9 C9             2.5964     1.4110     0.0463 C.ar    
  10 C10            2.7088     0.0243     0.0622 C.ar    
  11 C11            1.5788    -0.7547     0.1202 C.ar    
  12 C12           -2.9015    -1.9239    -0.2494 C.ar    
  13 O13           -3.1135     2.2245    -0.4414 O.2     
  14 C14           -4.1532    -1.7635    -0.8506 C.ar    
  15 C15           -5.1195    -2.7352    -0.6941 C.ar    
  16 C16           -4.8528    -3.8669     0.0557 C.ar    
  17 C17           -3.6151    -4.0334     0.6546 C.ar    
  18 C18           -2.6369    -3.0724     0.5026 C.ar    
  19 N19            3.7455     2.2057    -0.0102 N.am    
  20 C20            4.8705     1.8094     0.6174 C.2     
  21 Br21          -3.2629    -5.5847     1.6770 Br      
  22 O22            4.8592     0.8127     1.3137 O.2     
  23 N23            6.0079     2.5179     0.4732 N.am    
  24 C24            7.2307     2.0871     1.1554 C.3     
  25 C25            8.3499     3.0430     0.8317 C.ar    
  26 C26            8.5683     4.1481     1.6328 C.ar    
  27 C27            9.5949     5.0250     1.3359 C.ar    
  28 C28           10.4033     4.7964     0.2381 C.ar    
  29 C29           10.1854     3.6908    -0.5625 C.ar    
  30 C30            9.1616     2.8116    -0.2631 C.ar    
  31 H31           -1.3514     0.3287    -2.0898 H       
  32 H32           -3.1028     0.1567    -1.8031 H       
  33 H33           -1.0781     2.6976     0.7164 H       
  34 H34            1.2638     3.0801     0.0730 H       
  35 H35            3.6837    -0.4393     0.0288 H       
  36 H36            1.6715    -1.8306     0.1325 H       
  37 H37           -4.3633    -0.8806    -1.4360 H       
  38 H38           -6.0871    -2.6122    -1.1579 H       
  39 H39           -5.6136    -4.6242     0.1748 H       
  40 H40           -1.6721    -3.2031     0.9700 H       
  41 H41            3.7330     3.0423    -0.5011 H       
  42 H42            6.0169     3.3130    -0.0823 H       
  43 H43            7.0616     2.0768     2.2321 H       
  44 H44            7.5000     1.0854     0.8203 H       
  45 H45            7.9367     4.3267     2.4905 H       
  46 H46            9.7651     5.8888     1.9614 H       
  47 H47           11.2049     5.4819     0.0058 H       
  48 H48           10.8168     3.5124    -1.4203 H       
  49 H49            8.9914     1.9478    -0.8885 H       
@<TRIPOS>BOND
   1    1    2 ar
   2    1    8 ar
   3    1    7 1
   4    2    3 1
   5    2   11 ar
   6    3    4 2
   7    4    5 1
   8    4   12 1
   9    5    6 1
  10    5   31 1
  11    5   32 1
  12    6    7 am
  13    6   13 2
  14    7   33 1
  15    8    9 ar
  16    8   34 1
  17    9   10 ar
  18    9   19 1
  19   10   11 ar
  20   10   35 1
  21   11   36 1
  22   12   14 ar
  23   12   18 ar
  24   14   15 ar
  25   14   37 1
  26   15   16 ar
  27   15   38 1
  28   16   17 ar
  29   16   39 1
  30   17   18 ar
  31   17   21 1
  32   18   40 1
  33   19   20 am
  34   19   41 1
  35   20   22 2
  36   20   23 am
  37   23   24 1
  38   23   42 1
  39   24   25 1
  40   24   43 1
  41   24   44 1
  42   25   26 ar
  43   25   30 ar
  44   26   27 ar
  45   26   45 1
  46   27   28 ar
  47   27   46 1
  48   28   29 ar
  49   28   47 1
  50   29   30 ar
  51   29   48 1
  52   30   49 1

#	End of record

