#	Name: ASD01885631
#	Creating user name:	WinNT
#	Creation time:	15. 06. 2019 19:49

#	Modifying user name:	WinNT
#	Modification time:	15. 06. 2019 19:49

#	Program:	/corina/corina34_cracker 3.40 0067  02.08.2006

@<TRIPOS>MOLECULE
ASD01885631
  31   33    0    0    0
SMALL
NO_CHARGES


@<TRIPOS>ATOM
   1 C1            -0.0172     1.4135     0.0098 C.ar    
   2 C2             0.0021    -0.0041     0.0020 C.ar    
   3 C3            -1.2279    -0.7096     0.0099 C.ar    
   4 C4            -2.4019     0.0314     0.0251 C.ar    
   5 C5            -2.3346     1.4291     0.0320 C.ar    
   6 N6            -1.1792     2.0668     0.0299 N.ar    
   7 C7             1.2052     2.1129     0.0019 C.ar    
   8 C8             2.3774     1.4228    -0.0130 C.ar    
   9 C9             2.3912     0.0292    -0.0210 C.ar    
  10 C10            1.2285    -0.6812    -0.0128 C.ar    
  11 C11           -1.2592    -2.1896     0.0017 C.ar    
  12 C12           -0.7531    -2.9071     1.0873 C.ar    
  13 C13           -0.7850    -4.2873     1.0741 C.ar    
  14 C14           -1.3178    -4.9595    -0.0138 C.ar    
  15 C15           -1.8214    -4.2511    -1.0939 C.ar    
  16 C16           -1.7998    -2.8725    -1.0885 C.ar    
  17 C17           -3.5930     2.2133     0.0482 C.2     
  18 N18           -3.5476     3.5603     0.0551 N.am    
  19 O19           -4.6650     1.6415     0.0553 O.2     
  20 F20           -1.3464    -6.3102    -0.0224 F       
  21 Cl21          -0.0848    -2.0655     2.4507 Cl      
  22 H22           -3.3599    -0.4671     0.0311 H       
  23 H23            1.2120     3.1928     0.0072 H       
  24 H24            3.3123     1.9635    -0.0190 H       
  25 H25            3.3357    -0.4944    -0.0335 H       
  26 H26            1.2522    -1.7609    -0.0185 H       
  27 H27           -0.3936    -4.8438     1.9129 H       
  28 H28           -2.2357    -4.7802    -1.9394 H       
  29 H29           -2.1925    -2.3221    -1.9306 H       
  30 H30           -2.6918     4.0167     0.0494 H       
  31 H31           -4.3708     4.0732     0.0657 H       
@<TRIPOS>BOND
   1    1    2 ar
   2    1    7 ar
   3    1    6 ar
   4    2    3 ar
   5    2   10 ar
   6    3    4 ar
   7    3   11 1
   8    4    5 ar
   9    4   22 1
  10    5    6 ar
  11    5   17 1
  12    7    8 ar
  13    7   23 1
  14    8    9 ar
  15    8   24 1
  16    9   10 ar
  17    9   25 1
  18   10   26 1
  19   11   12 ar
  20   11   16 ar
  21   12   13 ar
  22   12   21 1
  23   13   14 ar
  24   13   27 1
  25   14   15 ar
  26   14   20 1
  27   15   16 ar
  28   15   28 1
  29   16   29 1
  30   17   18 am
  31   17   19 2
  32   18   30 1
  33   18   31 1

#	End of record

