#	Name: ASD01911415
#	Creating user name:	WinNT
#	Creation time:	15. 06. 2019 19:57

#	Modifying user name:	WinNT
#	Modification time:	15. 06. 2019 19:57

#	Program:	/corina/corina34_cracker 3.40 0067  02.08.2006

@<TRIPOS>MOLECULE
ASD01911415
  28   30    0    0    0
SMALL
NO_CHARGES


@<TRIPOS>ATOM
   1 C1            -0.0167     1.3822     0.0096 C.ar    
   2 C2             0.0021    -0.0041     0.0020 C.ar    
   3 C3             1.2086    -0.6868    -0.0127 C.ar    
   4 C4             2.3980     0.0099    -0.0203 C.ar    
   5 C5             2.3859     1.4079    -0.0131 C.ar    
   6 C6             1.1658     2.0904     0.0022 C.ar    
   7 C7             3.6179     2.1377    -0.0205 C.1     
   8 C8             4.6280     2.7360    -0.0265 C.1     
   9 C9             5.8601     3.4658    -0.0338 C.ar    
  10 C10            5.8432     4.8681    -0.0266 C.ar    
  11 C11            7.0361     5.5646    -0.0333 C.ar    
  12 C12            8.2623     4.8642    -0.0474 C.ar    
  13 C13            8.2703     3.4750    -0.0548 C.ar    
  14 C14            7.0781     2.7790    -0.0424 C.ar    
  15 C15            7.3913     6.9999    -0.0286 C.2     
  16 N16            8.7321     7.1082    -0.0393 N.am    
  17 C17            9.3163     5.8968    -0.0507 C.2     
  18 O18           10.5130     5.6875    -0.0619 O.2     
  19 O19            6.6049     7.9253    -0.0177 O.2     
  20 F20           -1.1603    -0.6926     0.0094 F       
  21 H21           -0.9599     1.9082     0.0170 H       
  22 H22            1.2166    -1.7667    -0.0178 H       
  23 H23            3.3373    -0.5231    -0.0314 H       
  24 H24            1.1498     3.1703     0.0074 H       
  25 H25            4.9034     5.4002    -0.0162 H       
  26 H26            9.2084     2.9400    -0.0660 H       
  27 H27            7.0861     1.6991    -0.0478 H       
  28 H28            9.2144     7.9497    -0.0389 H       
@<TRIPOS>BOND
   1    1    2 ar
   2    1    6 ar
   3    1   21 1
   4    2    3 ar
   5    2   20 1
   6    3    4 ar
   7    3   22 1
   8    4    5 ar
   9    4   23 1
  10    5    6 ar
  11    5    7 1
  12    6   24 1
  13    7    8 3
  14    8    9 1
  15    9   10 ar
  16    9   14 ar
  17   10   11 ar
  18   10   25 1
  19   11   12 ar
  20   11   15 1
  21   12   13 ar
  22   12   17 1
  23   13   14 ar
  24   13   26 1
  25   14   27 1
  26   15   16 am
  27   15   19 2
  28   16   17 am
  29   16   28 1
  30   17   18 2

#	End of record

