#	Name: ASD01940366
#	Creating user name:	WinNT
#	Creation time:	15. 06. 2019 20:12

#	Modifying user name:	WinNT
#	Modification time:	15. 06. 2019 20:12

#	Program:	/corina/corina34_cracker 3.40 0067  02.08.2006

@<TRIPOS>MOLECULE
ASD01940366
  54   57    0    0    0
SMALL
NO_CHARGES


@<TRIPOS>ATOM
   1 C1             2.1200     3.8337    -3.2096 C.3     
   2 C2             2.7909     3.1361    -4.3946 C.3     
   3 C3             2.5562     4.6476    -4.4295 C.3     
   4 S4             0.3416     3.5630    -2.9757 S.o2    
   5 O5            -0.3906     4.0782    -4.0792 O.2     
   6 O6             0.0973     2.2532    -2.4816 O.2     
   7 N7            -0.0655     4.5573    -1.7155 N.am    
   8 C8             0.1182     5.9419    -1.8280 C.ar    
   9 C9             0.5096     6.6872    -0.7164 C.ar    
  10 C10            0.6901     8.0586    -0.8335 C.ar    
  11 C11            0.4809     8.6822    -2.0537 C.ar    
  12 C12            0.0924     7.9402    -3.1555 C.ar    
  13 C13           -0.0834     6.5726    -3.0461 C.ar    
  14 N14            0.7198     6.0535     0.5159 N.pl3   
  15 C15            0.7687     8.2943     4.0320 C.ar    
  16 C16           -0.4374     8.0587     3.3722 C.ar    
  17 C17           -0.4522     7.3171     2.2086 C.ar    
  18 C18            0.7361     6.8048     1.6941 C.ar    
  19 C19            1.9376     7.0392     2.3509 C.ar    
  20 C20            1.9563     7.7801     3.5143 C.ar    
  21 C21            0.7883     9.0960     5.2792 C.ar    
  22 C22            1.4472     8.6124     6.4161 C.ar    
  23 C23            1.4599     9.3698     7.5781 C.ar    
  24 C24            0.8241    10.5964     7.6114 C.ar    
  25 C25            0.1720    11.0761     6.4893 C.ar    
  26 C26            0.1563    10.3360     5.3238 C.ar    
  27 S27            2.0936     6.4052     7.7238 S.o2    
  28 O28            2.7438     5.2162     7.2962 O.2     
  29 O29            2.6555     7.2217     8.7421 O.2     
  30 N30            2.0881     7.3735     6.3805 N.am    
  31 C31            0.3396     6.0862     8.0591 C.3     
  32 F32           -1.6197     7.0876     1.5687 F       
  33 F33            0.6561    10.0170    -2.1674 F       
  34 F34            1.0688     8.7849     0.2408 F       
  35 H35            2.7030     3.9453    -2.2954 H       
  36 H36            3.8152     2.7887    -4.2599 H       
  37 H37            2.1636     2.5145    -5.0336 H       
  38 H38            1.7746     5.0204    -5.0915 H       
  39 H39            3.4262     5.2946    -4.3179 H       
  40 H40           -0.4311     4.1813    -0.8995 H       
  41 H41           -0.0696     8.4298    -4.1045 H       
  42 H42           -0.3822     5.9963    -3.9091 H       
  43 H43            0.8540     5.0935     0.5510 H       
  44 H44           -1.3588     8.4559     3.7718 H       
  45 H45            2.8580     6.6407     1.9504 H       
  46 H46            2.8910     7.9614     4.0242 H       
  47 H47            1.9666     9.0006     8.4574 H       
  48 H48            0.8360    11.1834     8.5179 H       
  49 H49           -0.3230    12.0353     6.5239 H       
  50 H50           -0.3498    10.7164     4.4488 H       
  51 H51            2.5304     7.0794     5.5688 H       
  52 H52            0.2479     5.4483     8.9382 H       
  53 H53           -0.1732     7.0307     8.2404 H       
  54 H54           -0.1097     5.5878     7.2001 H       
@<TRIPOS>BOND
   1    1    2 1
   2    1    3 1
   3    1    4 1
   4    1   35 1
   5    2    3 1
   6    2   36 1
   7    2   37 1
   8    3   38 1
   9    3   39 1
  10    4    5 2
  11    4    6 2
  12    4    7 am
  13    7    8 1
  14    7   40 1
  15    8    9 ar
  16    8   13 ar
  17    9   10 ar
  18    9   14 1
  19   10   11 ar
  20   10   34 1
  21   11   12 ar
  22   11   33 1
  23   12   13 ar
  24   12   41 1
  25   13   42 1
  26   14   18 1
  27   14   43 1
  28   15   16 ar
  29   15   20 ar
  30   15   21 1
  31   16   17 ar
  32   16   44 1
  33   17   18 ar
  34   17   32 1
  35   18   19 ar
  36   19   20 ar
  37   19   45 1
  38   20   46 1
  39   21   22 ar
  40   21   26 ar
  41   22   23 ar
  42   22   30 1
  43   23   24 ar
  44   23   47 1
  45   24   25 ar
  46   24   48 1
  47   25   26 ar
  48   25   49 1
  49   26   50 1
  50   27   28 2
  51   27   29 2
  52   27   30 am
  53   27   31 1
  54   30   51 1
  55   31   52 1
  56   31   53 1
  57   31   54 1

#	End of record

