#	Name: ASD03090601
#	Creating user name:	WinNT
#	Creation time:	15. 06. 2019 20:29

#	Modifying user name:	WinNT
#	Modification time:	15. 06. 2019 20:29

#	Program:	/corina/corina34_cracker 3.40 0067  02.08.2006

@<TRIPOS>MOLECULE
ASD03090601
  34   35    0    0    0
SMALL
NO_CHARGES


@<TRIPOS>ATOM
   1 N1            -0.0162     1.3436     0.0094 N.am    
   2 C2            -0.0612     0.1290     0.5920 C.2     
   3 O3             0.9569    -0.3759     1.0244 O.2     
   4 N4            -1.2346    -0.5258     0.6953 N.am    
   5 S5            -2.6957    -2.7178     1.4937 S.3     
   6 C6            -1.2810    -1.7782     1.2961 C.2     
   7 N7            -0.2579    -2.4042     1.7878 N.2     
   8 C8            -0.4835    -3.5899     2.3228 C.2     
   9 C9            -1.7574    -3.9841     2.2811 C.2     
  10 C10           -2.2993    -5.2849     2.8150 C.3     
  11 C11            1.1763     3.4545    -0.1185 C.ar    
  12 C12            1.1879     2.0647    -0.0180 C.ar    
  13 C13            2.4075     1.4021     0.0553 C.ar    
  14 C14            3.5714     2.1543     0.0253 C.ar    
  15 C15            3.4848     3.5346    -0.0762 C.ar    
  16 N16            2.3084     4.1375    -0.1438 N.ar    
  17 O17            4.6210     4.2770    -0.1061 O.3     
  18 C18            4.4676     5.6938    -0.2115 C.3     
  19 O19           -0.0081     4.1132    -0.1965 O.3     
  20 C20            0.0471     5.5375    -0.2978 C.3     
  21 H21           -0.8149     1.7176    -0.3944 H       
  22 H22           -2.0468    -0.1229     0.3504 H       
  23 H23            0.2998    -4.1922     2.7587 H       
  24 H24           -3.3743    -5.3299     2.6401 H       
  25 H25           -1.8133    -6.1173     2.3060 H       
  26 H26           -2.1024    -5.3486     3.8852 H       
  27 H27            2.4474     0.3257     0.1342 H       
  28 H28            4.5354     1.6705     0.0806 H       
  29 H29            5.4501     6.1656    -0.2251 H       
  30 H30            3.9364     5.9342    -1.1325 H       
  31 H31            3.8994     6.0623     0.6425 H       
  32 H32            0.5972     5.8168    -1.1964 H       
  33 H33           -0.9654     5.9373    -0.3527 H       
  34 H34            0.5516     5.9448     0.5784 H       
@<TRIPOS>BOND
   1    1    2 am
   2    1   12 1
   3    1   21 1
   4    2    3 2
   5    2    4 am
   6    4    6 1
   7    4   22 1
   8    5    6 1
   9    5    9 1
  10    6    7 2
  11    7    8 1
  12    8    9 2
  13    8   23 1
  14    9   10 1
  15   10   24 1
  16   10   25 1
  17   10   26 1
  18   11   12 ar
  19   11   16 ar
  20   11   19 1
  21   12   13 ar
  22   13   14 ar
  23   13   27 1
  24   14   15 ar
  25   14   28 1
  26   15   16 ar
  27   15   17 1
  28   17   18 1
  29   18   29 1
  30   18   30 1
  31   18   31 1
  32   19   20 1
  33   20   32 1
  34   20   33 1
  35   20   34 1

#	End of record

