#	Name: ASD00311329
#	Creating user name:	WinNT
#	Creation time:	15. 06. 2019 18:34

#	Modifying user name:	WinNT
#	Modification time:	15. 06. 2019 18:34

#	Program:	/corina/corina34_cracker 3.40 0067  02.08.2006

@<TRIPOS>MOLECULE
ASD00311329
  38   41    0    0    0
SMALL
NO_CHARGES


@<TRIPOS>ATOM
   1 C1            -0.0167     1.3778     0.0096 C.2     
   2 C2             0.0021    -0.0041     0.0020 C.2     
   3 C3             1.2589    -0.6766    -0.0139 C.2     
   4 C4             2.4316     0.0673    -0.0214 C.2     
   5 C5             2.3574     1.4753    -0.0131 C.2     
   6 N6             1.1648     2.0904     0.0022 N.am    
   7 C7            -1.3431    -0.5750     0.0126 C.2     
   8 C8            -2.3223     0.3256     0.0274 C.2     
   9 S9            -1.6794     1.9560     0.0358 S.3     
  10 O10            3.3822     2.1374    -0.0196 O.2     
  11 C11            3.7477    -0.6119    -0.0375 C.ar    
  12 C12            4.5932    -0.4744    -1.1382 C.ar    
  13 C13            5.8180    -1.1097    -1.1473 C.ar    
  14 C14            6.2081    -1.8817    -0.0675 C.ar    
  15 C15            5.3739    -2.0218     1.0272 C.ar    
  16 C16            4.1490    -1.3868     1.0505 C.ar    
  17 O17            1.3089    -2.0291    -0.0212 O.3     
  18 C18           -1.5955    -2.0355     0.0069 C.ar    
  19 C19           -2.4688    -2.5971     0.9367 C.ar    
  20 C20           -2.7028    -3.9625     0.9281 C.ar    
  21 C21           -2.0690    -4.7707    -0.0045 C.ar    
  22 C22           -1.1991    -4.2151    -0.9314 C.ar    
  23 C23           -0.9645    -2.8497    -0.9320 C.ar    
  24 O24           -0.5799    -5.0105    -1.8429 O.3     
  25 O25           -3.5539    -4.5110     1.8347 O.3     
  26 H26            1.1326     3.0598     0.0073 H       
  27 H27           -3.3749     0.0838     0.0362 H       
  28 H28            4.2896     0.1277    -1.9818 H       
  29 H29            6.4735    -1.0043    -1.9992 H       
  30 H30            7.1676    -2.3772    -0.0794 H       
  31 H31            5.6838    -2.6258     1.8671 H       
  32 H32            3.5005    -1.4934     1.9075 H       
  33 H33            2.2062    -2.3895    -0.0320 H       
  34 H34           -2.9623    -1.9686     1.6632 H       
  35 H35           -2.2529    -5.8349    -0.0087 H       
  36 H36           -0.2907    -2.4172    -1.6567 H       
  37 H37           -1.0734    -5.1222    -2.6670 H       
  38 H38           -4.4731    -4.5509     1.5371 H       
@<TRIPOS>BOND
   1    1    2 2
   2    1    6 1
   3    1    9 1
   4    2    3 1
   5    2    7 1
   6    3    4 2
   7    3   17 1
   8    4    5 1
   9    4   11 1
  10    5    6 am
  11    5   10 2
  12    6   26 1
  13    7    8 2
  14    7   18 1
  15    8    9 1
  16    8   27 1
  17   11   12 ar
  18   11   16 ar
  19   12   13 ar
  20   12   28 1
  21   13   14 ar
  22   13   29 1
  23   14   15 ar
  24   14   30 1
  25   15   16 ar
  26   15   31 1
  27   16   32 1
  28   17   33 1
  29   18   19 ar
  30   18   23 ar
  31   19   20 ar
  32   19   34 1
  33   20   21 ar
  34   20   25 1
  35   21   22 ar
  36   21   35 1
  37   22   23 ar
  38   22   24 1
  39   23   36 1
  40   24   37 1
  41   25   38 1

#	End of record

