#	Name: ASD04840104
#	Creating user name:	WinNT
#	Creation time:	15. 06. 2019 20:52

#	Modifying user name:	WinNT
#	Modification time:	15. 06. 2019 20:52

#	Program:	/corina/corina34_cracker 3.40 0067  02.08.2006

@<TRIPOS>MOLECULE
ASD04840104
  52   51    0    0    0
SMALL
NO_CHARGES


@<TRIPOS>ATOM
   1 C1            -0.0272     0.9054    -1.0653 C.3     
   2 O2            -0.6254     0.4918     0.1648 O.3     
   3 C3             1.3519     1.4497    -0.7953 C.2     
   4 C4             1.7272     2.5815    -1.3378 C.2     
   5 C5             0.8314     3.2739    -2.3325 C.3     
   6 C6             3.0547     3.1910    -0.9674 C.3     
   7 C7             4.1120     2.7711    -1.9905 C.3     
   8 C8             5.4395     3.3807    -1.6201 C.2     
   9 C9             6.4838     2.6121    -1.4333 C.2     
  10 C10            6.3288     1.1132    -1.4493 C.3     
  11 C11            7.8402     3.2270    -1.2025 C.3     
  12 C12            8.1040     3.3306     0.3010 C.3     
  13 C13            9.4604     3.9454     0.5319 C.2     
  14 C14            9.5769     5.0113     1.2845 C.2     
  15 C15            8.3545     5.6226     1.9195 C.3     
  16 C16           10.9332     5.6261     1.5153 C.3     
  17 P17           -2.1032    -0.1411     0.2520 P.3     
  18 O18           -3.0734     0.7828    -0.3768 O.2     
  19 O19           -2.1286    -1.5533    -0.5206 O.3     
  20 O20           -2.5001    -0.3667     1.7959 O.3     
  21 P21           -3.8848    -0.6589     2.5635 P.3     
  22 O22           -4.6435    -1.6991     1.8337 O.2     
  23 O23           -3.5725    -1.1713     4.0575 O.3     
  24 O24           -4.7566     0.6930     2.6311 O.3     
  25 H25            0.0447     0.0518    -1.7394 H       
  26 H26           -0.6402     1.6807    -1.5249 H       
  27 H27            2.0308     0.9068    -0.1544 H       
  28 H28            0.1217     3.9086    -1.8019 H       
  29 H29            1.4363     3.8856    -3.0018 H       
  30 H30            0.2884     2.5281    -2.9131 H       
  31 H31            2.9665     4.2774    -0.9610 H       
  32 H32            3.3498     2.8446     0.0231 H       
  33 H33            4.2001     1.6847    -1.9968 H       
  34 H34            3.8169     3.1175    -2.9810 H       
  35 H35            5.5299     4.4511    -1.5085 H       
  36 H36            6.3664     0.7550    -2.4781 H       
  37 H37            7.1369     0.6583    -0.8765 H       
  38 H38            5.3711     0.8422    -1.0050 H       
  39 H39            8.6054     2.6025    -1.6635 H       
  40 H40            7.8680     4.2224    -1.6457 H       
  41 H41            7.3388     3.9551     0.7620 H       
  42 H42            8.0761     2.3351     0.7442 H       
  43 H43           10.3364     3.5073     0.0768 H       
  44 H44            7.8792     4.8901     2.5720 H       
  45 H45            8.6466     6.4948     2.5043 H       
  46 H46            7.6536     5.9250     1.1414 H       
  47 H47           11.1300     6.3718     0.7451 H       
  48 H48           10.9543     6.1021     2.4957 H       
  49 H49           11.6964     4.8491     1.4723 H       
  50 H50           -1.5156    -2.2093    -0.1613 H       
  51 H51           -4.3627    -1.3671     4.5794 H       
  52 H52           -4.3201     1.4196     3.0965 H       
@<TRIPOS>BOND
   1    1    2 1
   2    1    3 1
   3    1   25 1
   4    1   26 1
   5    2   17 1
   6    3    4 2
   7    3   27 1
   8    4    5 1
   9    4    6 1
  10    5   28 1
  11    5   29 1
  12    5   30 1
  13    6    7 1
  14    6   31 1
  15    6   32 1
  16    7    8 1
  17    7   33 1
  18    7   34 1
  19    8    9 2
  20    8   35 1
  21    9   10 1
  22    9   11 1
  23   10   36 1
  24   10   37 1
  25   10   38 1
  26   11   12 1
  27   11   39 1
  28   11   40 1
  29   12   13 1
  30   12   41 1
  31   12   42 1
  32   13   14 2
  33   13   43 1
  34   14   15 1
  35   14   16 1
  36   15   44 1
  37   15   45 1
  38   15   46 1
  39   16   47 1
  40   16   48 1
  41   16   49 1
  42   17   18 2
  43   17   19 1
  44   17   20 1
  45   19   50 1
  46   20   21 1
  47   21   22 2
  48   21   23 1
  49   21   24 1
  50   23   51 1
  51   24   52 1

#	End of record

