#	Name: ASD01916175
#	Creating user name:	WinNT
#	Creation time:	15. 06. 2019 20:06

#	Modifying user name:	WinNT
#	Modification time:	15. 06. 2019 20:06

#	Program:	/corina/corina34_cracker 3.40 0067  02.08.2006

@<TRIPOS>MOLECULE
ASD01916175
  44   47    0    0    0
SMALL
NO_CHARGES


@<TRIPOS>ATOM
   1 C1             0.0127     1.3788     0.0674 C.ar    
   2 C2             0.0262    -0.0025     0.0483 C.ar    
   3 C3             1.2350    -0.6832     0.0430 C.ar    
   4 C4             2.4275     0.0255     0.0568 C.ar    
   5 C5             2.4087     1.4067     0.0758 C.ar    
   6 C6             1.2026     2.0828     0.0811 C.ar    
   7 O7             1.2509    -2.0420     0.0247 O.3     
   8 C8             2.5316    -2.6758     0.0202 C.3     
   9 C9             2.3516    -4.1719    -0.0005 C.2     
  10 C10            2.2571    -4.9718    -1.1478 C.2     
  11 N11            2.2622    -4.9490     1.0509 N.2     
  12 N12            2.1062    -6.2654     0.6089 N.pl3   
  13 C13            2.1018    -6.2484    -0.7462 C.2     
  14 C14            1.9784    -7.4708     1.4326 C.3     
  15 C15            1.3765    -8.5986     0.5872 C.3     
  16 N16            2.0603    -8.6471    -0.7140 N.am    
  17 C17            1.9402    -7.4796    -1.6060 C.3     
  18 C18            2.7796    -9.7264    -1.0804 C.2     
  19 C19            3.3481    -9.8078    -2.4414 C.ar    
  20 O20            2.9605   -10.6329    -0.2908 O.2     
  21 C21            4.5857   -10.4208    -2.6483 C.ar    
  22 C22            4.4140    -9.9609    -4.9934 C.ar    
  23 C23            3.1821    -9.3563    -4.7944 C.ar    
  24 C24            2.6472    -9.2772    -3.5265 C.ar    
  25 C25            5.1114   -10.4944    -3.9204 C.ar    
  26 F26            4.9339   -10.0354    -6.2381 F       
  27 F27            2.3114    -4.5400    -2.4268 F       
  28 H28           -0.9280     1.9092     0.0670 H       
  29 H29           -0.9036    -0.5519     0.0379 H       
  30 H30            3.3699    -0.5022     0.0530 H       
  31 H31            3.3368     1.9588     0.0869 H       
  32 H32            1.1900     3.1626     0.0960 H       
  33 H33            3.0880    -2.3645    -0.8639 H       
  34 H34            3.0823    -2.3885     0.9159 H       
  35 H35            2.9622    -7.7714     1.7930 H       
  36 H36            1.3265    -7.2644     2.2813 H       
  37 H37            1.5075    -9.5498     1.1030 H       
  38 H38            0.3139    -8.4107     0.4332 H       
  39 H39            0.9584    -7.4728    -2.0795 H       
  40 H40            2.7206    -7.5105    -2.3662 H       
  41 H41            5.1302   -10.8360    -1.8131 H       
  42 H42            2.6409    -8.9463    -5.6343 H       
  43 H43            1.6877    -8.8061    -3.3726 H       
  44 H44            6.0685   -10.9683    -4.0815 H       
@<TRIPOS>BOND
   1    1    2 ar
   2    1    6 ar
   3    1   28 1
   4    2    3 ar
   5    2   29 1
   6    3    4 ar
   7    3    7 1
   8    4    5 ar
   9    4   30 1
  10    5    6 ar
  11    5   31 1
  12    6   32 1
  13    7    8 1
  14    8    9 1
  15    8   33 1
  16    8   34 1
  17    9   10 1
  18    9   11 2
  19   10   27 1
  20   10   13 2
  21   11   12 1
  22   12   13 1
  23   12   14 1
  24   13   17 1
  25   14   15 1
  26   14   35 1
  27   14   36 1
  28   15   16 1
  29   15   37 1
  30   15   38 1
  31   16   17 1
  32   16   18 am
  33   17   39 1
  34   17   40 1
  35   18   19 1
  36   18   20 2
  37   19   21 ar
  38   19   24 ar
  39   21   25 ar
  40   21   41 1
  41   22   23 ar
  42   22   26 1
  43   22   25 ar
  44   23   24 ar
  45   23   42 1
  46   24   43 1
  47   25   44 1

#	End of record

