#	Name: ASD03430122
#	Creating user name:	WinNT
#	Creation time:	15. 06. 2019 20:40

#	Modifying user name:	WinNT
#	Modification time:	15. 06. 2019 20:40

#	Program:	/corina/corina34_cracker 3.40 0067  02.08.2006

@<TRIPOS>MOLECULE
ASD03430122
  49   55    0    0    0
SMALL
NO_CHARGES


@<TRIPOS>ATOM
   1 C1             0.3992     1.1583    -0.5320 C.ar    
   2 C2             0.3742    -0.2208    -0.4097 C.ar    
   3 C3             1.5480    -0.9225    -0.2297 C.ar    
   4 C4             2.7680    -0.2569    -0.1570 C.ar    
   5 C5             2.7905     1.1286    -0.2845 C.ar    
   6 C6             1.6156     1.8344    -0.4714 C.ar    
   7 O7             3.7952    -1.1297     0.0513 O.3     
   8 C8             1.8513    -2.3904    -0.0926 C.3     
   9 C9             3.3695    -2.4583    -0.3077 C.3     
  10 C10            0.5631    -3.9733     0.9808 C.ar    
  11 C11            1.4502    -2.9354     1.2456 C.ar    
  12 C12            1.1077    -3.2208    -1.0992 C.2     
  13 N13            0.3833    -4.1152    -0.3976 N.am    
  14 O14            1.1501    -3.1083    -2.3061 O.2     
  15 C15            1.7830    -2.6097     2.5527 C.ar    
  16 C16            1.2244    -3.3276     3.6100 C.ar    
  17 C17            0.3437    -4.3578     3.3479 C.ar    
  18 C18            0.0125    -4.6811     2.0473 C.ar    
  19 C19            2.7305    -1.5002     2.8250 C.2     
  20 O20           -0.5994     2.0705    -0.7202 O.3     
  21 C21           -0.0288     3.3438    -0.3645 C.3     
  22 O22            1.3783     3.1708    -0.6222 O.3     
  23 C23           -0.4902    -5.1198    -1.0092 C.3     
  24 C24           -1.8755    -4.5491    -1.1715 C.2     
  25 C25           -2.3137    -3.8887    -2.2439 C.2     
  26 C26           -3.6269    -3.4562    -2.1667 C.2     
  27 C27           -4.2546    -3.7663    -1.0300 C.2     
  28 S28           -3.1631    -4.6588     0.0215 S.3     
  29 Cl29          -5.8986    -3.3575    -0.6508 Cl      
  30 C30            4.0005    -1.5797     3.5552 C.2     
  31 C31            4.5098    -0.3363     3.5502 C.2     
  32 O32            3.6708     0.4764     2.8902 O.3     
  33 C33            2.6040    -0.2028     2.4447 C.2     
  34 H34           -0.5670    -0.7485    -0.4549 H       
  35 H35            3.7316     1.6565    -0.2369 H       
  36 H36            3.6036    -2.6711    -1.3508 H       
  37 H37            3.8210    -3.2005     0.3507 H       
  38 H38            1.4800    -3.0789     4.6294 H       
  39 H39           -0.0894    -4.9144     4.1658 H       
  40 H40           -0.6781    -5.4888     1.8550 H       
  41 H41           -0.4370     4.1354    -0.9929 H       
  42 H42           -0.2042     3.5611     0.6891 H       
  43 H43           -0.0952    -5.3984    -1.9862 H       
  44 H44           -0.5332    -6.0016    -0.3698 H       
  45 H45           -1.6914    -3.7048    -3.1072 H       
  46 H46           -4.1066    -2.9095    -2.9651 H       
  47 H47            4.4371    -2.4589     4.0056 H       
  48 H48            5.4435    -0.0391     4.0044 H       
  49 H49            1.7798     0.2132     1.8842 H       
@<TRIPOS>BOND
   1    1    2 ar
   2    1    6 ar
   3    1   20 1
   4    2    3 ar
   5    2   34 1
   6    3    4 ar
   7    3    8 1
   8    4    5 ar
   9    4    7 1
  10    5    6 ar
  11    5   35 1
  12    6   22 1
  13    7    9 1
  14    8    9 1
  15    8   11 1
  16    8   12 1
  17    9   36 1
  18    9   37 1
  19   10   11 ar
  20   10   13 1
  21   10   18 ar
  22   11   15 ar
  23   12   13 am
  24   12   14 2
  25   13   23 1
  26   15   16 ar
  27   15   19 1
  28   16   17 ar
  29   16   38 1
  30   17   18 ar
  31   17   39 1
  32   18   40 1
  33   19   30 1
  34   19   33 2
  35   20   21 1
  36   21   22 1
  37   21   41 1
  38   21   42 1
  39   23   24 1
  40   23   43 1
  41   23   44 1
  42   24   25 2
  43   24   28 1
  44   25   26 1
  45   25   45 1
  46   26   27 2
  47   26   46 1
  48   27   28 1
  49   27   29 1
  50   30   31 2
  51   30   47 1
  52   31   32 1
  53   31   48 1
  54   32   33 1
  55   33   49 1

#	End of record

