#	Name: ASD01882246
#	Creating user name:	WinNT
#	Creation time:	15. 06. 2019 19:44

#	Modifying user name:	WinNT
#	Modification time:	15. 06. 2019 19:44

#	Program:	/corina/corina34_cracker 3.40 0067  02.08.2006

@<TRIPOS>MOLECULE
ASD01882246
  33   34    0    0    0
SMALL
NO_CHARGES


@<TRIPOS>ATOM
   1 O1            -0.0173     1.4248     0.0099 O.3     
   2 C2             0.0021    -0.0041     0.0020 C.3     
   3 C3             1.2831     0.8325    -0.0057 C.3     
   4 C4            -0.3680    -0.7292     1.2974 C.3     
   5 O5            -1.5561    -1.4961     1.0913 O.3     
   6 C6            -2.0238    -2.2062     2.1515 C.ar    
   7 C7            -3.1727    -2.9728     2.0218 C.ar    
   8 C8            -3.6462    -3.6936     3.1010 C.ar    
   9 C9            -2.9759    -3.6515     4.3096 C.ar    
  10 C10           -1.8308    -2.8879     4.4415 C.ar    
  11 C11           -1.3499    -2.1701     3.3636 C.ar    
  12 C12           -3.4945    -4.4389     5.4852 C.3     
  13 C13           -3.5239    -5.9267     5.1296 C.3     
  14 C14           -2.5771    -4.2205     6.6900 C.3     
  15 C15           -4.9092    -3.9688     5.8297 C.3     
  16 H16           -0.2792    -0.5108    -0.9211 H       
  17 H17            1.8523     0.8812    -0.9340 H       
  18 H18            1.8699     0.8713     0.9120 H       
  19 H19            0.4467    -1.3924     1.5881 H       
  20 H20           -0.5402     0.0024     2.0869 H       
  21 H21           -3.6969    -3.0057     1.0781 H       
  22 H22           -4.5408    -4.2903     3.0007 H       
  23 H23           -1.3094    -2.8561     5.3868 H       
  24 H24           -0.4527    -1.5777     3.4657 H       
  25 H25           -2.5161    -6.2616     4.8842 H       
  26 H26           -3.8991    -6.4962     5.9799 H       
  27 H27           -4.1775    -6.0823     4.2713 H       
  28 H28           -2.5561    -3.1606     6.9434 H       
  29 H29           -2.9522    -4.7900     7.5403 H       
  30 H30           -1.5692    -4.5554     6.4446 H       
  31 H31           -5.5628    -4.1244     4.9714 H       
  32 H32           -5.2844    -4.5383     6.6800 H       
  33 H33           -4.8883    -2.9089     6.0830 H       
@<TRIPOS>BOND
   1    1    2 1
   2    1    3 1
   3    2    3 1
   4    2    4 1
   5    2   16 1
   6    3   17 1
   7    3   18 1
   8    4    5 1
   9    4   19 1
  10    4   20 1
  11    5    6 1
  12    6    7 ar
  13    6   11 ar
  14    7    8 ar
  15    7   21 1
  16    8    9 ar
  17    8   22 1
  18    9   10 ar
  19    9   12 1
  20   10   11 ar
  21   10   23 1
  22   11   24 1
  23   12   13 1
  24   12   15 1
  25   12   14 1
  26   13   25 1
  27   13   26 1
  28   13   27 1
  29   14   28 1
  30   14   29 1
  31   14   30 1
  32   15   31 1
  33   15   32 1
  34   15   33 1

#	End of record

