#	Name: ASD01810117
#	Creating user name:	WinNT
#	Creation time:	15. 06. 2019 19:23

#	Modifying user name:	WinNT
#	Modification time:	15. 06. 2019 19:23

#	Program:	/corina/corina34_cracker 3.40 0067  02.08.2006

@<TRIPOS>MOLECULE
ASD01810117
  50   54    0    0    0
SMALL
NO_CHARGES


@<TRIPOS>ATOM
   1 C1            -0.0167     1.3820     0.0096 C.ar    
   2 C2             0.0021    -0.0041     0.0020 C.ar    
   3 C3             1.1959    -0.6932    -0.0127 C.ar    
   4 C4             2.4016     0.0019    -0.0200 C.ar    
   5 C5             2.3831     1.4075    -0.0128 C.ar    
   6 C6             1.1665     2.0939     0.0022 C.ar    
   7 N7             3.6010    -0.6771    -0.0337 N.pl3   
   8 C8             4.7870    -0.0549    -0.0404 C.2     
   9 C9             4.8957     1.3208    -0.0340 C.2     
  10 C10            3.6667     2.1313    -0.0207 C.2     
  11 O11            3.7091     3.3491    -0.0150 O.2     
  12 C12            6.2161     1.9660    -0.0412 C.2     
  13 O13            6.3092     3.3109    -0.0348 O.3     
  14 O14            7.2244     1.2870    -0.0529 O.2     
  15 C15            3.5775    -2.1419    -0.0409 C.3     
  16 C16            3.5572    -2.6371    -1.4640 C.ar    
  17 C17            4.7462    -2.8829    -2.1260 C.ar    
  18 C18            4.7311    -3.3372    -3.4302 C.ar    
  19 C19            3.5200    -3.5471    -4.0768 C.ar    
  20 C20            2.3276    -3.2992    -3.4091 C.ar    
  21 C21            2.3496    -2.8501    -2.1033 C.ar    
  22 N22            3.5011    -4.0071    -5.3990 N.pl3   
  23 F23            1.1476     3.4448     0.0091 F       
  24 C24            2.5671    -4.8602    -5.9327 C.ar    
  25 C25            2.9234    -5.0586    -7.2807 C.ar    
  26 C26            4.1285    -4.2670    -7.5073 C.2     
  27 N27            4.4274    -3.6667    -6.3903 N.2     
  28 C28            1.4410    -5.4994    -5.4215 C.ar    
  29 C29            0.6942    -6.3104    -6.2286 C.ar    
  30 C30            1.0439    -6.5076    -7.5589 C.ar    
  31 C31            2.1420    -5.8931    -8.0875 C.ar    
  32 C32            4.8884    -4.1585    -8.8042 C.3     
  33 H33           -0.9604     1.9071     0.0170 H       
  34 H34           -0.9295    -0.5505     0.0080 H       
  35 H35            1.1956    -1.7731    -0.0181 H       
  36 H36            5.6884    -0.6497    -0.0508 H       
  37 H37            7.1990     3.6894    -0.0400 H       
  38 H38            4.4660    -2.5220     0.4634 H       
  39 H39            2.6863    -2.4936     0.4789 H       
  40 H40            5.6877    -2.7192    -1.6228 H       
  41 H41            5.6600    -3.5287    -3.9467 H       
  42 H42            1.3842    -3.4614    -3.9092 H       
  43 H43            1.4228    -2.6574    -1.5834 H       
  44 H44            1.1585    -5.3549    -4.3892 H       
  45 H45           -0.1784    -6.8045    -5.8276 H       
  46 H46            0.4406    -7.1525    -8.1806 H       
  47 H47            2.4070    -6.0510    -9.1225 H       
  48 H48            4.4922    -3.3283    -9.3891 H       
  49 H49            5.9435    -3.9837    -8.5936 H       
  50 H50            4.7790    -5.0849    -9.3680 H       
@<TRIPOS>BOND
   1    1    2 ar
   2    1    6 ar
   3    1   33 1
   4    2    3 ar
   5    2   34 1
   6    3    4 ar
   7    3   35 1
   8    4    5 ar
   9    4    7 1
  10    5    6 ar
  11    5   10 1
  12    6   23 1
  13    7    8 1
  14    7   15 1
  15    8    9 2
  16    8   36 1
  17    9   10 1
  18    9   12 1
  19   10   11 2
  20   12   13 1
  21   12   14 2
  22   13   37 1
  23   15   16 1
  24   15   38 1
  25   15   39 1
  26   16   17 ar
  27   16   21 ar
  28   17   18 ar
  29   17   40 1
  30   18   19 ar
  31   18   41 1
  32   19   20 ar
  33   19   22 1
  34   20   21 ar
  35   20   42 1
  36   21   43 1
  37   22   24 1
  38   22   27 1
  39   24   25 ar
  40   24   28 ar
  41   25   26 1
  42   25   31 ar
  43   26   27 2
  44   26   32 1
  45   28   29 ar
  46   28   44 1
  47   29   30 ar
  48   29   45 1
  49   30   31 ar
  50   30   46 1
  51   31   47 1
  52   32   48 1
  53   32   49 1
  54   32   50 1

#	End of record

