#	Name: ASD02500119
#	Creating user name:	WinNT
#	Creation time:	15. 06. 2019 20:22

#	Modifying user name:	WinNT
#	Modification time:	15. 06. 2019 20:22

#	Program:	/corina/corina34_cracker 3.40 0067  02.08.2006

@<TRIPOS>MOLECULE
ASD02500119
  59   63    0    0    0
SMALL
NO_CHARGES


@<TRIPOS>ATOM
   1 S1             0.8453     3.9898     3.5197 S.3     
   2 C2             0.7867     4.4997     1.8922 C.2     
   3 N3             1.8938     4.2782     1.2906 N.2     
   4 C4             2.8886     3.7054     1.9947 C.ar    
   5 C5             2.5079     3.4470     3.3164 C.ar    
   6 C6             3.4051     2.8551     4.2024 C.ar    
   7 C7             4.6721     2.5223     3.7781 C.ar    
   8 C8             5.0558     2.7759     2.4691 C.ar    
   9 C9             4.1919     3.3546     1.5892 C.ar    
  10 S10            6.6800     2.3451     1.9389 S.o2    
  11 O11            6.9277     3.0931     0.7564 O.2     
  12 O12            7.5096     2.4145     3.0905 O.2     
  13 N13            6.6415     0.7528     1.4857 N.am    
  14 C14            6.3685    -0.2320     2.4285 C.ar    
  15 C15            5.4517    -1.2383     2.1364 C.ar    
  16 C16            5.1794    -2.2143     3.0674 C.ar    
  17 C17            5.8244    -2.1948     4.3075 C.ar    
  18 C18            6.7444    -1.1831     4.5978 C.ar    
  19 C19            7.0167    -0.2131     3.6604 C.ar    
  20 C20            5.5344    -3.2394     5.3080 C.2     
  21 O21            6.4366    -3.7131     5.9714 O.2     
  22 N22            4.2693    -3.6686     5.4868 N.am    
  23 C23            3.9436    -4.6389     6.5430 C.3     
  24 C24            2.7740    -4.0883     7.3660 C.3     
  25 N25            1.6621    -3.7522     6.4668 N.3     
  26 C26            2.0386    -2.6860     5.5291 C.3     
  27 C27            3.1770    -3.1745     4.6348 C.3     
  28 C28            0.5184    -3.4007     7.1930 C.ar    
  29 C29           -0.1322    -4.3526     7.9757 C.ar    
  30 C30           -1.2629    -3.9991     8.6925 C.ar    
  31 C31           -1.7447    -2.7040     8.6304 C.ar    
  32 C32           -1.1004    -1.7594     7.8540 C.ar    
  33 C33            0.0329    -2.1027     7.1401 C.ar    
  34 O34            0.3422    -5.6260     8.0352 O.3     
  35 C35           -0.3757    -6.5480     8.8577 C.3     
  36 H36           -0.0770     4.9524     1.4280 H       
  37 H37            3.1073     2.6577     5.2216 H       
  38 H38            5.3680     2.0637     4.4650 H       
  39 H39            4.5074     3.5448     0.5739 H       
  40 H40            6.8094     0.5071     0.5624 H       
  41 H41            4.9535    -1.2526     1.1783 H       
  42 H42            4.4679    -2.9944     2.8404 H       
  43 H43            7.2440    -1.1651     5.5551 H       
  44 H44            7.7309     0.5661     3.8823 H       
  45 H45            3.6584    -5.5893     6.0919 H       
  46 H46            4.8101    -4.7822     7.1886 H       
  47 H47            2.4472    -4.8416     8.0828 H       
  48 H48            3.0941    -3.1930     7.8990 H       
  49 H49            1.1785    -2.4223     4.9137 H       
  50 H50            2.3689    -1.8102     6.0877 H       
  51 H51            3.5370    -2.3501     4.0193 H       
  52 H52            2.8167    -3.9814     3.9967 H       
  53 H53           -1.7690    -4.7349     9.2998 H       
  54 H54           -2.6270    -2.4302     9.1898 H       
  55 H55           -1.4806    -0.7496     7.8080 H       
  56 H56            0.5371    -1.3615     6.5378 H       
  57 H57           -0.3807    -6.1890     9.8869 H       
  58 H58           -1.4010    -6.6339     8.4979 H       
  59 H59            0.1071    -7.5243     8.8158 H       
@<TRIPOS>BOND
   1    1    2 1
   2    1    5 1
   3    2    3 2
   4    2   36 1
   5    3    4 1
   6    4    5 ar
   7    4    9 ar
   8    5    6 ar
   9    6    7 ar
  10    6   37 1
  11    7    8 ar
  12    7   38 1
  13    8    9 ar
  14    8   10 1
  15    9   39 1
  16   10   11 2
  17   10   12 2
  18   10   13 am
  19   13   14 1
  20   13   40 1
  21   14   15 ar
  22   14   19 ar
  23   15   16 ar
  24   15   41 1
  25   16   17 ar
  26   16   42 1
  27   17   18 ar
  28   17   20 1
  29   18   19 ar
  30   18   43 1
  31   19   44 1
  32   20   21 2
  33   20   22 am
  34   22   23 1
  35   22   27 1
  36   23   24 1
  37   23   45 1
  38   23   46 1
  39   24   25 1
  40   24   47 1
  41   24   48 1
  42   25   26 1
  43   25   28 1
  44   26   27 1
  45   26   49 1
  46   26   50 1
  47   27   51 1
  48   27   52 1
  49   28   29 ar
  50   28   33 ar
  51   29   30 ar
  52   29   34 1
  53   30   31 ar
  54   30   53 1
  55   31   32 ar
  56   31   54 1
  57   32   33 ar
  58   32   55 1
  59   33   56 1
  60   34   35 1
  61   35   57 1
  62   35   58 1
  63   35   59 1

#	End of record

