#	Name: ASD05720004
#	Creating user name:	WinNT
#	Creation time:	15. 06. 2019 21:01

#	Modifying user name:	WinNT
#	Modification time:	15. 06. 2019 21:01

#	Program:	/corina/corina34_cracker 3.40 0067  02.08.2006

@<TRIPOS>MOLECULE
ASD05720004
  51   55    0    0    0
SMALL
NO_CHARGES


@<TRIPOS>ATOM
   1 O1            -0.1054     1.1928     0.1315 O.3     
   2 C2             0.0757    -0.1224    -0.0317 C.2     
   3 N3             1.3625    -0.4852    -0.1229 N.am    
   4 C4             2.2046     0.7157    -0.0116 C.3     
   5 C5             1.1888     1.8613     0.1626 C.3     
   6 O6            -0.8426    -0.9158    -0.0910 O.2     
   7 C7             3.5749    -3.2476    -0.6497 C.2     
   8 N8             3.1126    -2.0047    -0.4828 N.2     
   9 C9             1.8254    -1.7832    -0.2941 C.2     
  10 C10            0.9202    -2.8635    -0.2657 C.2     
  11 C11            1.3846    -4.1225    -0.4338 C.2     
  12 N12            2.7234    -4.3204    -0.6278 N.pl3   
  13 N13            3.4840    -5.4780    -0.8270 N.2     
  14 C14            4.7447    -5.1489    -0.9664 C.2     
  15 C15            4.8618    -3.7569    -0.8695 C.2     
  16 C16            6.1112    -2.9708    -0.9770 C.ar    
  17 C17            6.5853    -2.2583     0.1262 C.ar    
  18 C18            7.7475    -1.5272     0.0255 C.ar    
  19 C19            8.4515    -1.4981    -1.1785 C.ar    
  20 C20            7.9786    -2.2095    -2.2809 C.ar    
  21 C21            6.8192    -2.9459    -2.1798 C.ar    
  22 N22           11.5295     0.2310    -2.0239 N.pl3   
  23 N23           10.4526    -0.6045    -2.3624 N.2     
  24 C24            9.7032    -0.7100    -1.2864 C.2     
  25 N25           10.2579     0.0135    -0.3042 N.2     
  26 C26           11.3526     0.5809    -0.7372 C.2     
  27 C27            5.8247    -2.2891     1.4268 C.3     
  28 C28            3.0268     0.9156    -1.2863 C.3     
  29 C29            2.0849     1.0602    -2.4833 C.3     
  30 C30            3.8777     2.1800    -1.1513 C.3     
  31 H31            2.8568     0.6466     0.8591 H       
  32 H32            1.2711     2.5731    -0.6588 H       
  33 H33            1.3376     2.3617     1.1195 H       
  34 H34           -0.1341    -2.6874    -0.1109 H       
  35 H35            0.7056    -4.9622    -0.4146 H       
  36 H36            5.5595    -5.8380    -1.1325 H       
  37 H37            8.1141    -0.9757     0.8787 H       
  38 H38            8.5241    -2.1866    -3.2127 H       
  39 H39            6.4557    -3.5007    -3.0321 H       
  40 H40           12.2597     0.4995    -2.6031 H       
  41 H41           12.0041     1.2208    -0.1605 H       
  42 H42            6.1831    -3.1176     2.0378 H       
  43 H43            5.9787    -1.3511     1.9602 H       
  44 H44            4.7620    -2.4210     1.2232 H       
  45 H45            3.6774     0.0543    -1.4378 H       
  46 H46            1.5391     0.1282    -2.6308 H       
  47 H47            1.3787     1.8687    -2.2944 H       
  48 H48            2.6657     1.2865    -3.3774 H       
  49 H49            4.6082     2.0429    -0.3540 H       
  50 H50            4.3966     2.3707    -2.0907 H       
  51 H51            3.2345     3.0271    -0.9131 H       
@<TRIPOS>BOND
   1    1    2 1
   2    1    5 1
   3    2    3 am
   4    2    6 2
   5    3    4 1
   6    3    9 1
   7    4    5 1
   8    4   28 1
   9    4   31 1
  10    5   32 1
  11    5   33 1
  12    7    8 1
  13    7   12 1
  14    7   15 2
  15    8    9 2
  16    9   10 1
  17   10   11 2
  18   10   34 1
  19   11   12 1
  20   11   35 1
  21   12   13 1
  22   13   14 2
  23   14   15 1
  24   14   36 1
  25   15   16 1
  26   16   17 ar
  27   16   21 ar
  28   17   18 ar
  29   17   27 1
  30   18   19 ar
  31   18   37 1
  32   19   20 ar
  33   19   24 1
  34   20   21 ar
  35   20   38 1
  36   21   39 1
  37   22   23 1
  38   22   26 1
  39   22   40 1
  40   23   24 2
  41   24   25 1
  42   25   26 2
  43   26   41 1
  44   27   42 1
  45   27   43 1
  46   27   44 1
  47   28   29 1
  48   28   30 1
  49   28   45 1
  50   29   46 1
  51   29   47 1
  52   29   48 1
  53   30   49 1
  54   30   50 1
  55   30   51 1

#	End of record

