#	Name: ASD01140383
#	Creating user name:	WinNT
#	Creation time:	15. 06. 2019 19:00

#	Modifying user name:	WinNT
#	Modification time:	15. 06. 2019 19:00

#	Program:	/corina/corina34_cracker 3.40 0067  02.08.2006

@<TRIPOS>MOLECULE
ASD01140383
  40   43    0    0    0
SMALL
NO_CHARGES


@<TRIPOS>ATOM
   1 S1            -0.0218     1.7597     0.0117 S.3     
   2 C2             0.0021    -0.0041     0.0020 C.2     
   3 N3             1.2501    -0.3827    -0.0119 N.2     
   4 N4             2.1146     0.5374    -0.0152 N.2     
   5 C5             1.6909     1.7654    -0.0046 C.2     
   6 O6             2.4758     2.8704    -0.0062 O.3     
   7 C7             4.3710     5.1093     0.0841 C.3     
   8 C8             4.5688     3.8289    -0.7431 C.3     
   9 C9             3.8894     2.6620    -0.0208 C.3     
  10 C10            4.4061     2.5734     1.4181 C.3     
  11 C11            4.2192     3.9388     2.0988 C.3     
  12 C12            2.7780     4.4181     1.8097 C.3     
  13 C13            2.8783     5.1915     0.4784 C.3     
  14 N14            5.0801     4.9130     1.3765 N.3     
  15 C15            5.1819     6.1768     2.1184 C.3     
  16 C16           -1.1794    -0.8928     0.0085 C.ar    
  17 C17           -1.0137    -2.2786    -0.0005 C.ar    
  18 C18           -2.1198    -3.1027     0.0061 C.ar    
  19 C19           -3.3926    -2.5577     0.0212 C.ar    
  20 C20           -3.5633    -1.1836     0.0298 C.ar    
  21 C21           -2.4647    -0.3494     0.0296 C.ar    
  22 Cl22          -4.7799    -3.6013     0.0289 Cl      
  23 H23            4.7059     5.9987    -0.4496 H       
  24 H24            4.1216     3.9583    -1.7287 H       
  25 H25            5.6341     3.6230    -0.8479 H       
  26 H26            4.1127     1.7323    -0.5441 H       
  27 H27            3.8438     1.8144     1.9618 H       
  28 H28            5.4641     2.3110     1.4105 H       
  29 H29            4.4335     3.8979     3.1667 H       
  30 H30            2.1087     3.5645     1.7030 H       
  31 H31            2.4304     5.0766     2.6057 H       
  32 H32            2.5800     6.2303     0.6198 H       
  33 H33            2.2582     4.7182    -0.2829 H       
  34 H34            4.1820     6.5596     2.3229 H       
  35 H35            5.7046     6.0047     3.0592 H       
  36 H36            5.7346     6.9038     1.5234 H       
  37 H37           -0.0214    -2.7048    -0.0130 H       
  38 H38           -1.9928    -4.1752    -0.0009 H       
  39 H39           -4.5585    -0.7642     0.0412 H       
  40 H40           -2.5990     0.7222     0.0412 H       
@<TRIPOS>BOND
   1    1    2 1
   2    1    5 1
   3    2    3 2
   4    2   16 1
   5    3    4 1
   6    4    5 2
   7    5    6 1
   8    6    9 1
   9    7    8 1
  10    7   13 1
  11    7   14 1
  12    7   23 1
  13    8    9 1
  14    8   24 1
  15    8   25 1
  16    9   10 1
  17    9   26 1
  18   10   11 1
  19   10   27 1
  20   10   28 1
  21   11   12 1
  22   11   14 1
  23   11   29 1
  24   12   13 1
  25   12   30 1
  26   12   31 1
  27   13   32 1
  28   13   33 1
  29   14   15 1
  30   15   34 1
  31   15   35 1
  32   15   36 1
  33   16   17 ar
  34   16   21 ar
  35   17   18 ar
  36   17   37 1
  37   18   19 ar
  38   18   38 1
  39   19   20 ar
  40   19   22 1
  41   20   21 ar
  42   20   39 1
  43   21   40 1

#	End of record

