#	Name: ASD04500011
#	Creating user name:	WinNT
#	Creation time:	15. 06. 2019 20:49

#	Modifying user name:	WinNT
#	Modification time:	15. 06. 2019 20:49

#	Program:	/corina/corina34_cracker 3.40 0067  02.08.2006

@<TRIPOS>MOLECULE
ASD04500011
  89   95    0    0    0
SMALL
NO_CHARGES


@<TRIPOS>ATOM
   1 C1             0.9797    -0.4924     1.2250 C.ar    
   2 C2             1.2597    -1.8289     1.2723 C.ar    
   3 C3             2.5665    -2.2812     1.4024 C.ar    
   4 C4             3.6123    -1.3881     1.4868 C.ar    
   5 C5             3.3497    -0.0202     1.4401 C.ar    
   6 C6             2.0192     0.4388     1.3077 C.ar    
   7 N7             1.7827     1.7650     1.2642 N.2     
   8 C8             4.4243     0.9793     1.5250 C.2     
   9 N9             4.0693     2.2843     1.4703 N.am    
  10 C10            2.7541     2.6392     1.3410 C.2     
  11 O11            5.5893     0.6460     1.6406 O.2     
  12 C12            2.4147     4.0751     1.2856 C.ar    
  13 C13            1.3582     5.9229     0.1667 C.ar    
  14 C14            1.6736     4.5783     0.2137 C.ar    
  15 C15            2.8290     4.9322     2.3077 C.ar    
  16 C16            2.5110     6.2723     2.2548 C.ar    
  17 C17            1.7792     6.7734     1.1872 C.ar    
  18 C18            5.0992     3.3230     1.5508 C.3     
  19 N19            8.3194     5.9968    -1.0807 N.pl3   
  20 N20            8.1711     7.1676    -0.5669 N.2     
  21 N21            9.2696     7.8316    -0.6514 N.2     
  22 C22           10.1919     7.0686    -1.2487 C.2     
  23 C23            9.5917     5.8882    -1.5284 C.2     
  24 C24           11.6185     7.4488    -1.5510 C.3     
  25 N25           11.6722     8.1692    -2.8256 N.am    
  26 C26           11.4270     9.5151    -2.8568 C.2     
  27 N27           11.4580    10.2211    -3.9587 N.2     
  28 C28           11.7378     9.6592    -5.1515 C.ar    
  29 C29           12.0045     8.2722    -5.2151 C.ar    
  30 C30           11.9695     7.5004    -3.9640 C.2     
  31 C31           11.7704    10.4166    -6.3259 C.ar    
  32 C32           12.0607     9.8046    -7.5242 C.ar    
  33 C33           12.3217     8.4419    -7.5824 C.ar    
  34 C34           12.3001     7.6743    -6.4382 C.ar    
  35 C35           11.1123    10.2029    -1.5888 C.ar    
  36 C36           11.9875    10.1071    -0.5049 C.ar    
  37 C37           11.6919    10.7496     0.6787 C.ar    
  38 C38           10.5259    11.4925     0.7961 C.ar    
  39 C39            9.6481    11.5926    -0.2821 C.ar    
  40 C40            9.9408    10.9557    -1.4725 C.ar    
  41 O41           12.1955     6.3044    -3.9532 O.2     
  42 C42            5.6566     3.5981     0.1527 C.3     
  43 C43            6.7322     4.6830     0.2368 C.3     
  44 C44            7.2895     4.9580    -1.1613 C.3     
  45 O45            8.5058    12.3211    -0.1637 O.3     
  46 O46            0.6372     6.4162    -0.8757 O.3     
  47 C47            7.6525    12.3804    -1.3084 C.3     
  48 C48            0.2392     5.4876    -1.8863 C.3     
  49 S49            0.1494     8.4454     1.8135 S.o2    
  50 O50            0.4722     7.9883     3.1197 O.2     
  51 O51           -0.6991     7.6367     1.0102 O.2     
  52 O52            0.1722     9.8448     1.5676 O.2     
  53 O53            1.4683     8.0951     1.1396 O.3     
  54 S54           10.7840    13.5416     2.0525 S.o2    
  55 O55           10.0943    14.0835     0.9345 O.2     
  56 O56           12.1621    13.2289     1.9037 O.2     
  57 O57           10.3033    13.8534     3.3529 O.2     
  58 O58           10.2390    12.1233     1.9646 O.3     
  59 H59           -0.0413    -0.1565     1.1195 H       
  60 H60            0.4530    -2.5441     1.2080 H       
  61 H61            2.7645    -3.3423     1.4381 H       
  62 H62            4.6266    -1.7449     1.5886 H       
  63 H63            1.3482     3.9181    -0.5767 H       
  64 H64            3.3983     4.5447     3.1398 H       
  65 H65            2.8317     6.9338     3.0459 H       
  66 H66            4.6629     4.2368     1.9543 H       
  67 H67            5.9048     2.9862     2.2033 H       
  68 H68           10.0385     5.0317    -2.0113 H       
  69 H69           12.0003     8.0888    -0.7556 H       
  70 H70           12.2285     6.5479    -1.6169 H       
  71 H71           11.5684    11.4770    -6.2933 H       
  72 H72           12.0854    10.3915    -8.4305 H       
  73 H73           12.5471     7.9802    -8.5324 H       
  74 H74           12.5127     6.6167    -6.4890 H       
  75 H75           12.8957     9.5295    -0.5936 H       
  76 H76           12.3693    10.6741     1.5165 H       
  77 H77            9.2616    11.0324    -2.3087 H       
  78 H78            6.0929     2.6844    -0.2508 H       
  79 H79            4.8510     3.9350    -0.4997 H       
  80 H80            6.2959     5.5967     0.6403 H       
  81 H81            7.5377     4.3461     0.8893 H       
  82 H82            6.4839     5.2949    -1.8137 H       
  83 H83            7.7258     4.0443    -1.5647 H       
  84 H84            8.1958    12.8215    -2.1441 H       
  85 H85            7.3313    11.3735    -1.5748 H       
  86 H86            6.7795    12.9917    -1.0796 H       
  87 H87            1.1245     5.0335    -2.3314 H       
  88 H88           -0.3829     4.7109    -1.4415 H       
  89 H89           -0.3275     6.0101    -2.6569 H       
@<TRIPOS>BOND
   1    1    2 ar
   2    1    6 ar
   3    1   59 1
   4    2    3 ar
   5    2   60 1
   6    3    4 ar
   7    3   61 1
   8    4    5 ar
   9    4   62 1
  10    5    6 ar
  11    5    8 1
  12    6    7 1
  13    7   10 2
  14    8    9 am
  15    8   11 2
  16    9   10 1
  17    9   18 1
  18   10   12 1
  19   12   15 ar
  20   12   14 ar
  21   13   14 ar
  22   13   17 ar
  23   13   46 1
  24   14   63 1
  25   15   16 ar
  26   15   64 1
  27   16   17 ar
  28   16   65 1
  29   17   53 1
  30   18   42 1
  31   18   66 1
  32   18   67 1
  33   19   20 1
  34   19   23 1
  35   19   44 1
  36   20   21 2
  37   21   22 1
  38   22   23 2
  39   22   24 1
  40   23   68 1
  41   24   25 1
  42   24   69 1
  43   24   70 1
  44   25   26 1
  45   25   30 am
  46   26   27 2
  47   26   35 1
  48   27   28 1
  49   28   31 ar
  50   28   29 ar
  51   29   30 1
  52   29   34 ar
  53   30   41 2
  54   31   32 ar
  55   31   71 1
  56   32   33 ar
  57   32   72 1
  58   33   34 ar
  59   33   73 1
  60   34   74 1
  61   35   36 ar
  62   35   40 ar
  63   36   37 ar
  64   36   75 1
  65   37   38 ar
  66   37   76 1
  67   38   39 ar
  68   38   58 1
  69   39   40 ar
  70   39   45 1
  71   40   77 1
  72   42   43 1
  73   42   78 1
  74   42   79 1
  75   43   44 1
  76   43   80 1
  77   43   81 1
  78   44   82 1
  79   44   83 1
  80   45   47 1
  81   46   48 1
  82   47   84 1
  83   47   85 1
  84   47   86 1
  85   48   87 1
  86   48   88 1
  87   48   89 1
  88   49   50 2
  89   49   51 2
  90   49   52 2
  91   49   53 1
  92   54   55 2
  93   54   56 2
  94   54   57 2
  95   54   58 1

#	End of record

