#	Name: ASD01883379
#	Creating user name:	WinNT
#	Creation time:	15. 06. 2019 19:46

#	Modifying user name:	WinNT
#	Modification time:	15. 06. 2019 19:46

#	Program:	/corina/corina34_cracker 3.40 0067  02.08.2006

@<TRIPOS>MOLECULE
ASD01883379
  50   52    0    0    0
SMALL
NO_CHARGES


@<TRIPOS>ATOM
   1 N1            -0.0161     1.3416     0.0134 N.am    
   2 C2            -0.0055     0.0078    -0.1666 C.2     
   3 C3            -1.2225    -0.7140    -0.1653 C.2     
   4 C4            -2.4239    -0.0108     0.0261 C.2     
   5 C5            -2.3698     1.3834     0.2090 C.2     
   6 C6            -1.1780     2.0193     0.2035 C.2     
   7 O7             1.0514    -0.5778    -0.3310 O.2     
   8 C8            -1.2298    -2.1332    -0.3559 C.1     
   9 N9            -1.2355    -3.2591    -0.5070 N.1     
  10 C10            1.2513     2.0764     0.0103 C.3     
  11 C11            1.5781     2.5237    -1.4159 C.3     
  12 C12            2.9017     3.2911    -1.4191 C.3     
  13 N13           -3.6309    -0.6732     0.0341 N.pl3   
  14 C14           -3.9343    -1.6769     1.0654 C.3     
  15 C15           -5.2925    -1.3386     1.6892 C.3     
  16 N16           -6.2991    -1.2162     0.6263 N.3     
  17 C17           -5.9809    -0.1079    -0.2838 C.3     
  18 C18           -4.6534    -0.3913    -0.9849 C.3     
  19 C19            3.2911     3.6301    -2.8594 C.3     
  20 C20            2.7438     4.5836    -0.6158 C.3     
  21 C21           -7.5682    -1.0716     1.1593 C.ar    
  22 N22           -8.6029    -0.9472     0.3412 N.ar    
  23 C23           -9.8288    -0.8073     0.8180 C.ar    
  24 C24          -10.0229    -0.7919     2.1903 C.ar    
  25 C25           -8.9185    -0.9245     3.0172 C.ar    
  26 N26           -7.7201    -1.0663     2.4755 N.ar    
  27 H27           -3.2806     1.9444     0.3575 H       
  28 H28           -1.1489     3.0896     0.3449 H       
  29 H29            1.1657     2.9513     0.6548 H       
  30 H30            2.0472     1.4296     0.3796 H       
  31 H31            1.6637     1.6488    -2.0604 H       
  32 H32            0.7822     3.1704    -1.7852 H       
  33 H33            3.6797     2.6754    -0.9677 H       
  34 H34           -3.9763    -2.6671     0.6115 H       
  35 H35           -3.1626    -1.6562     1.8349 H       
  36 H36           -5.5845    -2.1321     2.3771 H       
  37 H37           -5.2191    -0.3957     2.2310 H       
  38 H38           -6.7723    -0.0088    -1.0268 H       
  39 H39           -5.8980     0.8179     0.2855 H       
  40 H40           -4.3570     0.4773    -1.5728 H       
  41 H41           -4.7612    -1.2585    -1.6365 H       
  42 H42            2.5131     4.2457    -3.3108 H       
  43 H43            4.2341     4.1768    -2.8616 H       
  44 H44            3.4036     2.7093    -3.4317 H       
  45 H45            1.9658     5.1992    -1.0672 H       
  46 H46            2.4663     4.3420     0.4103 H       
  47 H47            3.6868     5.1303    -0.6180 H       
  48 H48          -10.6683    -0.7060     0.1461 H       
  49 H49          -11.0131    -0.6787     2.6062 H       
  50 H50           -9.0354    -0.9161     4.0909 H       
@<TRIPOS>BOND
   1    1    2 am
   2    1   10 1
   3    1    6 1
   4    2    3 1
   5    2    7 2
   6    3    4 2
   7    3    8 1
   8    4    5 1
   9    4   13 1
  10    5    6 2
  11    5   27 1
  12    6   28 1
  13    8    9 3
  14   10   11 1
  15   10   29 1
  16   10   30 1
  17   11   12 1
  18   11   31 1
  19   11   32 1
  20   12   19 1
  21   12   20 1
  22   12   33 1
  23   13   14 1
  24   13   18 1
  25   14   15 1
  26   14   34 1
  27   14   35 1
  28   15   16 1
  29   15   36 1
  30   15   37 1
  31   16   17 1
  32   16   21 1
  33   17   18 1
  34   17   38 1
  35   17   39 1
  36   18   40 1
  37   18   41 1
  38   19   42 1
  39   19   43 1
  40   19   44 1
  41   20   45 1
  42   20   46 1
  43   20   47 1
  44   21   22 ar
  45   21   26 ar
  46   22   23 ar
  47   23   24 ar
  48   23   48 1
  49   24   25 ar
  50   24   49 1
  51   25   26 ar
  52   25   50 1

#	End of record

