#	Name: ASD03090544
#	Creating user name:	WinNT
#	Creation time:	15. 06. 2019 20:29

#	Modifying user name:	WinNT
#	Modification time:	15. 06. 2019 20:29

#	Program:	/corina/corina34_cracker 3.40 0067  02.08.2006

@<TRIPOS>MOLECULE
ASD03090544
  43   46    0    0    0
SMALL
NO_CHARGES


@<TRIPOS>ATOM
   1 C1            -0.3183     1.4342     0.3558 C.2     
   2 C2            -0.3679    -0.0703     0.4270 C.3     
   3 O3             0.7516     2.0050     0.3266 O.2     
   4 N4            -1.4626     2.1452     0.3189 N.am    
   5 N5             4.8713    -2.1071     0.7862 N.pl3   
   6 C6             5.0311    -2.1042     2.1451 C.2     
   7 C7             3.9190    -1.6390     2.7357 C.2     
   8 C8             2.9693    -1.3177     1.6676 C.ar    
   9 C9             1.6691    -0.8092     1.6455 C.ar    
  10 C10            1.0356    -0.6187     0.4501 C.ar    
  11 C11            1.6743    -0.9266    -0.7435 C.ar    
  12 C12            2.9566    -1.4297    -0.7447 C.ar    
  13 C13            3.6207    -1.6318     0.4610 C.ar    
  14 C14           -2.3589     4.2975    -0.3278 C.ar    
  15 C15           -1.4193     3.5456     0.3607 C.ar    
  16 C16           -0.4310     4.1993     1.0957 C.ar    
  17 C17           -0.4263     5.5816     1.1093 C.ar    
  18 C18           -1.4014     6.2702     0.3941 C.ar    
  19 N19           -2.3253     5.6160    -0.2927 N.ar    
  20 S20           -1.4070     8.0321     0.4030 S.3     
  21 C21           -2.6961     8.4301    -0.7303 C.ar    
  22 C22           -4.0265     8.3024    -0.3455 C.ar    
  23 C23           -5.0348     8.6152    -1.2366 C.ar    
  24 C24           -4.7226     9.0551    -2.5103 C.ar    
  25 C25           -3.3999     9.1834    -2.8965 C.ar    
  26 C26           -2.3860     8.8775    -2.0079 C.ar    
  27 Cl27          -3.0135     9.7360    -4.4962 Cl      
  28 Cl28          -4.4197     7.7498     1.2525 Cl      
  29 H29           -0.8916    -0.3740     1.3334 H       
  30 H30           -0.8952    -0.4581    -0.4446 H       
  31 H31           -2.3162     1.6878     0.2634 H       
  32 H32            5.5409    -2.3969     0.1470 H       
  33 H33            5.9202    -2.4284     2.6655 H       
  34 H34            3.7554    -1.5235     3.7970 H       
  35 H35            1.1656    -0.5683     2.5701 H       
  36 H36            1.1604    -0.7704    -1.6805 H       
  37 H37            3.4448    -1.6665    -1.6785 H       
  38 H38           -3.1247     3.7982    -0.9029 H       
  39 H39            0.3133     3.6388     1.6418 H       
  40 H40            0.3244     6.1203     1.6684 H       
  41 H41           -6.0681     8.5159    -0.9386 H       
  42 H42           -5.5128     9.2987    -3.2050 H       
  43 H43           -1.3539     8.9821    -2.3085 H       
@<TRIPOS>BOND
   1    1    2 1
   2    1    3 2
   3    1    4 am
   4    2   10 1
   5    2   29 1
   6    2   30 1
   7    4   15 1
   8    4   31 1
   9    5    6 1
  10    5   13 1
  11    5   32 1
  12    6    7 2
  13    6   33 1
  14    7    8 1
  15    7   34 1
  16    8    9 ar
  17    8   13 ar
  18    9   10 ar
  19    9   35 1
  20   10   11 ar
  21   11   12 ar
  22   11   36 1
  23   12   13 ar
  24   12   37 1
  25   14   15 ar
  26   14   19 ar
  27   14   38 1
  28   15   16 ar
  29   16   17 ar
  30   16   39 1
  31   17   18 ar
  32   17   40 1
  33   18   19 ar
  34   18   20 1
  35   20   21 1
  36   21   22 ar
  37   21   26 ar
  38   22   23 ar
  39   22   28 1
  40   23   24 ar
  41   23   41 1
  42   24   25 ar
  43   24   42 1
  44   25   26 ar
  45   25   27 1
  46   26   43 1

#	End of record

