#	Name: ASD05430294
#	Creating user name:	WinNT
#	Creation time:	15. 06. 2019 21:00

#	Modifying user name:	WinNT
#	Modification time:	15. 06. 2019 21:00

#	Program:	/corina/corina34_cracker 3.40 0067  02.08.2006

@<TRIPOS>MOLECULE
ASD05430294
  69   75    0    0    0
SMALL
NO_CHARGES


@<TRIPOS>ATOM
   1 C1             0.1876     1.1569    -1.0563 C.ar    
   2 C2             0.0179    -0.0116    -0.3118 C.ar    
   3 C3             1.0356    -0.4671     0.5123 C.ar    
   4 C4             2.2279     0.2236     0.6096 C.ar    
   5 C5             2.4234     1.3944    -0.1237 C.ar    
   6 C6             1.3927     1.8665    -0.9661 C.ar    
   7 C7             4.9023    -0.0486    -0.0822 C.3     
   8 C8             4.8562     1.4559     0.0677 C.2     
   9 C9             3.6898     2.1297    -0.0203 C.2     
  10 C10            6.3147    -0.4955    -0.4449 C.3     
  11 C11            7.1210     0.5300    -1.2387 C.3     
  12 N12            7.2274     1.7627    -0.4553 N.pl3   
  13 C13            6.1228     2.1603     0.3127 C.2     
  14 N14            6.2355     3.0830     1.2160 N.2     
  15 C15            8.2170     3.7671    -1.3977 C.ar    
  16 C16            9.2393     4.1920    -2.2255 C.ar    
  17 C17            6.9967     4.4163    -1.4173 C.ar    
  18 C18            6.7987     5.4902    -2.2648 C.ar    
  19 C19            7.8211     5.9154    -3.0923 C.ar    
  20 C20            9.0413     5.2660    -3.0730 C.ar    
  21 N21           -1.1849    -0.7262    -0.3972 N.pl3   
  22 C22           -2.4375    -0.2167    -0.2700 C.2     
  23 C23           -1.3193    -2.0703    -0.6309 C.2     
  24 C24           -2.6397    -2.3358    -0.6327 C.2     
  25 N25           -3.2978    -1.1885    -0.4105 N.2     
  26 C26           -3.2690    -3.6875    -0.8513 C.3     
  27 C27            8.4309     2.5924    -0.4783 C.3     
  28 C28            8.7109     3.0964     0.9419 C.3     
  29 N29            7.4809     3.6471     1.5158 N.pl3   
  30 C30            7.0899    -1.0874     0.7438 C.3     
  31 O31            7.5077    -2.1082    -0.1855 O.3     
  32 C32            6.3697    -1.9084    -1.0489 C.3     
  33 C33            1.2619     3.0236    -1.8498 C.2     
  34 N34            0.0826     2.9685    -2.3915 N.2     
  35 O35           -0.6016     1.8232    -1.9239 O.3     
  36 C36            7.5550     4.8022     2.4138 C.3     
  37 S37            7.5615     7.3209    -4.2029 Du      
  38 F38            7.3305     8.5711    -5.1907 F       
  39 F39            8.9911     7.9242    -3.7735 F       
  40 F40            6.1319     6.7175    -4.6322 F       
  41 F41            8.2650     6.5053    -5.3995 F       
  42 F42            6.8579     8.1364    -3.0062 F       
  43 H43            0.8943    -1.3718     1.0849 H       
  44 H44            3.0114    -0.1437     1.2559 H       
  45 H45            4.6057    -0.5148     0.8574 H       
  46 H46            4.2129    -0.3548    -0.8690 H       
  47 H47            3.6883     3.2097    -0.0147 H       
  48 H48            8.1180     0.1363    -1.4363 H       
  49 H49            6.6166     0.7397    -2.1820 H       
  50 H50           10.1928     3.6851    -2.2099 H       
  51 H51            6.1979     4.0841    -0.7708 H       
  52 H52            5.8451     5.9970    -2.2807 H       
  53 H53            9.8402     5.5984    -3.7193 H       
  54 H54           -2.6810     0.8188    -0.0834 H       
  55 H55           -0.5199    -2.7799    -0.7847 H       
  56 H56           -3.3859    -4.1931     0.1073 H       
  57 H57           -4.2462    -3.5622    -1.3176 H       
  58 H58           -2.6300    -4.2849    -1.5016 H       
  59 H59            9.2761     2.0004    -0.8293 H       
  60 H60            9.0603     2.2686     1.5590 H       
  61 H61            9.4756     3.8724     0.9080 H       
  62 H62            7.9031    -0.4547     1.0993 H       
  63 H63            6.4519    -1.4563     1.5469 H       
  64 H64            5.5103    -2.5298    -0.7970 H       
  65 H65            6.6135    -1.9250    -2.1111 H       
  66 H66            2.0087     3.7849    -2.0205 H       
  67 H67            7.4806     5.7206     1.8313 H       
  68 H68            6.7346     4.7589     3.1301 H       
  69 H69            8.5050     4.7868     2.9480 H       
@<TRIPOS>BOND
   1    1    2 ar
   2    1    6 ar
   3    1   35 1
   4    2    3 ar
   5    2   21 1
   6    3    4 ar
   7    3   43 1
   8    4    5 ar
   9    4   44 1
  10    5    6 ar
  11    5    9 1
  12    6   33 1
  13    7    8 1
  14    7   10 1
  15    7   45 1
  16    7   46 1
  17    8    9 2
  18    8   13 1
  19    9   47 1
  20   10   11 1
  21   10   30 1
  22   10   32 1
  23   11   12 1
  24   11   48 1
  25   11   49 1
  26   12   13 1
  27   12   27 1
  28   13   14 2
  29   14   29 1
  30   15   16 ar
  31   15   17 ar
  32   15   27 1
  33   16   20 ar
  34   16   50 1
  35   17   18 ar
  36   17   51 1
  37   18   19 ar
  38   18   52 1
  39   19   20 ar
  40   19   37 1
  41   20   53 1
  42   21   22 1
  43   21   23 1
  44   22   25 2
  45   22   54 1
  46   23   24 2
  47   23   55 1
  48   24   25 1
  49   24   26 1
  50   26   56 1
  51   26   57 1
  52   26   58 1
  53   27   28 1
  54   27   59 1
  55   28   29 1
  56   28   60 1
  57   28   61 1
  58   29   36 1
  59   30   31 1
  60   30   62 1
  61   30   63 1
  62   31   32 1
  63   32   64 1
  64   32   65 1
  65   33   34 2
  66   33   66 1
  67   34   35 1
  68   36   67 1
  69   36   68 1
  70   36   69 1
  71   37   38 1
  72   37   39 1
  73   37   40 1
  74   37   41 1
  75   37   42 1

#	End of record

