#	Name: ASD00841331
#	Creating user name:	WinNT
#	Creation time:	15. 06. 2019 18:41

#	Modifying user name:	WinNT
#	Modification time:	15. 06. 2019 18:41

#	Program:	/corina/corina34_cracker 3.40 0067  02.08.2006

@<TRIPOS>MOLECULE
ASD00841331
  89   94    0    0    0
SMALL
NO_CHARGES


@<TRIPOS>ATOM
   1 F1            -0.1126    -3.1351     4.7194 F       
   2 N2            -0.0159     1.3183     0.0093 N.ar    
   3 C3             0.0021    -0.0041     0.0020 C.ar    
   4 C4             1.2069    -0.6955    -0.0132 C.ar    
   5 C5             2.3925     0.0180    -0.0207 C.ar    
   6 C6             2.3308     1.4049    -0.0127 C.ar    
   7 C7             1.0980     2.0259     0.0025 C.ar    
   8 C8             1.2224    -2.2024    -0.0209 C.3     
   9 C9             0.4763    -2.7343    -1.2260 C.2     
  10 O10            2.5880    -2.6958    -0.0097 O.3     
  11 C11            3.3814    -2.3221    -1.0313 C.2     
  12 N12            4.6600    -2.7452    -1.0812 N.am    
  13 O13            2.9446    -1.6033    -1.9082 O.2     
  14 C14            5.5437    -2.3488    -2.1881 C.3     
  15 C15            6.8406    -1.7851    -1.5976 C.3     
  16 N16            7.4151    -2.7627    -0.6637 N.3     
  17 C17            6.5188    -3.0021     0.4752 C.3     
  18 C18            5.2104    -3.6107    -0.0270 C.3     
  19 C19            8.7444    -2.3360    -0.2068 C.3     
  20 C20            9.2576    -3.3113     0.8562 C.3     
  21 C21           10.6672    -2.8966     1.2840 C.3     
  22 N22           11.5570    -2.9051     0.1158 N.3     
  23 C23           11.1108    -1.9417    -0.8986 C.3     
  24 C24            9.7145    -2.3278    -1.3915 C.3     
  25 C25           12.9479    -2.6467     0.5116 C.3     
  26 O26            0.7562    -2.5398    -2.3900 O.2     
  27 N27           -0.5539    -3.4626    -0.7639 N.am    
  28 C28            0.4503    -2.7460     1.1593 C.ar    
  29 C29           -0.5978    -3.4898     0.6316 C.ar    
  30 C30            0.6153    -2.6252     2.5208 C.ar    
  31 C31           -0.2711    -3.2506     3.3828 C.ar    
  32 C32           -1.3213    -3.9958     2.8683 C.ar    
  33 C33           -1.4865    -4.1167     1.5019 C.ar    
  34 F34           -2.1867    -4.6064     3.7070 F       
  35 C35           -1.0180    -5.8565    -2.0399 C.ar    
  36 C36            0.1598    -6.0203    -2.7547 C.ar    
  37 C37           -1.6958    -6.9612    -1.5602 C.ar    
  38 C38           -1.2026    -8.2310    -1.7906 C.ar    
  39 C39           -0.0248    -8.4001    -2.5051 C.ar    
  40 C40            0.6567    -7.2937    -2.9877 C.ar    
  41 O41            0.4597    -9.6494    -2.7318 O.3     
  42 O42            0.8257    -4.9337    -3.2266 O.3     
  43 C43            2.0314    -5.1770    -3.9540 C.3     
  44 C44           -0.2947   -10.7431    -2.2057 C.3     
  45 S45           -1.6462    -4.2384    -1.7372 S.o2    
  46 O46           -2.8263    -4.4044    -0.9633 O.2     
  47 O47           -1.6244    -3.5595    -2.9854 O.2     
  48 O48           -1.1673    -0.6919     0.0099 O.3     
  49 C49           -3.5777    -0.8652     0.0330 C.3     
  50 C50           -2.3720     0.0766     0.0260 C.3     
  51 H51            3.3442    -0.4925    -0.0322 H       
  52 H52            3.2375     1.9916    -0.0178 H       
  53 H53            1.0444     3.1046     0.0084 H       
  54 H54            5.7699    -3.2182    -2.8053 H       
  55 H55            5.0540    -1.5849    -2.7920 H       
  56 H56            7.5507    -1.5887    -2.4009 H       
  57 H57            6.6256    -0.8577    -1.0668 H       
  58 H58            6.9955    -3.6883     1.1753 H       
  59 H59            6.3083    -2.0578     0.9772 H       
  60 H60            4.5005    -3.6837     0.7968 H       
  61 H61            5.4017    -4.6019    -0.4381 H       
  62 H62            8.6793    -1.3346     0.2187 H       
  63 H63            8.5939    -3.2898     1.7205 H       
  64 H64            9.2846    -4.3194     0.4424 H       
  65 H65           10.6371    -1.8939     1.7103 H       
  66 H66           11.0411    -3.5974     2.0304 H       
  67 H67           11.0787    -0.9434    -0.4620 H       
  68 H68           11.8069    -1.9488    -1.7373 H       
  69 H69            9.7487    -3.3204    -1.8407 H       
  70 H70            9.3771    -1.6037    -2.1331 H       
  71 H71           13.2771    -3.4185     1.2073 H       
  72 H72           13.5854    -2.6586    -0.3724 H       
  73 H73           13.0132    -1.6712     0.9936 H       
  74 H74            1.4351    -2.0439     2.9166 H       
  75 H75           -2.3067    -4.6983     1.1077 H       
  76 H76           -2.6125    -6.8317    -1.0040 H       
  77 H77           -1.7337    -9.0927    -1.4141 H       
  78 H78            1.5731    -7.4233    -3.5442 H       
  79 H79            1.8107    -5.7881    -4.8292 H       
  80 H80            2.4613    -4.2275    -4.2728 H       
  81 H81            2.7419    -5.7011    -3.3148 H       
  82 H82            0.2011   -11.6807    -2.4571 H       
  83 H83           -0.3646   -10.6482    -1.1221 H       
  84 H84           -1.2958   -10.7345    -2.6366 H       
  85 H85           -3.5566    -1.4891    -0.8606 H       
  86 H86           -3.5390    -1.4986     0.9192 H       
  87 H87           -4.4966    -0.2790     0.0452 H       
  88 H88           -2.3931     0.7004     0.9196 H       
  89 H89           -2.4108     0.7099    -0.8602 H       
@<TRIPOS>BOND
   1    1   31 1
   2    2    3 ar
   3    2    7 ar
   4    3    4 ar
   5    3   48 1
   6    4    5 ar
   7    4    8 1
   8    5    6 ar
   9    5   51 1
  10    6    7 ar
  11    6   52 1
  12    7   53 1
  13    8    9 1
  14    8   10 1
  15    8   28 1
  16    9   26 2
  17    9   27 am
  18   10   11 1
  19   11   12 am
  20   11   13 2
  21   12   14 1
  22   12   18 1
  23   14   15 1
  24   14   54 1
  25   14   55 1
  26   15   16 1
  27   15   56 1
  28   15   57 1
  29   16   17 1
  30   16   19 1
  31   17   18 1
  32   17   58 1
  33   17   59 1
  34   18   60 1
  35   18   61 1
  36   19   20 1
  37   19   24 1
  38   19   62 1
  39   20   21 1
  40   20   63 1
  41   20   64 1
  42   21   22 1
  43   21   65 1
  44   21   66 1
  45   22   23 1
  46   22   25 1
  47   23   24 1
  48   23   67 1
  49   23   68 1
  50   24   69 1
  51   24   70 1
  52   25   71 1
  53   25   72 1
  54   25   73 1
  55   27   45 am
  56   27   29 1
  57   28   29 ar
  58   28   30 ar
  59   29   33 ar
  60   30   31 ar
  61   30   74 1
  62   31   32 ar
  63   32   33 ar
  64   32   34 1
  65   33   75 1
  66   35   36 ar
  67   35   37 ar
  68   35   45 1
  69   36   42 1
  70   36   40 ar
  71   37   38 ar
  72   37   76 1
  73   38   39 ar
  74   38   77 1
  75   39   40 ar
  76   39   41 1
  77   40   78 1
  78   41   44 1
  79   42   43 1
  80   43   79 1
  81   43   80 1
  82   43   81 1
  83   44   82 1
  84   44   83 1
  85   44   84 1
  86   45   46 2
  87   45   47 2
  88   48   50 1
  89   49   50 1
  90   49   85 1
  91   49   86 1
  92   49   87 1
  93   50   88 1
  94   50   89 1

#	End of record

