#	Name: ASD01901155
#	Creating user name:	WinNT
#	Creation time:	15. 06. 2019 19:53

#	Modifying user name:	WinNT
#	Modification time:	15. 06. 2019 19:53

#	Program:	/corina/corina34_cracker 3.40 0067  02.08.2006

@<TRIPOS>MOLECULE
ASD01901155
  48   50    0    0    0
SMALL
NO_CHARGES


@<TRIPOS>ATOM
   1 C1            -0.0367     1.4342    -0.1624 C.ar    
   2 C2            -0.0219     0.0556    -0.1973 C.ar    
   3 C3             1.1816    -0.6258    -0.2473 C.ar    
   4 C4             2.3780     0.0694    -0.2628 C.ar    
   5 C5             2.3789     1.4481    -0.2278 C.ar    
   6 C6             1.1675     2.1431    -0.1777 C.ar    
   7 C7             1.1603     3.5746    -0.1421 C.1     
   8 C8             1.1543     4.7482    -0.1130 C.1     
   9 C9             1.1470     6.1798    -0.0774 C.ar    
  10 C10            2.3526     6.8871    -0.0928 C.ar    
  11 C11            2.3418     8.2666    -0.0589 C.ar    
  12 C12            1.1329     8.9534    -0.0095 C.ar    
  13 C13           -0.0689     8.2527     0.0059 C.ar    
  14 C14           -0.0658     6.8733    -0.0331 C.ar    
  15 N15            1.1258    10.3554     0.0252 N.am    
  16 C16            1.0911    11.0457    -1.1267 C.2     
  17 N17            1.3205    12.3684    -1.1613 N.am    
  18 C18            1.7396    13.0911     0.0411 C.3     
  19 C19            1.0446    12.4922     1.2660 C.3     
  20 C20            1.1483    10.9890     1.2121 C.2     
  21 O21            0.8466    10.4589    -2.1626 O.2     
  22 F22            3.5065     8.9510    -0.0733 F       
  23 O23            1.2556    10.3517     2.2379 O.2     
  24 F24           -1.2405     8.9237     0.0539 F       
  25 C25            3.2560    12.9706     0.2056 C.3     
  26 C26            1.3571    14.5665    -0.0916 C.3     
  27 C27            3.9471    13.4437    -1.0748 C.3     
  28 C28           -0.1406    14.6809    -0.3826 C.3     
  29 H29           -0.9768     1.9648    -0.1278 H       
  30 H30           -0.9517    -0.4936    -0.1851 H       
  31 H31            1.1870    -1.7054    -0.2741 H       
  32 H32            3.3134    -0.4691    -0.3019 H       
  33 H33            3.3134     1.9893    -0.2392 H       
  34 H34            3.2914     6.3546    -0.1308 H       
  35 H35           -0.9993     6.3302    -0.0256 H       
  36 H36            1.2071    12.8518    -1.9946 H       
  37 H37            1.5246    12.8597     2.1730 H       
  38 H38           -0.0063    12.7815     1.2662 H       
  39 H39            3.5808    13.5880     1.0431 H       
  40 H40            3.5191    11.9304     0.3975 H       
  41 H41            1.5872    15.0866     0.8383 H       
  42 H42            1.9213    15.0162    -0.9086 H       
  43 H43            5.0271    13.4383    -0.9280 H       
  44 H44            3.6887    12.7746    -1.8956 H       
  45 H45            3.6178    14.4551    -1.3131 H       
  46 H46           -0.3865    14.0851    -1.2617 H       
  47 H47           -0.7063    14.3148     0.4742 H       
  48 H48           -0.3962    15.7242    -0.5678 H       
@<TRIPOS>BOND
   1    1    2 ar
   2    1    6 ar
   3    1   29 1
   4    2    3 ar
   5    2   30 1
   6    3    4 ar
   7    3   31 1
   8    4    5 ar
   9    4   32 1
  10    5    6 ar
  11    5   33 1
  12    6    7 1
  13    7    8 3
  14    8    9 1
  15    9   10 ar
  16    9   14 ar
  17   10   11 ar
  18   10   34 1
  19   11   12 ar
  20   11   22 1
  21   12   13 ar
  22   12   15 1
  23   13   14 ar
  24   13   24 1
  25   14   35 1
  26   15   16 am
  27   15   20 am
  28   16   17 am
  29   16   21 2
  30   17   18 1
  31   17   36 1
  32   18   19 1
  33   18   26 1
  34   18   25 1
  35   19   20 1
  36   19   37 1
  37   19   38 1
  38   20   23 2
  39   25   27 1
  40   25   39 1
  41   25   40 1
  42   26   28 1
  43   26   41 1
  44   26   42 1
  45   27   43 1
  46   27   44 1
  47   27   45 1
  48   28   46 1
  49   28   47 1
  50   28   48 1

#	End of record

