#	Name: ASD01814576
#	Creating user name:	WinNT
#	Creation time:	15. 06. 2019 19:32

#	Modifying user name:	WinNT
#	Modification time:	15. 06. 2019 19:32

#	Program:	/corina/corina34_cracker 3.40 0067  02.08.2006

@<TRIPOS>MOLECULE
ASD01814576
  40   43    0    0    0
SMALL
NO_CHARGES


@<TRIPOS>ATOM
   1 C1            -0.0169     1.3972     0.0097 C.2     
   2 C2             0.0021    -0.0041     0.0020 C.2     
   3 C3             1.1986    -0.6593    -0.0129 C.2     
   4 C4             2.3918     0.0821    -0.0204 C.2     
   5 N5             2.3437     1.4497    -0.0122 N.am    
   6 C6             1.1421     2.0937     0.0024 C.2     
   7 C7             3.6227    -0.5889    -0.0356 C.2     
   8 C8             4.7877     0.1218    -0.0425 C.2     
   9 C9             4.7345     1.5280    -0.0346 C.2     
  10 C10            3.4812     2.1736    -0.0189 C.2     
  11 O11            3.4258     3.3917    -0.0123 O.2     
  12 C12            5.9703     2.3140    -0.0413 C.2     
  13 O13            5.9124     3.6618    -0.0337 O.3     
  14 O14            7.0487     1.7516    -0.0537 O.2     
  15 C15            3.6593    -2.0954    -0.0439 C.3     
  16 N16            3.7787    -2.5747    -1.4274 N.3     
  17 C17            5.0443    -2.2841    -1.9517 C.ar    
  18 C18            4.9517    -1.8735    -3.2760 C.ar    
  19 C19            3.4870    -1.8815    -3.6661 C.3     
  20 C20            2.7681    -1.9365    -2.2985 C.3     
  21 C21            6.2998    -2.3523    -1.3496 C.ar    
  22 C22            7.4311    -2.0201    -2.0649 C.ar    
  23 C23            7.3285    -1.6166    -3.3838 C.ar    
  24 C24            6.0863    -1.5442    -3.9875 C.ar    
  25 H25           -0.9605     1.9226     0.0170 H       
  26 H26           -0.9233    -0.5609     0.0082 H       
  27 H27            1.2282    -1.7389    -0.0187 H       
  28 H28            1.1156     3.1733     0.0087 H       
  29 H29            5.7393    -0.3889    -0.0536 H       
  30 H30            6.7544     4.1373    -0.0385 H       
  31 H31            4.5153    -2.4412     0.5356 H       
  32 H32            2.7412    -2.4836     0.3971 H       
  33 H33            3.2256    -0.9699    -4.2034 H       
  34 H34            3.2510    -2.7632    -4.2621 H       
  35 H35            1.8681    -2.5484    -2.3591 H       
  36 H36            2.5316    -0.9328    -1.9454 H       
  37 H37            6.3867    -2.6659    -0.3198 H       
  38 H38            8.4011    -2.0750    -1.5931 H       
  39 H39            8.2168    -1.3584    -3.9412 H       
  40 H40            6.0047    -1.2292    -5.0173 H       
@<TRIPOS>BOND
   1    1    2 1
   2    1    6 2
   3    1   25 1
   4    2    3 2
   5    2   26 1
   6    3    4 1
   7    3   27 1
   8    4    5 1
   9    4    7 2
  10    5    6 1
  11    5   10 am
  12    6   28 1
  13    7    8 1
  14    7   15 1
  15    8    9 2
  16    8   29 1
  17    9   10 1
  18    9   12 1
  19   10   11 2
  20   12   13 1
  21   12   14 2
  22   13   30 1
  23   15   16 1
  24   15   31 1
  25   15   32 1
  26   16   17 1
  27   16   20 1
  28   17   18 ar
  29   17   21 ar
  30   18   19 1
  31   18   24 ar
  32   19   20 1
  33   19   33 1
  34   19   34 1
  35   20   35 1
  36   20   36 1
  37   21   22 ar
  38   21   37 1
  39   22   23 ar
  40   22   38 1
  41   23   24 ar
  42   23   39 1
  43   24   40 1

#	End of record

