#	Name: ASD03090059
#	Creating user name:	WinNT
#	Creation time:	15. 06. 2019 20:28

#	Modifying user name:	WinNT
#	Modification time:	15. 06. 2019 20:28

#	Program:	/corina/corina34_cracker 3.40 0067  02.08.2006

@<TRIPOS>MOLECULE
ASD03090059
  33   35    0    0    0
SMALL
NO_CHARGES


@<TRIPOS>ATOM
   1 N1            -0.0158     1.3320    -0.4345 N.am    
   2 C2            -0.0092     0.1148     0.1441 C.2     
   3 O3             0.9932    -0.2877     0.7020 O.2     
   4 N4            -1.1139    -0.6563     0.1042 N.am    
   5 O5            -0.0840    -2.4870     1.3486 O.3     
   6 N6            -0.3831    -3.5843     1.7587 N.2     
   7 C7            -1.6118    -3.8964     1.4558 C.2     
   8 C8            -2.1399    -2.8011     0.7433 C.2     
   9 C9            -1.1071    -1.9090     0.6996 C.2     
  10 C10           -2.3273    -5.1774     1.7997 C.3     
  11 F11           -1.5051    -5.9678     2.6098 F       
  12 F12           -3.5108    -4.8812     2.4844 F       
  13 F13           -2.6303    -5.8723     0.6239 F       
  14 C14            1.0933     2.1706    -0.3089 C.ar    
  15 C15            0.9208     3.5601    -0.2354 C.ar    
  16 C16            2.0368     4.3881    -0.1101 C.ar    
  17 C17            3.3004     3.8368    -0.0592 C.ar    
  18 C18            3.4672     2.4645    -0.1324 C.ar    
  19 C19            2.3702     1.6326    -0.2505 C.ar    
  20 O20           -0.7227     5.4565    -0.3347 O.3     
  21 C21           -0.4344     4.1441    -0.2910 C.2     
  22 N22           -1.5603     3.4689    -0.3059 N.2     
  23 C23           -2.5812     4.3384    -0.3593 C.2     
  24 C24           -2.0646     5.5801    -0.3775 C.2     
  25 H25           -0.7895     1.6238    -0.9415 H       
  26 H26           -1.9137    -0.3352    -0.3409 H       
  27 H27           -3.1309    -2.6928     0.3279 H       
  28 H28            1.9116     5.4593    -0.0533 H       
  29 H29            4.1634     4.4787     0.0379 H       
  30 H30            4.4600     2.0414    -0.0921 H       
  31 H31            2.5077     0.5626    -0.3018 H       
  32 H32           -3.6309     4.0859    -0.3837 H       
  33 H33           -2.6215     6.5046    -0.4180 H       
@<TRIPOS>BOND
   1    1    2 am
   2    1   14 1
   3    1   25 1
   4    2    3 2
   5    2    4 am
   6    4    9 1
   7    4   26 1
   8    5    6 1
   9    5    9 1
  10    6    7 2
  11    7    8 1
  12    7   10 1
  13    8    9 2
  14    8   27 1
  15   10   11 1
  16   10   12 1
  17   10   13 1
  18   14   15 ar
  19   14   19 ar
  20   15   16 ar
  21   15   21 1
  22   16   17 ar
  23   16   28 1
  24   17   18 ar
  25   17   29 1
  26   18   19 ar
  27   18   30 1
  28   19   31 1
  29   20   21 1
  30   20   24 1
  31   21   22 2
  32   22   23 1
  33   23   24 2
  34   23   32 1
  35   24   33 1

#	End of record

