#	Name: ASD01916102
#	Creating user name:	WinNT
#	Creation time:	15. 06. 2019 20:06

#	Modifying user name:	WinNT
#	Modification time:	15. 06. 2019 20:06

#	Program:	/corina/corina34_cracker 3.40 0067  02.08.2006

@<TRIPOS>MOLECULE
ASD01916102
  42   44    0    0    0
SMALL
NO_CHARGES


@<TRIPOS>ATOM
   1 C1            -0.0170     1.3991     0.0094 C.ar    
   2 C2             0.0022    -0.0041     0.0136 C.ar    
   3 C3            -1.2033    -0.6759     0.0216 C.ar    
   4 C4            -2.3890     0.0534     0.0252 C.ar    
   5 N5            -3.6085    -0.6194     0.0333 N.am    
   6 C6             1.2068     2.1427     0.0012 C.1     
   7 C7             2.2101     2.7523    -0.0056 C.1     
   8 C8             3.4339     3.4959    -0.0139 C.ar    
   9 C9             3.4064     4.8926    -0.0180 C.ar    
  10 C10            4.5903     5.6027    -0.0254 C.ar    
  11 N11           -2.3743     1.3776     0.0216 N.ar    
  12 C12           -1.2474     2.0592     0.0076 C.ar    
  13 C13            4.6615     2.8276    -0.0121 C.ar    
  14 C14            5.8025     4.9331    -0.0294 C.ar    
  15 N15           -3.7216    -1.9744    -0.0661 N.3     
  16 C16           -5.0680    -2.3546     0.4211 C.3     
  17 C17           -5.8803    -1.0649     0.1513 C.3     
  18 C18           -4.7983    -0.0003     0.1459 C.2     
  19 C19           -5.6277    -3.5314    -0.3807 C.3     
  20 C20            5.8363     3.5497    -0.0196 C.ar    
  21 O21           -4.9750     1.1971     0.2219 O.2     
  22 C22           -5.0373    -2.6792     1.9159 C.3     
  23 Cl23           4.5595     7.3384    -0.0305 Cl      
  24 C24           -3.5179    -2.4195    -1.4512 C.3     
  25 H25            0.9371    -0.5448     0.0102 H       
  26 H26           -1.2265    -1.7557     0.0246 H       
  27 H27            2.4614     5.4156    -0.0156 H       
  28 H28           -1.2752     3.1388     0.0055 H       
  29 H29            4.6899     1.7480    -0.0044 H       
  30 H30            6.7258     5.4933    -0.0360 H       
  31 H31           -6.3828    -1.1177    -0.8145 H       
  32 H32           -6.5961    -0.8824     0.9529 H       
  33 H33           -4.9633    -4.3894    -0.2785 H       
  34 H34           -6.6167    -3.7907    -0.0031 H       
  35 H35           -5.7017    -3.2524    -1.4318 H       
  36 H36            6.7853     3.0342    -0.0182 H       
  37 H37           -4.6985    -1.8043     2.4708 H       
  38 H38           -6.0380    -2.9552     2.2484 H       
  39 H39           -4.3535    -3.5092     2.0935 H       
  40 H40           -2.5230    -2.1246    -1.7849 H       
  41 H41           -3.6114    -3.5043    -1.5017 H       
  42 H42           -4.2681    -1.9598    -2.0946 H       
@<TRIPOS>BOND
   1    1    2 ar
   2    1    6 1
   3    1   12 ar
   4    2    3 ar
   5    2   25 1
   6    3    4 ar
   7    3   26 1
   8    4   11 ar
   9    4    5 1
  10    5   15 1
  11    5   18 am
  12    6    7 3
  13    7    8 1
  14    8    9 ar
  15    8   13 ar
  16    9   10 ar
  17    9   27 1
  18   10   23 1
  19   10   14 ar
  20   11   12 ar
  21   12   28 1
  22   13   20 ar
  23   13   29 1
  24   14   20 ar
  25   14   30 1
  26   15   16 1
  27   15   24 1
  28   16   17 1
  29   16   19 1
  30   16   22 1
  31   17   18 1
  32   17   31 1
  33   17   32 1
  34   18   21 2
  35   19   33 1
  36   19   34 1
  37   19   35 1
  38   20   36 1
  39   22   37 1
  40   22   38 1
  41   22   39 1
  42   24   40 1
  43   24   41 1
  44   24   42 1

#	End of record

