#	Name: ASD01912860
#	Creating user name:	WinNT
#	Creation time:	15. 06. 2019 20:00

#	Modifying user name:	WinNT
#	Modification time:	15. 06. 2019 20:00

#	Program:	/corina/corina34_cracker 3.40 0067  02.08.2006

@<TRIPOS>MOLECULE
ASD01912860
  60   64    0    0    0
SMALL
NO_CHARGES


@<TRIPOS>ATOM
   1 C1            -0.0235     1.4426     0.4116 C.ar    
   2 C2            -0.0003    -0.0186     0.1782 C.2     
   3 N3            -1.0869    -0.8248     0.0080 N.pl3   
   4 C4             1.1120    -0.8031     0.0884 C.2     
   5 C5             0.6885    -2.1237    -0.1368 C.2     
   6 N6            -0.6272    -2.1337    -0.1845 N.2     
   7 C7             1.5732    -3.3047    -0.2982 C.ar    
   8 C8             1.0228    -4.5653    -0.5178 C.ar    
   9 C9             2.9568    -3.1550    -0.2362 C.ar    
  10 C10            3.7762    -4.2558    -0.3867 C.ar    
  11 C11            3.2267    -5.5066    -0.5989 C.ar    
  12 C12            1.8515    -5.6615    -0.6674 C.ar    
  13 C13           -2.4881    -0.3973     0.0241 C.3     
  14 C14           -2.9462    -0.1243    -1.3854 C.2     
  15 N15           -4.2096     0.2843    -1.6161 N.am    
  16 O16           -2.1779    -0.2722    -2.3121 O.2     
  17 C17           -4.6772     0.5563    -2.9838 C.3     
  18 C18           -5.9838    -0.2108    -3.2131 C.3     
  19 N19           -6.9400     0.1284    -2.1508 N.3     
  20 C20           -6.4451    -0.2936    -0.8337 C.3     
  21 C21           -5.1592     0.4642    -0.5074 C.3     
  22 C22           -8.1903    -0.4198    -2.4123 C.ar    
  23 C23           -9.2355    -0.2099    -1.5189 C.ar    
  24 C24          -10.4747    -0.7610    -1.7917 C.ar    
  25 C25          -10.6273    -1.5062    -2.9532 C.ar    
  26 C26           -9.5465    -1.6744    -3.7956 C.ar    
  27 N27           -8.3771    -1.1328    -3.5125 N.ar    
  28 C28            1.0611     2.0714     1.0234 C.ar    
  29 C29            4.1265    -6.7043    -0.7625 C.3     
  30 F30            1.3198    -6.8860    -0.8749 F       
  31 C31            1.0334     3.4341     1.2383 C.ar    
  32 C32           -0.0670     4.1765     0.8488 C.ar    
  33 C33           -1.1457     3.5588     0.2415 C.ar    
  34 C34           -1.1275     2.1977     0.0155 C.ar    
  35 H35            2.1353    -0.4688     0.1747 H       
  36 H36           -0.0492    -4.6860    -0.5708 H       
  37 H37            3.3880    -2.1787    -0.0709 H       
  38 H38            4.8489    -4.1396    -0.3390 H       
  39 H39           -3.1032    -1.1846     0.4600 H       
  40 H40           -2.5841     0.5105     0.6197 H       
  41 H41           -4.8541     1.6251    -3.1045 H       
  42 H42           -3.9265     0.2233    -3.7004 H       
  43 H43           -6.4024     0.0650    -4.1810 H       
  44 H44           -5.7846    -1.2823    -3.1946 H       
  45 H45           -7.1983    -0.0779    -0.0759 H       
  46 H46           -6.2394    -1.3639    -0.8483 H       
  47 H47           -4.7273     0.0730     0.4138 H       
  48 H48           -5.3792     1.5253    -0.3902 H       
  49 H49           -9.0816     0.3750    -0.6241 H       
  50 H50          -11.3047    -0.6152    -1.1162 H       
  51 H51          -11.5817    -1.9501    -3.1950 H       
  52 H52           -9.6607    -2.2536    -4.7000 H       
  53 H53            1.9204     1.4928     1.3286 H       
  54 H54            4.3153    -7.1529     0.2128 H       
  55 H55            3.6440    -7.4353    -1.4113 H       
  56 H56            5.0711    -6.3912    -1.2073 H       
  57 H57            1.8725     3.9221     1.7119 H       
  58 H58           -0.0842     5.2427     1.0197 H       
  59 H59           -2.0020     4.1437    -0.0600 H       
  60 H60           -1.9700     1.7166    -0.4590 H       
@<TRIPOS>BOND
   1    1    2 1
   2    1   28 ar
   3    1   34 ar
   4    2    3 1
   5    2    4 2
   6    3   13 1
   7    3    6 1
   8    4    5 1
   9    4   35 1
  10    5    6 2
  11    5    7 1
  12    7    8 ar
  13    7    9 ar
  14    8   12 ar
  15    8   36 1
  16    9   10 ar
  17    9   37 1
  18   10   11 ar
  19   10   38 1
  20   11   12 ar
  21   11   29 1
  22   12   30 1
  23   13   14 1
  24   13   39 1
  25   13   40 1
  26   14   15 am
  27   14   16 2
  28   15   17 1
  29   15   21 1
  30   17   18 1
  31   17   41 1
  32   17   42 1
  33   18   19 1
  34   18   43 1
  35   18   44 1
  36   19   20 1
  37   19   22 1
  38   20   21 1
  39   20   45 1
  40   20   46 1
  41   21   47 1
  42   21   48 1
  43   22   23 ar
  44   22   27 ar
  45   23   24 ar
  46   23   49 1
  47   24   25 ar
  48   24   50 1
  49   25   26 ar
  50   25   51 1
  51   26   27 ar
  52   26   52 1
  53   28   31 ar
  54   28   53 1
  55   29   54 1
  56   29   55 1
  57   29   56 1
  58   31   32 ar
  59   31   57 1
  60   32   33 ar
  61   32   58 1
  62   33   34 ar
  63   33   59 1
  64   34   60 1

#	End of record

