#	Name: ASD01811804
#	Creating user name:	WinNT
#	Creation time:	15. 06. 2019 19:27

#	Modifying user name:	WinNT
#	Modification time:	15. 06. 2019 19:27

#	Program:	/corina/corina34_cracker 3.40 0067  02.08.2006

@<TRIPOS>MOLECULE
ASD01811804
  53   56    0    0    0
SMALL
NO_CHARGES


@<TRIPOS>ATOM
   1 C1            -0.0167     1.3816     0.0096 C.ar    
   2 C2             0.0021    -0.0041     0.0020 C.ar    
   3 C3            -1.1845    -0.7157     0.0095 C.ar    
   4 C4            -2.3943    -0.0531     0.0241 C.ar    
   5 C5            -2.4221     1.3429     0.0318 C.ar    
   6 C6            -1.2191     2.0523     0.0305 C.ar    
   7 Cl7            1.4742     2.2709     0.0002 Cl      
   8 C8             1.3183    -0.7377    -0.0149 C.3     
   9 C9            -1.1551    -2.2224     0.0011 C.3     
  10 C10           -1.0080    -2.7298     1.4125 C.ar    
  11 C11           -2.1332    -2.9860     2.1743 C.ar    
  12 C12           -2.0016    -3.4516     3.4680 C.ar    
  13 C13           -0.7380    -3.6622     4.0033 C.ar    
  14 C14            0.3898    -3.4040     3.2359 C.ar    
  15 C15            0.2517    -2.9436     1.9411 C.ar    
  16 N16           -0.6012    -4.1342     5.3162 N.pl3   
  17 N17           -1.6478    -4.4345     6.1976 N.2     
  18 C18           -1.1273    -4.8467     7.3255 C.2     
  19 C19            0.2660    -4.8226     7.1996 C.2     
  20 C20            0.5643    -4.3859     5.9541 C.2     
  21 C21           -3.5323     2.3147     0.0472 C.2     
  22 N22           -3.0526     3.5704     0.0495 N.am    
  23 C23           -1.5863     3.5151     0.0400 C.3     
  24 O24           -4.7120     2.0216     0.0560 O.2     
  25 C25           -3.8604     4.7924     0.0627 C.3     
  26 C26           -4.1289     5.2108     1.5097 C.3     
  27 O27           -4.8335     4.1667     2.1845 O.3     
  28 C28           -2.7992     5.4708     2.2205 C.3     
  29 C29           -4.9725     6.4871     1.5234 C.3     
  30 H30           -3.3179    -0.6128     0.0291 H       
  31 H31            1.6458    -0.9201     1.0086 H       
  32 H32            1.1973    -1.6892    -0.5327 H       
  33 H33            2.0639    -0.1345    -0.5329 H       
  34 H34           -2.0833    -2.6016    -0.4264 H       
  35 H35           -0.3120    -2.5660    -0.5982 H       
  36 H36           -3.1158    -2.8217     1.7575 H       
  37 H37           -2.8807    -3.6512     4.0627 H       
  38 H38            1.3741    -3.5666     3.6498 H       
  39 H39            1.1287    -2.7426     1.3436 H       
  40 H40           -1.6784    -5.1525     8.2025 H       
  41 H41            0.9777    -5.1062     7.9609 H       
  42 H42            1.5553    -4.2561     5.5449 H       
  43 H43           -1.1876     3.9961     0.9332 H       
  44 H44           -1.1988     4.0038    -0.8539 H       
  45 H45           -3.3229     5.5888    -0.4520 H       
  46 H46           -4.8077     4.6072    -0.4437 H       
  47 H47           -5.6878     3.9484     1.7875 H       
  48 H48           -2.2616     6.2672     1.7057 H       
  49 H49           -2.9904     5.7688     3.2513 H       
  50 H50           -2.1981     4.5615     2.2107 H       
  51 H51           -5.9198     6.3019     1.0171 H       
  52 H52           -5.1638     6.7852     2.5543 H       
  53 H53           -4.4350     7.2835     1.0087 H       
@<TRIPOS>BOND
   1    1    2 ar
   2    1    7 1
   3    1    6 ar
   4    2    3 ar
   5    2    8 1
   6    3    4 ar
   7    3    9 1
   8    4    5 ar
   9    4   30 1
  10    5    6 ar
  11    5   21 1
  12    6   23 1
  13    8   31 1
  14    8   32 1
  15    8   33 1
  16    9   10 1
  17    9   34 1
  18    9   35 1
  19   10   11 ar
  20   10   15 ar
  21   11   12 ar
  22   11   36 1
  23   12   13 ar
  24   12   37 1
  25   13   14 ar
  26   13   16 1
  27   14   15 ar
  28   14   38 1
  29   15   39 1
  30   16   17 1
  31   16   20 1
  32   17   18 2
  33   18   19 1
  34   18   40 1
  35   19   20 2
  36   19   41 1
  37   20   42 1
  38   21   22 am
  39   21   24 2
  40   22   23 1
  41   22   25 1
  42   23   43 1
  43   23   44 1
  44   25   26 1
  45   25   45 1
  46   25   46 1
  47   26   27 1
  48   26   28 1
  49   26   29 1
  50   27   47 1
  51   28   48 1
  52   28   49 1
  53   28   50 1
  54   29   51 1
  55   29   52 1
  56   29   53 1

#	End of record

