#	Name: ASD00311488
#	Creating user name:	WinNT
#	Creation time:	15. 06. 2019 18:34

#	Modifying user name:	WinNT
#	Modification time:	15. 06. 2019 18:34

#	Program:	/corina/corina34_cracker 3.40 0067  02.08.2006

@<TRIPOS>MOLECULE
ASD00311488
  48   52    0    0    0
SMALL
NO_CHARGES


@<TRIPOS>ATOM
   1 C1            -0.0167     1.3777     0.0096 C.2     
   2 C2             0.0021    -0.0041     0.0020 C.2     
   3 C3             1.2588    -0.6767    -0.0136 C.2     
   4 C4             2.4315     0.0673    -0.0208 C.2     
   5 C5             2.3574     1.4752    -0.0126 C.2     
   6 N6             1.1648     2.0903     0.0022 N.am    
   7 C7            -1.3432    -0.5752     0.0123 C.2     
   8 C8            -2.3227     0.3261     0.0268 C.2     
   9 S9            -1.6793     1.9562     0.0358 S.3     
  10 O10            3.3823     2.1373    -0.0184 O.2     
  11 C11            3.7477    -0.6120    -0.0366 C.ar    
  12 C12            4.5934    -0.4746    -1.1371 C.ar    
  13 C13            5.8185    -1.1095    -1.1456 C.ar    
  14 C14            6.2084    -1.8811    -0.0656 C.ar    
  15 C15            5.3737    -2.0215     1.0287 C.ar    
  16 C16            4.1487    -1.3869     1.0515 C.ar    
  17 C17           -2.0687    -4.7666    -0.0036 C.ar    
  18 C18           -2.7055    -3.9521     0.9330 C.ar    
  19 C19           -2.4707    -2.5951     0.9384 C.ar    
  20 C20           -1.5956    -2.0348     0.0070 C.ar    
  21 C21           -0.9587    -2.8497    -0.9298 C.ar    
  22 C22           -1.1938    -4.2066    -0.9349 C.ar    
  23 C23           -2.3172    -6.2277    -0.0056 C.ar    
  24 C24           -2.6573    -6.8801    -1.1960 C.ar    
  25 C25           -2.8882    -8.2447    -1.1912 C.ar    
  26 C26           -2.7824    -8.9624    -0.0085 C.ar    
  27 C27           -2.4454    -8.3156     1.1732 C.ar    
  28 C28           -2.2074    -6.9569     1.1767 C.ar    
  29 O29           -3.0095   -10.3019    -0.0065 O.3     
  30 O30           -2.7609    -6.1759    -2.3530 O.3     
  31 O31            1.3087    -2.0291    -0.0209 O.3     
  32 H32            1.1326     3.0598     0.0073 H       
  33 H33           -3.3753     0.0845     0.0360 H       
  34 H34            4.2899     0.1272    -1.9810 H       
  35 H35            6.4741    -1.0041    -1.9974 H       
  36 H36            7.1682    -2.3760    -0.0769 H       
  37 H37            5.6835    -2.6255     1.8688 H       
  38 H38            3.5000    -1.4934     1.9084 H       
  39 H39           -3.3828    -4.3857     1.6539 H       
  40 H40           -2.9643    -1.9645     1.6630 H       
  41 H41           -0.2811    -2.4163    -1.6506 H       
  42 H42           -0.7006    -4.8374    -1.6596 H       
  43 H43           -3.1512    -8.7510    -2.1082 H       
  44 H44           -2.3646    -8.8788     2.0912 H       
  45 H45           -1.9408    -6.4576     2.0965 H       
  46 H46           -2.2197   -10.8351    -0.1707 H       
  47 H47           -1.9353    -6.1170    -2.8529 H       
  48 H48            2.2060    -2.3895    -0.0315 H       
@<TRIPOS>BOND
   1    1    2 2
   2    1    6 1
   3    1    9 1
   4    2    3 1
   5    2    7 1
   6    3    4 2
   7    3   31 1
   8    4    5 1
   9    4   11 1
  10    5    6 am
  11    5   10 2
  12    6   32 1
  13    7    8 2
  14    7   20 1
  15    8    9 1
  16    8   33 1
  17   11   12 ar
  18   11   16 ar
  19   12   13 ar
  20   12   34 1
  21   13   14 ar
  22   13   35 1
  23   14   15 ar
  24   14   36 1
  25   15   16 ar
  26   15   37 1
  27   16   38 1
  28   17   18 ar
  29   17   22 ar
  30   17   23 1
  31   18   19 ar
  32   18   39 1
  33   19   20 ar
  34   19   40 1
  35   20   21 ar
  36   21   22 ar
  37   21   41 1
  38   22   42 1
  39   23   24 ar
  40   23   28 ar
  41   24   25 ar
  42   24   30 1
  43   25   26 ar
  44   25   43 1
  45   26   27 ar
  46   26   29 1
  47   27   28 ar
  48   27   44 1
  49   28   45 1
  50   29   46 1
  51   30   47 1
  52   31   48 1

#	End of record

