#	Name: ASD03240076
#	Creating user name:	WinNT
#	Creation time:	15. 06. 2019 20:34

#	Modifying user name:	WinNT
#	Modification time:	15. 06. 2019 20:34

#	Program:	/corina/corina34_cracker 3.40 0067  02.08.2006

@<TRIPOS>MOLECULE
ASD03240076
  75   81    0    0    0
SMALL
NO_CHARGES


@<TRIPOS>ATOM
   1 C1            -0.0171     1.4061     0.0098 C.ar    
   2 C2             0.0021    -0.0041     0.0020 C.ar    
   3 C3             1.1886     2.1134     0.0021 C.ar    
   4 C4             2.3736     1.3872    -0.0132 C.ar    
   5 C5             2.3154    -0.0207    -0.0202 C.ar    
   6 N6             1.1570    -0.6573    -0.0125 N.ar    
   7 C7             3.5746    -0.8010    -0.0369 C.ar    
   8 C8             3.6818     2.0847    -0.0224 C.ar    
   9 C9             3.9255     3.1024    -0.9433 C.ar    
  10 C10            5.1450     3.7486    -0.9469 C.ar    
  11 C11            6.1246     3.3877    -0.0393 C.ar    
  12 C12            5.8884     2.3786     0.8768 C.ar    
  13 C13            4.6707     1.7294     0.8936 C.ar    
  14 C14            3.6560    -2.0133     0.6476 C.ar    
  15 C15            4.8316    -2.7356     0.6284 C.ar    
  16 C16            5.9281    -2.2592    -0.0677 C.ar    
  17 C17            5.8536    -1.0571    -0.7482 C.ar    
  18 C18            4.6814    -0.3290    -0.7419 C.ar    
  19 C19            7.2092    -3.0527    -0.0843 C.3     
  20 N20            7.1962    -3.9798    -1.2237 N.3     
  21 C21            8.5145    -4.5982    -1.4140 C.3     
  22 C22            8.5041    -5.4419    -2.6908 C.3     
  23 C23            7.4250    -6.5219    -2.5742 C.3     
  24 C24            6.0695    -5.8536    -2.3282 C.3     
  25 C25            6.1505    -4.9979    -1.0620 C.3     
  26 N26            7.3708    -7.2960    -3.8169 N.am    
  27 C27            7.5885    -8.6668    -3.9335 C.ar    
  28 C28            7.4399    -8.9855    -5.2847 C.ar    
  29 N29            7.1365    -7.7985    -5.9473 N.am    
  30 C30            7.0965    -6.8045    -5.0400 C.2     
  31 C31            7.8965    -9.6626    -3.0190 C.ar    
  32 C32            8.0549   -10.9655    -3.4487 C.ar    
  33 C33            7.9076   -11.2815    -4.7885 C.ar    
  34 C34            7.6009   -10.2965    -5.7067 C.ar    
  35 O35            6.8572    -5.6377    -5.2889 O.2     
  36 N36           -1.3044    -0.4131     0.0123 N.pl3   
  37 N37           -2.1409     0.7067     0.0263 N.2     
  38 C38           -1.4263     1.8007     0.0195 C.2     
  39 N39           -1.9177     3.1083     0.0298 N.pl3   
  40 C40           -1.7553    -1.8070     0.0087 C.3     
  41 C41           -1.8984    -2.3004     1.4499 C.3     
  42 O42           -2.3383    -3.6601     1.4464 O.3     
  43 H43            1.1991     3.1933     0.0074 H       
  44 H44            3.1617     3.3845    -1.6528 H       
  45 H45            5.3350     4.5372    -1.6599 H       
  46 H46            7.0777     3.8957    -0.0463 H       
  47 H47            6.6568     2.1011     1.5831 H       
  48 H48            4.4872     0.9418     1.6095 H       
  49 H49            2.8009    -2.3859     1.1919 H       
  50 H50            4.8959    -3.6746     1.1581 H       
  51 H51            6.7131    -0.6899    -1.2893 H       
  52 H52            4.6242     0.6091    -1.2738 H       
  53 H53            8.0563    -2.3733    -0.1783 H       
  54 H54            7.2982    -3.6183     0.8433 H       
  55 H55            9.2721    -3.8192    -1.4996 H       
  56 H56            8.7436    -5.2351    -0.5597 H       
  57 H57            8.2887    -4.8031    -3.5473 H       
  58 H58            9.4779    -5.9133    -2.8234 H       
  59 H59            7.6610    -7.1843    -1.7414 H       
  60 H60            5.8158    -5.2213    -3.1791 H       
  61 H61            5.3039    -6.6191    -2.2018 H       
  62 H62            6.3907    -5.6330    -0.2093 H       
  63 H63            5.1911    -4.5093    -0.8919 H       
  64 H64            6.9774    -7.7046    -6.8995 H       
  65 H65            8.0126    -9.4198    -1.9730 H       
  66 H66            8.2952   -11.7411    -2.7366 H       
  67 H67            8.0330   -12.3026    -5.1171 H       
  68 H68            7.4863   -10.5468    -6.7510 H       
  69 H69           -2.8746     3.2666     0.0429 H       
  70 H70           -1.3021     3.8578     0.0238 H       
  71 H71           -2.7189    -1.8758    -0.4962 H       
  72 H72           -1.0254    -2.4237    -0.5157 H       
  73 H73           -0.9349    -2.2316     1.9548 H       
  74 H74           -2.6283    -1.6838     1.9743 H       
  75 H75           -2.4508    -4.0393     2.3287 H       
@<TRIPOS>BOND
   1    1    2 ar
   2    1    3 ar
   3    1   38 1
   4    2   36 1
   5    2    6 ar
   6    3    4 ar
   7    3   43 1
   8    4    5 ar
   9    4    8 1
  10    5    6 ar
  11    5    7 1
  12    7   14 ar
  13    7   18 ar
  14    8    9 ar
  15    8   13 ar
  16    9   10 ar
  17    9   44 1
  18   10   11 ar
  19   10   45 1
  20   11   12 ar
  21   11   46 1
  22   12   13 ar
  23   12   47 1
  24   13   48 1
  25   14   15 ar
  26   14   49 1
  27   15   16 ar
  28   15   50 1
  29   16   17 ar
  30   16   19 1
  31   17   18 ar
  32   17   51 1
  33   18   52 1
  34   19   20 1
  35   19   53 1
  36   19   54 1
  37   20   21 1
  38   20   25 1
  39   21   22 1
  40   21   55 1
  41   21   56 1
  42   22   23 1
  43   22   57 1
  44   22   58 1
  45   23   24 1
  46   23   26 1
  47   23   59 1
  48   24   25 1
  49   24   60 1
  50   24   61 1
  51   25   62 1
  52   25   63 1
  53   26   27 1
  54   26   30 am
  55   27   28 ar
  56   27   31 ar
  57   28   29 1
  58   28   34 ar
  59   29   30 am
  60   29   64 1
  61   30   35 2
  62   31   32 ar
  63   31   65 1
  64   32   33 ar
  65   32   66 1
  66   33   34 ar
  67   33   67 1
  68   34   68 1
  69   36   37 1
  70   36   40 1
  71   37   38 2
  72   38   39 1
  73   39   69 1
  74   39   70 1
  75   40   41 1
  76   40   71 1
  77   40   72 1
  78   41   42 1
  79   41   73 1
  80   41   74 1
  81   42   75 1

#	End of record

