#	Name: ASD01811172
#	Creating user name:	WinNT
#	Creation time:	15. 06. 2019 19:26

#	Modifying user name:	WinNT
#	Modification time:	15. 06. 2019 19:26

#	Program:	/corina/corina34_cracker 3.40 0067  02.08.2006

@<TRIPOS>MOLECULE
ASD01811172
  31   32    0    0    0
SMALL
NO_CHARGES


@<TRIPOS>ATOM
   1 C1            -0.0142     1.4727     0.0472 C.2     
   2 C2             0.0039    -0.0042     0.0200 C.ar    
   3 C3             1.2134    -0.6884    -0.1185 C.ar    
   4 C4             1.2235    -2.0674    -0.1427 C.ar    
   5 C5             0.0387    -2.7734    -0.0306 C.ar    
   6 C6            -1.1638    -2.1020     0.1065 C.ar    
   7 C7            -1.1874    -0.7223     0.1384 C.ar    
   8 O8             0.9125     2.0824     0.5422 O.2     
   9 O9            -1.0558     2.1434    -0.4819 O.3     
  10 C10            0.0577    -4.2800    -0.0584 C.3     
  11 I11           -2.9510    -3.1822     0.2739 I       
  12 C12            2.5049     0.0785    -0.2417 C.3     
  13 C13            3.4581    -0.1251     0.9477 C.3     
  14 C14            4.6034    -0.1625    -0.0778 C.3     
  15 C15            3.5608    -0.6285    -1.1078 C.3     
  16 C16           -1.0062     3.5932    -0.4200 C.3     
  17 H17            2.1584    -2.5975    -0.2497 H       
  18 H18           -2.1258    -0.1994     0.2499 H       
  19 H19            0.1694    -4.6607     0.9569 H       
  20 H20           -0.8763    -4.6473    -0.4835 H       
  21 H21            0.8938    -4.6216    -0.6686 H       
  22 H22            2.3522     1.1252    -0.5047 H       
  23 H23            3.5036     0.7300     1.6221 H       
  24 H24            3.3088    -1.0700     1.4702 H       
  25 H25            5.0256     0.8182    -0.2969 H       
  26 H26            5.3635    -0.9117     0.1437 H       
  27 H27            3.4396    -1.7110    -1.1473 H       
  28 H28            3.6893    -0.1797    -2.0927 H       
  29 H29           -0.1260     3.9499    -0.9549 H       
  30 H30           -1.9035     4.0074    -0.8799 H       
  31 H31           -0.9520     3.9107     0.6213 H       
@<TRIPOS>BOND
   1    1    2 1
   2    1    8 2
   3    1    9 1
   4    2    3 ar
   5    2    7 ar
   6    3    4 ar
   7    3   12 1
   8    4    5 ar
   9    4   17 1
  10    5    6 ar
  11    5   10 1
  12    6    7 ar
  13    6   11 1
  14    7   18 1
  15    9   16 1
  16   10   19 1
  17   10   20 1
  18   10   21 1
  19   12   13 1
  20   12   15 1
  21   12   22 1
  22   13   14 1
  23   13   23 1
  24   13   24 1
  25   14   15 1
  26   14   25 1
  27   14   26 1
  28   15   27 1
  29   15   28 1
  30   16   29 1
  31   16   30 1
  32   16   31 1

#	End of record

