#	Name: ASD01918096
#	Creating user name:	WinNT
#	Creation time:	15. 06. 2019 20:10

#	Modifying user name:	WinNT
#	Modification time:	15. 06. 2019 20:10

#	Program:	/corina/corina34_cracker 3.40 0067  02.08.2006

@<TRIPOS>MOLECULE
ASD01918096
  43   45    0    0    0
SMALL
NO_CHARGES


@<TRIPOS>ATOM
   1 N1             0.1753     1.6543     0.9286 N.am    
   2 C2             0.3717     0.2897     1.1696 C.2     
   3 C3             2.7314     0.6139     1.9002 C.3     
   4 C4             2.5881     1.9514     1.1651 C.3     
   5 C5             1.2128     2.5621     1.4569 C.3     
   6 C6            -0.4870    -0.7417     1.0208 C.2     
   7 C7             0.1864    -1.9114     1.3957 C.2     
   8 N8             1.4057    -1.5895     1.7558 N.2     
   9 N9             1.5516    -0.2094     1.6225 N.pl3   
  10 C10           -0.3920    -3.3029     1.3872 C.3     
  11 O11           -1.7465    -3.2530     0.9344 O.3     
  12 C12           -0.8949     2.1123     0.2493 C.2     
  13 C13           -1.1405     3.5952     0.1408 C.3     
  14 O14           -1.6604     1.3308    -0.2747 O.2     
  15 C15           -2.4185    -4.4323     0.8672 C.ar    
  16 C16           -3.7369    -4.4572     0.4361 C.ar    
  17 C17           -4.4178    -5.6573     0.3688 C.ar    
  18 C18           -3.7864    -6.8329     0.7307 C.ar    
  19 C19           -2.4727    -6.8107     1.1612 C.ar    
  20 C20           -1.7855    -5.6140     1.2244 C.ar    
  21 C21           -0.2563     4.1791    -0.9629 C.3     
  22 C22           -2.6113     3.8451    -0.1983 C.3     
  23 H23            3.6262     0.0992     1.5502 H       
  24 H24            2.8073     0.7932     2.9726 H       
  25 H25            3.3669     2.6353     1.5025 H       
  26 H26            2.6915     1.7880     0.0924 H       
  27 H27            1.1325     3.5335     0.9689 H       
  28 H28            1.0845     2.6780     2.5331 H       
  29 H29           -1.5082    -0.6765     0.6755 H       
  30 H30            0.1917    -3.9350     0.7180 H       
  31 H31           -0.3611    -3.7154     2.3956 H       
  32 H32           -0.9001     4.0736     1.0902 H       
  33 H33           -4.2306    -3.5391     0.1537 H       
  34 H34           -5.4442    -5.6772     0.0336 H       
  35 H35           -4.3205    -7.7701     0.6774 H       
  36 H36           -1.9819    -7.7303     1.4440 H       
  37 H37           -0.7593    -5.5971     1.5606 H       
  38 H38            0.7740     3.8574    -0.8114 H       
  39 H39           -0.6075     3.8286    -1.9334 H       
  40 H40           -0.3056     5.2675    -0.9301 H       
  41 H41           -3.2412     3.4290     0.5880 H       
  42 H42           -2.7890     4.9176    -0.2767 H       
  43 H43           -2.8517     3.3666    -1.1477 H       
@<TRIPOS>BOND
   1    1    2 1
   2    1    5 1
   3    1   12 am
   4    2    6 2
   5    2    9 1
   6    3    4 1
   7    3    9 1
   8    3   23 1
   9    3   24 1
  10    4    5 1
  11    4   25 1
  12    4   26 1
  13    5   27 1
  14    5   28 1
  15    6    7 1
  16    6   29 1
  17    7    8 2
  18    7   10 1
  19    8    9 1
  20   10   11 1
  21   10   30 1
  22   10   31 1
  23   11   15 1
  24   12   13 1
  25   12   14 2
  26   13   21 1
  27   13   22 1
  28   13   32 1
  29   15   16 ar
  30   15   20 ar
  31   16   17 ar
  32   16   33 1
  33   17   18 ar
  34   17   34 1
  35   18   19 ar
  36   18   35 1
  37   19   20 ar
  38   19   36 1
  39   20   37 1
  40   21   38 1
  41   21   39 1
  42   21   40 1
  43   22   41 1
  44   22   42 1
  45   22   43 1

#	End of record

