#	Name: ASD03730703
#	Creating user name:	WinNT
#	Creation time:	15. 06. 2019 20:44

#	Modifying user name:	WinNT
#	Modification time:	15. 06. 2019 20:44

#	Program:	/corina/corina34_cracker 3.40 0067  02.08.2006

@<TRIPOS>MOLECULE
ASD03730703
  62   68    0    0    0
SMALL
NO_CHARGES


@<TRIPOS>ATOM
   1 C1             1.9752    -0.8250    -2.0525 C.2     
   2 C2             1.0299    -1.0741    -0.9434 C.ar    
   3 C3             1.3739    -0.7227     0.3631 C.ar    
   4 C4             0.4871    -0.9574     1.3933 C.ar    
   5 C5            -0.7409    -1.5402     1.1339 C.ar    
   6 C6            -1.0879    -1.8908    -0.1585 C.ar    
   7 C7            -0.2125    -1.6562    -1.1989 C.ar    
   8 O8             3.0127    -0.2268    -1.8441 O.2     
   9 N9             1.6893    -1.2660    -3.2936 N.am    
  10 C10            2.7112    -0.0889     0.6475 C.3     
  11 O11           -0.2116    -2.8141     6.6242 O.3     
  12 C12           -0.3807    -2.8700     8.0530 C.3     
  13 O13            0.9463    -2.6441     8.5638 O.3     
  14 C14            1.5846    -1.9044     7.6097 C.ar    
  15 C15            0.8727    -2.0102     6.4171 C.ar    
  16 C16            2.7337    -1.1361     7.6636 C.ar    
  17 C17            3.1877    -0.4664     6.5314 C.ar    
  18 C18            2.4726    -0.5863     5.3436 C.ar    
  19 C19            1.3232    -1.3467     5.2882 C.ar    
  20 O20            4.2723     0.3458     6.3751 O.3     
  21 C21            3.2180     0.2166     4.3113 C.3     
  22 C22            4.5810     0.4616     4.9728 C.3     
  23 N23            2.7912     0.2668     2.0664 N.am    
  24 C24            3.3519    -0.5177     3.0083 C.2     
  25 C25            2.5206     1.5010     3.9742 C.ar    
  26 C26            2.1149     2.5868     4.7176 C.ar    
  27 C27            1.4788     3.6498     4.1015 C.ar    
  28 C28            1.2510     3.6188     2.7377 C.ar    
  29 C29            1.6546     2.5330     1.9889 C.ar    
  30 C30            2.2959     1.4587     2.6006 C.ar    
  31 O31            3.8645    -1.6035     2.8370 O.2     
  32 C32            2.5762    -0.9341    -4.4114 C.3     
  33 C33            2.3681    -1.9324    -5.5637 C.3     
  34 C34            1.8979    -1.1091    -6.7806 C.3     
  35 C35            2.4232     0.3204    -6.4980 C.3     
  36 C36            2.2251     0.4611    -4.9683 C.3     
  37 H37            0.7520    -0.6861     2.4045 H       
  38 H38           -1.4313    -1.7225     1.9442 H       
  39 H39           -2.0479    -2.3452    -0.3542 H       
  40 H40           -0.4862    -1.9265    -2.2080 H       
  41 H41            0.8962    -1.8031    -3.4467 H       
  42 H42            3.5064    -0.7936     0.4042 H       
  43 H43            2.8238     0.8096     0.0407 H       
  44 H44           -1.0591    -2.0859     8.3893 H       
  45 H45           -0.7464    -3.8507     8.3573 H       
  46 H46            3.2821    -1.0555     8.5905 H       
  47 H47            0.7733    -1.4250     4.3620 H       
  48 H48            4.9509     1.4600     4.7390 H       
  49 H49            5.3004    -0.2995     4.6706 H       
  50 H50            2.2937     2.6088     5.7825 H       
  51 H51            1.1613     4.5020     4.6840 H       
  52 H52            0.7544     4.4486     2.2567 H       
  53 H53            1.4727     2.5159     0.9245 H       
  54 H54            3.6151    -0.9549    -4.0823 H       
  55 H55            3.3063    -2.4371    -5.7944 H       
  56 H56            1.6073    -2.6638    -5.2912 H       
  57 H57            2.3351    -1.5016    -7.6987 H       
  58 H58            0.8098    -1.1100    -6.8444 H       
  59 H59            3.4780     0.4032    -6.7601 H       
  60 H60            1.8314     1.0624    -7.0340 H       
  61 H61            1.1898     0.7138    -4.7393 H       
  62 H62            2.9010     1.2145    -4.5638 H       
@<TRIPOS>BOND
   1    1    2 1
   2    1    8 2
   3    1    9 am
   4    2    3 ar
   5    2    7 ar
   6    3    4 ar
   7    3   10 1
   8    4    5 ar
   9    4   37 1
  10    5    6 ar
  11    5   38 1
  12    6    7 ar
  13    6   39 1
  14    7   40 1
  15    9   32 1
  16    9   41 1
  17   10   23 1
  18   10   42 1
  19   10   43 1
  20   11   12 1
  21   11   15 1
  22   12   13 1
  23   12   44 1
  24   12   45 1
  25   13   14 1
  26   14   15 ar
  27   14   16 ar
  28   15   19 ar
  29   16   17 ar
  30   16   46 1
  31   17   18 ar
  32   17   20 1
  33   18   19 ar
  34   18   21 1
  35   19   47 1
  36   20   22 1
  37   21   22 1
  38   21   24 1
  39   21   25 1
  40   22   48 1
  41   22   49 1
  42   23   24 am
  43   23   30 1
  44   24   31 2
  45   25   26 ar
  46   25   30 ar
  47   26   27 ar
  48   26   50 1
  49   27   28 ar
  50   27   51 1
  51   28   29 ar
  52   28   52 1
  53   29   30 ar
  54   29   53 1
  55   32   33 1
  56   32   36 1
  57   32   54 1
  58   33   34 1
  59   33   55 1
  60   33   56 1
  61   34   35 1
  62   34   57 1
  63   34   58 1
  64   35   36 1
  65   35   59 1
  66   35   60 1
  67   36   61 1
  68   36   62 1

#	End of record

