#	Name: ASD01811348
#	Creating user name:	WinNT
#	Creation time:	15. 06. 2019 19:26

#	Modifying user name:	WinNT
#	Modification time:	15. 06. 2019 19:26

#	Program:	/corina/corina34_cracker 3.40 0067  02.08.2006

@<TRIPOS>MOLECULE
ASD01811348
  66   70    0    0    0
SMALL
NO_CHARGES


@<TRIPOS>ATOM
   1 C1            -0.2010     1.3901    -0.0253 C.2     
   2 C2            -0.2319    -0.0752     0.1419 C.ar    
   3 C3             0.8627    -0.8601    -0.2529 C.ar    
   4 C4             0.7905    -2.2156    -0.0793 C.ar    
   5 C5            -0.3582    -2.7733     0.4799 C.ar    
   6 N6            -1.3788    -2.0091     0.8442 N.ar    
   7 C7            -1.3478    -0.7006     0.7003 C.ar    
   8 O8             0.7777     1.9265    -0.5083 O.2     
   9 N9            -1.2597     2.1339     0.3521 N.am    
  10 C10           -1.1955     3.5314     0.2791 C.ar    
  11 C11           -2.3467     4.2697    -0.0009 C.ar    
  12 C12           -2.2856     5.6541    -0.0736 C.ar    
  13 C13           -1.0886     6.3063     0.1307 C.ar    
  14 C14            0.0675     5.5744     0.4118 C.ar    
  15 C15            0.0070     4.1806     0.4902 C.ar    
  16 O16           -3.5283     3.6320    -0.2030 O.3     
  17 C17           -4.6663     4.4488    -0.4852 C.3     
  18 C18            1.3496     6.2724     0.6308 C.2     
  19 O19            2.3922     5.7517     0.2841 O.2     
  20 N20            1.3646     7.4869     1.2149 N.am    
  21 C21            0.1281     8.0782     1.7444 C.3     
  22 C22            0.3568     8.4718     3.2071 C.3     
  23 C23            1.5806     9.3861     3.2998 C.3     
  24 C24            2.8185     8.6363     2.8022 C.3     
  25 C25            2.6187     8.2420     1.3399 C.3     
  26 F26            1.3747    10.5220     2.5095 F       
  27 C27            1.7885     9.8029     4.7330 C.ar    
  28 C28            2.6285    10.8623     5.0272 C.ar    
  29 C29            2.8233    11.2491     6.3369 C.ar    
  30 C30            2.1701    10.5691     7.3668 C.ar    
  31 C31            1.3235     9.5012     7.0627 C.ar    
  32 C32            1.1340     9.1280     5.7482 C.ar    
  33 C33            2.3680    10.9649     8.7287 C.1     
  34 N34            2.5250    11.2788     9.8091 N.1     
  35 N35           -0.4347    -4.1444     0.6571 N.3     
  36 C36           -1.7248    -4.5283     1.2597 C.3     
  37 C37           -1.7603    -5.7182     0.2904 C.3     
  38 C38           -0.8774    -4.8133    -0.5805 C.3     
  39 H39            1.7418    -0.4046    -0.6843 H       
  40 H40            1.6156    -2.8475    -0.3731 H       
  41 H41           -2.1943    -0.1070     1.0125 H       
  42 H42           -2.0661     1.7016     0.6742 H       
  43 H43           -3.1781     6.2220    -0.2912 H       
  44 H44           -1.0444     7.3839     0.0730 H       
  45 H45            0.8979     3.6117     0.7114 H       
  46 H46           -4.8400     5.1302     0.3476 H       
  47 H47           -4.4848     5.0237    -1.3933 H       
  48 H48           -5.5424     3.8155    -0.6252 H       
  49 H49           -0.1312     8.9636     1.1639 H       
  50 H50           -0.6803     7.3496     1.6841 H       
  51 H51           -0.5202     8.9986     3.5834 H       
  52 H52            0.5266     7.5750     3.8029 H       
  53 H53            3.6936     9.2800     2.8904 H       
  54 H54            2.9651     7.7379     3.4018 H       
  55 H55            3.4530     7.6215     1.0129 H       
  56 H56            2.5666     9.1411     0.7258 H       
  57 H57            3.1330    11.3873     4.2296 H       
  58 H58            3.4798    12.0757     6.5651 H       
  59 H59            0.8152     8.9710     7.8545 H       
  60 H60            0.4763     8.3049     5.5113 H       
  61 H61           -1.6447    -4.8229     2.3061 H       
  62 H62           -2.5188    -3.8022     1.0852 H       
  63 H63           -1.2561    -6.6108     0.6608 H       
  64 H64           -2.7446    -5.9210    -0.1315 H       
  65 H65           -1.4452    -4.1633    -1.2462 H       
  66 H66           -0.0791    -5.3495    -1.0937 H       
@<TRIPOS>BOND
   1    1    2 1
   2    1    8 2
   3    1    9 am
   4    2    3 ar
   5    2    7 ar
   6    3    4 ar
   7    3   39 1
   8    4    5 ar
   9    4   40 1
  10    5    6 ar
  11    5   35 1
  12    6    7 ar
  13    7   41 1
  14    9   10 1
  15    9   42 1
  16   10   11 ar
  17   10   15 ar
  18   11   12 ar
  19   11   16 1
  20   12   13 ar
  21   12   43 1
  22   13   14 ar
  23   13   44 1
  24   14   15 ar
  25   14   18 1
  26   15   45 1
  27   16   17 1
  28   17   46 1
  29   17   47 1
  30   17   48 1
  31   18   19 2
  32   18   20 am
  33   20   21 1
  34   20   25 1
  35   21   22 1
  36   21   49 1
  37   21   50 1
  38   22   23 1
  39   22   51 1
  40   22   52 1
  41   23   24 1
  42   23   26 1
  43   23   27 1
  44   24   25 1
  45   24   53 1
  46   24   54 1
  47   25   55 1
  48   25   56 1
  49   27   28 ar
  50   27   32 ar
  51   28   29 ar
  52   28   57 1
  53   29   30 ar
  54   29   58 1
  55   30   31 ar
  56   30   33 1
  57   31   32 ar
  58   31   59 1
  59   32   60 1
  60   33   34 3
  61   35   36 1
  62   35   38 1
  63   36   37 1
  64   36   61 1
  65   36   62 1
  66   37   38 1
  67   37   63 1
  68   37   64 1
  69   38   65 1
  70   38   66 1

#	End of record

