#	Name: ASD01881583
#	Creating user name:	WinNT
#	Creation time:	15. 06. 2019 19:42

#	Modifying user name:	WinNT
#	Modification time:	15. 06. 2019 19:42

#	Program:	/corina/corina34_cracker 3.40 0067  02.08.2006

@<TRIPOS>MOLECULE
ASD01881583
  45   47    0    0    0
SMALL
NO_CHARGES


@<TRIPOS>ATOM
   1 C1            -0.0184     1.5028     0.0103 C.2     
   2 C2             0.0021    -0.0041     0.0020 C.3     
   3 C3             1.2460     2.2559     0.0023 C.ar    
   4 C4             1.2312     3.6543     0.0099 C.ar    
   5 C5             2.4201     4.3527     0.0028 C.ar    
   6 C6             3.6259     3.6734    -0.0119 C.ar    
   7 C7             3.6488     2.2896    -0.0200 C.ar    
   8 C8             2.4685     1.5768    -0.0072 C.ar    
   9 O9            -1.3386    -0.4987     0.0122 O.3     
  10 N10           -2.2566    -5.8988    -0.0086 N.pl3   
  11 N11           -3.6569    -5.8175     0.0059 N.2     
  12 N12           -4.0139    -4.5818     0.0165 N.2     
  13 C13           -2.9298    -3.7807     0.0102 C.ar    
  14 C14           -1.7904    -4.6038    -0.0059 C.ar    
  15 C15           -2.7682    -2.3884     0.0157 C.ar    
  16 C16           -1.4984    -1.8491     0.0064 C.ar    
  17 C17           -0.3790    -2.6777    -0.0092 C.ar    
  18 C18           -0.5211    -4.0368    -0.0161 C.ar    
  19 C19           -1.4493    -7.1212    -0.0182 C.3     
  20 C20           -1.1826    -7.5450    -1.4639 C.3     
  21 C21           -0.4284    -6.4300    -2.1913 C.3     
  22 C22           -0.3395    -8.8217    -1.4740 C.3     
  23 C23           -2.5131    -7.8069    -2.1724 C.3     
  24 Br24          -4.2822    -1.2556     0.0366 Br      
  25 O25           -1.0766     2.0947     0.0185 O.2     
  26 H26            0.5123    -0.3556    -0.8948 H       
  27 H27            0.5293    -0.3651     0.8851 H       
  28 H28            0.2911     4.1858     0.0210 H       
  29 H29            2.4103     5.4327     0.0083 H       
  30 H30            4.5537     4.2261    -0.0174 H       
  31 H31            4.5937     1.7667    -0.0321 H       
  32 H32            2.4881     0.4970    -0.0087 H       
  33 H33            0.6094    -2.2425    -0.0166 H       
  34 H34            0.3532    -4.6707    -0.0284 H       
  35 H35           -0.5014    -6.9347     0.4865 H       
  36 H36           -1.9866    -7.9155     0.5000 H       
  37 H37            0.5196    -6.2434    -1.6866 H       
  38 H38           -0.2383    -6.7319    -3.2212 H       
  39 H39           -1.0290    -5.5205    -2.1841 H       
  40 H40           -0.8768    -9.6160    -0.9558 H       
  41 H41           -0.1495    -9.1235    -2.5039 H       
  42 H42            0.6084    -8.6351    -0.9692 H       
  43 H43           -3.1138    -6.8973    -2.1652 H       
  44 H44           -2.3231    -8.1087    -3.2024 H       
  45 H45           -3.0505    -8.6012    -1.6542 H       
@<TRIPOS>BOND
   1    1    2 1
   2    1    3 1
   3    1   25 2
   4    2    9 1
   5    2   26 1
   6    2   27 1
   7    3    4 ar
   8    3    8 ar
   9    4    5 ar
  10    4   28 1
  11    5    6 ar
  12    5   29 1
  13    6    7 ar
  14    6   30 1
  15    7    8 ar
  16    7   31 1
  17    8   32 1
  18    9   16 1
  19   10   11 1
  20   10   14 1
  21   10   19 1
  22   11   12 2
  23   12   13 1
  24   13   14 ar
  25   13   15 ar
  26   14   18 ar
  27   15   16 ar
  28   15   24 1
  29   16   17 ar
  30   17   18 ar
  31   17   33 1
  32   18   34 1
  33   19   20 1
  34   19   35 1
  35   19   36 1
  36   20   21 1
  37   20   22 1
  38   20   23 1
  39   21   37 1
  40   21   38 1
  41   21   39 1
  42   22   40 1
  43   22   41 1
  44   22   42 1
  45   23   43 1
  46   23   44 1
  47   23   45 1

#	End of record

