#	Name: ASD05060079
#	Creating user name:	WinNT
#	Creation time:	15. 06. 2019 20:56

#	Modifying user name:	WinNT
#	Modification time:	15. 06. 2019 20:56

#	Program:	/corina/corina34_cracker 3.40 0067  02.08.2006

@<TRIPOS>MOLECULE
ASD05060079
  29   30    0    0    0
SMALL
NO_CHARGES


@<TRIPOS>ATOM
   1 C1            -0.0168     1.3913     0.0097 C.ar    
   2 C2             0.0021    -0.0041     0.0020 C.ar    
   3 C3             1.2232    -0.6793    -0.0133 C.ar    
   4 C4             2.4032     0.0356    -0.0207 C.ar    
   5 C5             2.3776     1.4189    -0.0126 C.ar    
   6 C6             1.1702     2.0943     0.0021 C.ar    
   7 C7            -1.2664    -0.7639     0.0105 C.2     
   8 S8            -1.4063    -2.5201     0.0025 S.3     
   9 C9            -3.1628    -2.3753     0.0214 C.2     
  10 C10           -3.4750    -1.0750     0.0316 C.2     
  11 N11           -2.4595    -0.2425     0.0309 N.2     
  12 C12           -4.1436    -3.5194     0.0249 C.3     
  13 N13           -4.4761    -3.8836    -1.3589 N.3     
  14 C14           -5.4322    -4.9982    -1.3946 C.3     
  15 C15           -4.9034    -0.5951     0.0489 C.3     
  16 H16           -0.9587     1.9197     0.0170 H       
  17 H17            1.2446    -1.7590    -0.0189 H       
  18 H18            3.3490    -0.4857    -0.0325 H       
  19 H19            3.3041     1.9738    -0.0177 H       
  20 H20            1.1570     3.1742     0.0081 H       
  21 H21           -3.6993    -4.3773     0.5296 H       
  22 H22           -5.0506    -3.2188     0.5494 H       
  23 H23           -4.8300    -3.0871    -1.8673 H       
  24 H24           -5.6611    -5.2475    -2.4308 H       
  25 H25           -4.9969    -5.8664    -0.8997 H       
  26 H26           -6.3481    -4.7079    -0.8799 H       
  27 H27           -5.2372    -0.4849     1.0807 H       
  28 H28           -4.9696     0.3671    -0.4591 H       
  29 H29           -5.5365    -1.3202    -0.4623 H       
@<TRIPOS>BOND
   1    1    2 ar
   2    1    6 ar
   3    1   16 1
   4    2    3 ar
   5    2    7 1
   6    3    4 ar
   7    3   17 1
   8    4    5 ar
   9    4   18 1
  10    5    6 ar
  11    5   19 1
  12    6   20 1
  13    7    8 1
  14    7   11 2
  15    8    9 1
  16    9   10 2
  17    9   12 1
  18   10   11 1
  19   10   15 1
  20   12   13 1
  21   12   21 1
  22   12   22 1
  23   13   14 1
  24   13   23 1
  25   14   24 1
  26   14   25 1
  27   14   26 1
  28   15   27 1
  29   15   28 1
  30   15   29 1

#	End of record

