#	Name: ASD01200057
#	Creating user name:	WinNT
#	Creation time:	15. 06. 2019 19:08

#	Modifying user name:	WinNT
#	Modification time:	15. 06. 2019 19:08

#	Program:	/corina/corina34_cracker 3.40 0067  02.08.2006

@<TRIPOS>MOLECULE
ASD01200057
  37   39    0    0    0
SMALL
NO_CHARGES


@<TRIPOS>ATOM
   1 C1             0.0220     1.3593    -0.1179 C.ar    
   2 C2            -0.1089     0.0177     0.2281 C.ar    
   3 C3            -1.3512    -0.5115     0.5098 C.ar    
   4 C4            -2.4821     0.2927     0.4499 C.ar    
   5 C5            -2.3575     1.6466     0.1016 C.ar    
   6 C6            -1.0947     2.1754    -0.1765 C.ar    
   7 C7            -3.5522     2.5075     0.0355 C.2     
   8 N8            -3.4175     3.8322    -0.1727 N.am    
   9 C9            -4.5391     4.6605    -0.1423 C.ar    
  10 O10           -4.6593     2.0225     0.1690 O.2     
  11 S11            1.6146     2.0229    -0.4754 S.3     
  12 N12           -3.7345    -0.2423     0.7338 N.pl3   
  13 C13            1.7477     1.5974    -2.1801 C.2     
  14 N14            0.8943     0.8816    -2.8750 N.2     
  15 N15            1.3050     0.7687    -4.0876 N.2     
  16 C16            2.4350     1.4001    -4.2379 C.2     
  17 N17            2.7551     1.9549    -3.0299 N.pl3   
  18 C18            3.9377     2.7587    -2.7113 C.3     
  19 C19           -4.4590     5.9542     0.3711 C.ar    
  20 C20           -5.5913     6.7419     0.3828 C.ar    
  21 N21           -6.7383     6.2848    -0.0832 N.ar    
  22 C22           -6.8546     5.0665    -0.5770 C.ar    
  23 C23           -5.7681     4.2183    -0.6299 C.ar    
  24 H24            0.7668    -0.6126     0.2760 H       
  25 H25           -1.4449    -1.5537     0.7773 H       
  26 H26           -0.9910     3.2162    -0.4452 H       
  27 H27           -2.5404     4.2096    -0.3438 H       
  28 H28           -3.8389    -1.2003     0.8445 H       
  29 H29           -4.5033     0.3427     0.8211 H       
  30 H30            3.0104     1.4743    -5.1488 H       
  31 H31            3.7200     3.8118    -2.8894 H       
  32 H32            4.2036     2.6146    -1.6641 H       
  33 H33            4.7695     2.4477    -3.3434 H       
  34 H34           -3.5237     6.3342     0.7546 H       
  35 H35           -5.5387     7.7454     0.7786 H       
  36 H36           -7.8116     4.7308    -0.9484 H       
  37 H37           -5.8700     3.2226    -1.0357 H       
@<TRIPOS>BOND
   1    1    2 ar
   2    1   11 1
   3    1    6 ar
   4    2    3 ar
   5    2   24 1
   6    3    4 ar
   7    3   25 1
   8    4    5 ar
   9    4   12 1
  10    5    6 ar
  11    5    7 1
  12    6   26 1
  13    7    8 am
  14    7   10 2
  15    8    9 1
  16    8   27 1
  17    9   19 ar
  18    9   23 ar
  19   11   13 1
  20   12   28 1
  21   12   29 1
  22   13   14 2
  23   13   17 1
  24   14   15 1
  25   15   16 2
  26   16   17 1
  27   16   30 1
  28   17   18 1
  29   18   31 1
  30   18   32 1
  31   18   33 1
  32   19   20 ar
  33   19   34 1
  34   20   21 ar
  35   20   35 1
  36   21   22 ar
  37   22   23 ar
  38   22   36 1
  39   23   37 1

#	End of record

