#	Name: ASD01208586
#	Creating user name:	WinNT
#	Creation time:	15. 06. 2019 19:10

#	Modifying user name:	WinNT
#	Modification time:	15. 06. 2019 19:10

#	Program:	/corina/corina34_cracker 3.40 0067  02.08.2006

@<TRIPOS>MOLECULE
ASD01208586
  77   81    0    0    0
SMALL
NO_CHARGES


@<TRIPOS>ATOM
   1 O1            -0.2478     1.8876     0.2577 O.3     
   2 C2            -0.1102     0.5442     0.2393 C.2     
   3 N3             1.0820     0.1453    -0.0962 N.2     
   4 C4             1.9203     1.3355    -0.3389 C.3     
   5 C5             1.0741     2.4629     0.3008 C.3     
   6 C6             3.2530     1.2048     0.3524 C.2     
   7 O7             3.3925     0.4079     1.2497 O.2     
   8 O8             4.2850     1.9739    -0.0287 O.3     
   9 C9             1.5114     2.7268     1.7430 C.3     
  10 N10           -2.4823    -0.0238     0.9290 N.pl3   
  11 C11           -1.2045    -0.3805     0.5679 C.2     
  12 C12           -1.1292    -1.7564     0.5674 C.2     
  13 C13           -2.3840    -2.2448     0.9349 C.2     
  14 C14           -3.2048    -1.1616     1.1537 C.2     
  15 C15           -4.6241    -1.2193     1.5626 C.ar    
  16 C16           -5.2458    -2.4531     1.7599 C.ar    
  17 C17           -6.5755    -2.5027     2.1434 C.ar    
  18 C18           -7.2899    -1.3280     2.3311 C.ar    
  19 C19           -6.6757    -0.0993     2.1362 C.ar    
  20 C20           -5.3442    -0.0405     1.7581 C.ar    
  21 O21           -7.3798     1.0483     2.3214 O.3     
  22 C22           -7.6090     1.8363     1.2411 C.ar    
  23 C23           -8.4114     2.9666     1.3602 C.ar    
  24 N24           -7.0646     1.5342     0.0711 N.ar    
  25 N25           -8.6323     3.7309     0.3073 N.ar    
  26 C26           -8.0918     3.4233    -0.8598 C.ar    
  27 C27           -7.2899     2.3042    -0.9799 C.ar    
  28 S28           -8.3897     4.4461    -2.2633 S.o2    
  29 O29           -8.2324     3.5727    -3.3731 O.2     
  30 O30           -9.6397     5.0633    -1.9881 O.2     
  31 C31           -7.0523     5.6710    -2.2227 C.3     
  32 O32           -7.1819    -3.7037     2.3357 O.3     
  33 C33           -8.5094    -3.6830     2.8642 C.3     
  34 C34           -9.2405    -4.9638     2.4569 C.3     
  35 O35           -8.4532    -3.5993     4.2897 O.3     
  36 C36           -8.0940    -2.3070     4.7823 C.3     
  37 O37           -8.5398    -6.0971     2.9734 O.3     
  38 C38           -9.1428    -7.3511     2.6480 C.3     
  39 C39            5.5386     1.7942     0.6815 C.3     
  40 C40            6.5733     2.7352     0.1203 C.ar    
  41 C41            6.7185     4.0015     0.6555 C.ar    
  42 C42            7.6676     4.8647     0.1407 C.ar    
  43 C43            8.4717     4.4615    -0.9089 C.ar    
  44 C44            8.3271     3.1950    -1.4435 C.ar    
  45 C45            7.3810     2.3302    -0.9259 C.ar    
  46 H46            2.0528     1.5068    -1.4072 H       
  47 H47            1.1235     3.3748    -0.2943 H       
  48 H48            1.4959     1.7924     2.3041 H       
  49 H49            2.5214     3.1365     1.7472 H       
  50 H50            0.8283     3.4395     2.2051 H       
  51 H51           -2.8141     0.8837     1.0140 H       
  52 H52           -0.2587    -2.3485     0.3264 H       
  53 H53           -2.6609    -3.2843     1.0303 H       
  54 H54           -4.6908    -3.3679     1.6132 H       
  55 H55           -8.3270    -1.3703     2.6296 H       
  56 H56           -4.8657     0.9164     1.6105 H       
  57 H57           -8.8532     3.2180     2.3131 H       
  58 H58           -6.8462     2.0585    -1.9335 H       
  59 H59           -6.0909     5.1615    -2.2872 H       
  60 H60           -7.1591     6.3535    -3.0658 H       
  61 H61           -7.1034     6.2340    -1.2908 H       
  62 H62           -9.0439    -2.8186     2.4703 H       
  63 H63          -10.2531    -4.9480     2.8601 H       
  64 H64           -9.2833    -5.0276     1.3697 H       
  65 H65           -7.0728    -2.0740     4.4805 H       
  66 H66           -8.7735    -1.5599     4.3721 H       
  67 H67           -8.1616    -2.3011     5.8702 H       
  68 H68           -9.1836    -7.4644     1.5647 H       
  69 H69           -8.5515    -8.1605     3.0760 H       
  70 H70          -10.1534    -7.3848     3.0552 H       
  71 H71            5.3902     2.0068     1.7402 H       
  72 H72            5.8798     0.7659     0.5618 H       
  73 H73            6.0903     4.3165     1.4755 H       
  74 H74            7.7806     5.8543     0.5583 H       
  75 H75            9.2127     5.1362    -1.3116 H       
  76 H76            8.9551     2.8801    -2.2638 H       
  77 H77            7.2705     1.3393    -1.3411 H       
@<TRIPOS>BOND
   1    1    2 1
   2    1    5 1
   3    2    3 2
   4    2   11 1
   5    3    4 1
   6    4    5 1
   7    4    6 1
   8    4   46 1
   9    5    9 1
  10    5   47 1
  11    6    7 2
  12    6    8 1
  13    8   39 1
  14    9   48 1
  15    9   49 1
  16    9   50 1
  17   10   11 1
  18   10   14 1
  19   10   51 1
  20   11   12 2
  21   12   13 1
  22   12   52 1
  23   13   14 2
  24   13   53 1
  25   14   15 1
  26   15   16 ar
  27   15   20 ar
  28   16   17 ar
  29   16   54 1
  30   17   18 ar
  31   17   32 1
  32   18   19 ar
  33   18   55 1
  34   19   20 ar
  35   19   21 1
  36   20   56 1
  37   21   22 1
  38   22   23 ar
  39   22   24 ar
  40   23   25 ar
  41   23   57 1
  42   24   27 ar
  43   25   26 ar
  44   26   27 ar
  45   26   28 1
  46   27   58 1
  47   28   29 2
  48   28   30 2
  49   28   31 1
  50   31   59 1
  51   31   60 1
  52   31   61 1
  53   32   33 1
  54   33   34 1
  55   33   35 1
  56   33   62 1
  57   34   37 1
  58   34   63 1
  59   34   64 1
  60   35   36 1
  61   36   65 1
  62   36   66 1
  63   36   67 1
  64   37   38 1
  65   38   68 1
  66   38   69 1
  67   38   70 1
  68   39   40 1
  69   39   71 1
  70   39   72 1
  71   40   41 ar
  72   40   45 ar
  73   41   42 ar
  74   41   73 1
  75   42   43 ar
  76   42   74 1
  77   43   44 ar
  78   43   75 1
  79   44   45 ar
  80   44   76 1
  81   45   77 1

#	End of record

