#	Name: ASD09610058
#	Creating user name:	WinNT
#	Creation time:	15. 06. 2019 21:22

#	Modifying user name:	WinNT
#	Modification time:	15. 06. 2019 21:22

#	Program:	/corina/corina34_cracker 3.40 0067  02.08.2006

@<TRIPOS>MOLECULE
ASD09610058
  30   31    0    0    0
SMALL
NO_CHARGES


@<TRIPOS>ATOM
   1 C1            -0.0169     1.3932     0.0097 C.ar    
   2 C2             0.0021    -0.0041     0.0020 C.ar    
   3 C3             1.2387    -0.6631    -0.0134 C.ar    
   4 C4             2.3921     0.1055    -0.0203 C.ar    
   5 C5             2.2873     1.4835    -0.0119 C.ar    
   6 N6             1.1090     2.0782     0.0026 N.ar    
   7 C7            -1.2590    -0.7727     0.0105 C.2     
   8 O8            -1.7885    -1.0834    -1.0388 O.2     
   9 N9            -1.8227    -1.1297     1.1814 N.am    
  10 Cl10           1.3239    -2.3970    -0.0229 Cl      
  11 Cl11          -1.5359     2.2336     0.0215 Cl      
  12 C12           -3.0737    -1.8922     1.1898 C.3     
  13 C13           -2.7626    -3.3840     1.0530 C.3     
  14 C14           -3.8022    -1.6478     2.4862 C.ar    
  15 C15           -5.1624    -1.3951     2.4689 C.ar    
  16 C16           -5.8234    -1.1720     3.6680 C.ar    
  17 C17           -5.0884    -1.2116     4.8440 C.ar    
  18 C18           -3.7313    -1.4703     4.7819 C.ar    
  19 N19           -3.1371    -1.6827     3.6240 N.ar    
  20 Cl20          -6.0306    -1.3572     0.9661 Cl      
  21 Br21          -5.9314    -0.9150     6.5105 Br      
  22 H22            3.3628    -0.3677    -0.0318 H       
  23 H23            3.1849     2.0841    -0.0173 H       
  24 H24           -1.4002    -0.8818     2.0187 H       
  25 H25           -3.6990    -1.5735     0.3559 H       
  26 H26           -3.6933    -3.9513     1.0592 H       
  27 H27           -2.2356    -3.5607     0.1153 H       
  28 H28           -2.1372    -3.7027     1.8869 H       
  29 H29           -6.8845    -0.9719     3.6856 H       
  30 H30           -3.1521    -1.5025     5.6929 H       
@<TRIPOS>BOND
   1    1    2 ar
   2    1    6 ar
   3    1   11 1
   4    2    3 ar
   5    2    7 1
   6    3    4 ar
   7    3   10 1
   8    4    5 ar
   9    4   22 1
  10    5    6 ar
  11    5   23 1
  12    7    8 2
  13    7    9 am
  14    9   12 1
  15    9   24 1
  16   12   13 1
  17   12   14 1
  18   12   25 1
  19   13   26 1
  20   13   27 1
  21   13   28 1
  22   14   15 ar
  23   14   19 ar
  24   15   16 ar
  25   15   20 1
  26   16   17 ar
  27   16   29 1
  28   17   18 ar
  29   17   21 1
  30   18   19 ar
  31   18   30 1

#	End of record

