#	Name: ASD01816144
#	Creating user name:	WinNT
#	Creation time:	15. 06. 2019 19:34

#	Modifying user name:	WinNT
#	Modification time:	15. 06. 2019 19:34

#	Program:	/corina/corina34_cracker 3.40 0067  02.08.2006

@<TRIPOS>MOLECULE
ASD01816144
  52   57    0    0    0
SMALL
NO_CHARGES


@<TRIPOS>ATOM
   1 C1            -0.0167     1.3813     0.0096 C.ar    
   2 C2             0.0021    -0.0041     0.0020 C.ar    
   3 C3             1.1984    -0.6909    -0.0127 C.ar    
   4 C4             2.4015     0.0059    -0.0200 C.ar    
   5 C5             2.3790     1.4106    -0.0127 C.ar    
   6 C6             1.1663     2.0916     0.0022 C.ar    
   7 N7             3.6053    -0.6772    -0.0338 N.pl3   
   8 C8             4.7970    -0.0586    -0.0409 C.2     
   9 C9             4.9000     1.3103    -0.0349 C.2     
  10 C10            3.6670     2.1301    -0.0207 C.2     
  11 C11            5.9971     2.2729    -0.0391 C.2     
  12 N12            5.4246     3.4960    -0.0282 N.am    
  13 N13            4.0323     3.3799    -0.0174 N.2     
  14 O14            7.1915     2.0229    -0.0495 O.2     
  15 C15            3.5779    -2.1419    -0.0404 C.3     
  16 C16            3.5560    -2.6375    -1.4634 C.ar    
  17 N17            2.4046    -2.7352    -2.0991 N.ar    
  18 C18            2.3314    -3.1622    -3.3433 C.ar    
  19 C19            3.4830    -3.5293    -4.0359 C.ar    
  20 C20            4.7188    -3.4371    -3.3896 C.ar    
  21 C21            4.7443    -2.9775    -2.0843 C.ar    
  22 C22            6.1265     4.7081    -0.0278 C.ar    
  23 C23            5.8865     5.6523     0.9648 C.ar    
  24 C24            7.0677     4.9677    -1.0150 C.ar    
  25 C25            7.7583     6.1639    -1.0120 C.ar    
  26 C26            7.5140     7.1037    -0.0273 C.ar    
  27 C27            6.5819     6.8478     0.9614 C.ar    
  28 F28            4.9754     5.4022     1.9305 F       
  29 C29            3.3989    -4.0110    -5.4368 C.ar    
  30 C30            4.2179    -3.4662    -6.4226 C.ar    
  31 N31            4.1451    -3.8928    -7.6671 N.ar    
  32 C32            3.3036    -4.8432    -8.0300 C.ar    
  33 C33            2.4564    -5.4349    -7.1098 C.ar    
  34 C34            2.4997    -5.0237    -5.7874 C.ar    
  35 Cl35           3.2588    -5.3579    -9.6874 Cl      
  36 Cl36           1.4555    -5.7378    -4.5985 Cl      
  37 H37           -0.9602     1.9068     0.0170 H       
  38 H38           -0.9289    -0.5515     0.0080 H       
  39 H39            1.2004    -1.7709    -0.0181 H       
  40 H40            1.1506     3.1715     0.0077 H       
  41 H41            5.6983    -0.6536    -0.0513 H       
  42 H42            4.4654    -2.5242     0.4639 H       
  43 H43            2.6859    -2.4910     0.4797 H       
  44 H44            1.3699    -3.2285    -3.8306 H       
  45 H45            5.6311    -3.7136    -3.8972 H       
  46 H46            5.6811    -2.8931    -1.5535 H       
  47 H47            7.2599     4.2346    -1.7845 H       
  48 H48            8.4906     6.3655    -1.7798 H       
  49 H49            8.0560     8.0378    -0.0278 H       
  50 H50            6.3934     7.5839     1.7289 H       
  51 H51            4.9192    -2.6864    -6.1646 H       
  52 H52            1.7720    -6.2115    -7.4180 H       
@<TRIPOS>BOND
   1    1    2 ar
   2    1    6 ar
   3    1   37 1
   4    2    3 ar
   5    2   38 1
   6    3    4 ar
   7    3   39 1
   8    4    5 ar
   9    4    7 1
  10    5    6 ar
  11    5   10 1
  12    6   40 1
  13    7    8 1
  14    7   15 1
  15    8    9 2
  16    8   41 1
  17    9   10 1
  18    9   11 1
  19   10   13 2
  20   11   12 am
  21   11   14 2
  22   12   13 1
  23   12   22 1
  24   15   16 1
  25   15   42 1
  26   15   43 1
  27   16   17 ar
  28   16   21 ar
  29   17   18 ar
  30   18   19 ar
  31   18   44 1
  32   19   20 ar
  33   19   29 1
  34   20   21 ar
  35   20   45 1
  36   21   46 1
  37   22   23 ar
  38   22   24 ar
  39   23   28 1
  40   23   27 ar
  41   24   25 ar
  42   24   47 1
  43   25   26 ar
  44   25   48 1
  45   26   27 ar
  46   26   49 1
  47   27   50 1
  48   29   30 ar
  49   29   34 ar
  50   30   31 ar
  51   30   51 1
  52   31   32 ar
  53   32   33 ar
  54   32   35 1
  55   33   34 ar
  56   33   52 1
  57   34   36 1

#	End of record

