#	Name: ASD01811609
#	Creating user name:	WinNT
#	Creation time:	15. 06. 2019 19:27

#	Modifying user name:	WinNT
#	Modification time:	15. 06. 2019 19:27

#	Program:	/corina/corina34_cracker 3.40 0067  02.08.2006

@<TRIPOS>MOLECULE
ASD01811609
  66   70    0    0    0
SMALL
NO_CHARGES


@<TRIPOS>ATOM
   1 C1             0.0795     1.2253     0.1047 C.ar    
   2 C2             0.1123    -0.1548     0.0288 C.ar    
   3 C3             1.3182    -0.8184    -0.0646 C.ar    
   4 C4             2.5126    -0.1033    -0.0827 C.ar    
   5 C5             2.4678     1.2872    -0.0055 C.ar    
   6 C6             1.2617     1.9445     0.0871 C.ar    
   7 N7             3.8370    -0.5399    -0.1683 N.am    
   8 C8             4.7121     0.4859    -0.1519 C.2     
   9 C9             3.8956     1.7400    -0.0460 C.3     
  10 C10            4.1657     2.7049    -1.2091 C.3     
  11 N11            5.3501     3.4795    -0.7868 N.pl3   
  12 C12            5.4463     3.4356     0.6807 C.3     
  13 C13            4.2734     2.5691     1.1931 C.3     
  14 C14            6.2331     4.1431    -1.6394 C.2     
  15 C15            6.1085     4.0132    -2.9606 C.2     
  16 C16            7.3087     4.9918    -1.0769 C.ar    
  17 C17            8.6180     4.8600    -1.5383 C.ar    
  18 C18            9.6159     5.6535    -1.0103 C.ar    
  19 C19            9.3196     6.5780    -0.0248 C.ar    
  20 C20            8.0227     6.7131     0.4373 C.ar    
  21 C21            7.0151     5.9299    -0.0877 C.ar    
  22 O22            5.9211     0.4097    -0.2108 O.2     
  23 C23            4.2294    -1.9482    -0.2641 C.3     
  24 C24            4.2986    -2.3527    -1.7141 C.ar    
  25 C25            5.4130    -2.0257    -2.4699 C.ar    
  26 C26            5.4805    -2.3954    -3.8001 C.ar    
  27 C27            4.4259    -3.0974    -4.3791 C.ar    
  28 C28            3.3085    -3.4230    -3.6138 C.ar    
  29 C29            3.2526    -3.0540    -2.2846 C.ar    
  30 F30            6.4344    -1.3444    -1.9062 F       
  31 C31            4.4924    -3.4968    -5.8075 C.2     
  32 C32            5.5538    -3.2365    -6.6960 C.2     
  33 N33            5.2433    -3.7446    -7.8592 N.2     
  34 N34            3.9820    -4.3443    -7.7604 N.pl3   
  35 C35            3.5390    -4.1880    -6.4966 C.2     
  36 C36            3.2692    -5.0286    -8.8420 C.3     
  37 H37           -0.8669     1.7412     0.1730 H       
  38 H38           -0.8103    -0.7160     0.0431 H       
  39 H39            1.3358    -1.8967    -0.1237 H       
  40 H40            1.2381     3.0226     0.1462 H       
  41 H41            4.3811     2.1489    -2.1216 H       
  42 H42            3.3128     3.3669    -1.3592 H       
  43 H43            6.3949     2.9875     0.9766 H       
  44 H44            5.3676     4.4437     1.0875 H       
  45 H45            3.4389     3.1958     1.5074 H       
  46 H46            4.5988     1.9209     2.0068 H       
  47 H47            6.7920     4.5269    -3.6205 H       
  48 H48            5.3242     3.3944    -3.3709 H       
  49 H49            8.8506     4.1380    -2.3071 H       
  50 H50           10.6303     5.5523    -1.3668 H       
  51 H51           10.1039     7.1966     0.3857 H       
  52 H52            7.7974     7.4364     1.2071 H       
  53 H53            6.0030     6.0362     0.2738 H       
  54 H54            5.2068    -2.0853     0.1985 H       
  55 H55            3.4938    -2.5661     0.2508 H       
  56 H56            6.3489    -2.1403    -4.3894 H       
  57 H57            2.4884    -3.9669    -4.0588 H       
  58 H58            2.3863    -3.3068    -1.6912 H       
  59 H59            6.4652    -2.7084    -6.4576 H       
  60 H60            2.5971    -4.5403    -6.1028 H       
  61 H61            3.5351    -6.0856    -8.8406 H       
  62 H62            2.1946    -4.9240    -8.6920 H       
  63 H63            3.5475    -4.5851    -9.7980 H       
  64 O64           15.6303    13.4033     7.0130 O.3     
  65 H65           15.6434    12.4364     7.0077 H       
  66 H66           16.5082    13.8086     7.0068 H       
@<TRIPOS>BOND
   1    1    2 ar
   2    1    6 ar
   3    1   37 1
   4    2    3 ar
   5    2   38 1
   6    3    4 ar
   7    3   39 1
   8    4    5 ar
   9    4    7 1
  10    5    6 ar
  11    5    9 1
  12    6   40 1
  13    7    8 am
  14    7   23 1
  15    8    9 1
  16    8   22 2
  17    9   10 1
  18    9   13 1
  19   10   11 1
  20   10   41 1
  21   10   42 1
  22   11   12 1
  23   11   14 1
  24   12   13 1
  25   12   43 1
  26   12   44 1
  27   13   45 1
  28   13   46 1
  29   14   15 2
  30   14   16 1
  31   15   47 1
  32   15   48 1
  33   16   17 ar
  34   16   21 ar
  35   17   18 ar
  36   17   49 1
  37   18   19 ar
  38   18   50 1
  39   19   20 ar
  40   19   51 1
  41   20   21 ar
  42   20   52 1
  43   21   53 1
  44   23   24 1
  45   23   54 1
  46   23   55 1
  47   24   25 ar
  48   24   29 ar
  49   25   26 ar
  50   25   30 1
  51   26   27 ar
  52   26   56 1
  53   27   28 ar
  54   27   31 1
  55   28   29 ar
  56   28   57 1
  57   29   58 1
  58   31   32 1
  59   31   35 2
  60   32   33 2
  61   32   59 1
  62   33   34 1
  63   34   35 1
  64   34   36 1
  65   35   60 1
  66   36   61 1
  67   36   62 1
  68   36   63 1
  69   64   65 1
  70   64   66 1

#	End of record

