#	Name: ASD01901069
#	Creating user name:	WinNT
#	Creation time:	15. 06. 2019 19:53

#	Modifying user name:	WinNT
#	Modification time:	15. 06. 2019 19:53

#	Program:	/corina/corina34_cracker 3.40 0067  02.08.2006

@<TRIPOS>MOLECULE
ASD01901069
  28   29    0    0    0
SMALL
NO_CHARGES


@<TRIPOS>ATOM
   1 C1            -0.0184     1.5028     0.0103 C.2     
   2 C2             0.0021    -0.0041     0.0020 C.3     
   3 C3             1.2431     2.2541     0.0023 C.ar    
   4 C4             1.2282     3.6565     0.0100 C.ar    
   5 C5             2.4194     4.3549     0.0023 C.ar    
   6 C6             3.6255     3.6727    -0.0129 C.ar    
   7 C7             3.6460     2.2849    -0.0206 C.ar    
   8 C8             2.4669     1.5743    -0.0073 C.ar    
   9 F9             4.7874     4.3619    -0.0208 F       
  10 F10            0.0525     4.3218     0.0244 F       
  11 O11           -1.3386    -0.4987     0.0122 O.3     
  12 C12           -1.4983    -1.8484     0.0064 C.ar    
  13 C13           -2.7733    -2.3978     0.0157 C.ar    
  14 C14           -2.9327    -3.7705     0.0099 C.ar    
  15 C15           -1.8235    -4.5962    -0.0051 C.ar    
  16 C16           -0.5531    -4.0513    -0.0139 C.ar    
  17 C17           -0.3882    -2.6792    -0.0144 C.ar    
  18 Br18          -4.2902    -1.2689     0.0368 Br      
  19 O19           -1.0769     2.0949     0.0185 O.2     
  20 H20            0.5123    -0.3556    -0.8948 H       
  21 H21            0.5293    -0.3651     0.8851 H       
  22 H22            2.4111     5.4349     0.0078 H       
  23 H23            4.5902     1.7607    -0.0324 H       
  24 H24            2.4859     0.4945    -0.0087 H       
  25 H25           -3.9241    -4.1987     0.0174 H       
  26 H26           -1.9500    -5.6688    -0.0096 H       
  27 H27            0.3114    -4.6985    -0.0252 H       
  28 H28            0.6046    -2.2543    -0.0264 H       
@<TRIPOS>BOND
   1    1    2 1
   2    1    3 1
   3    1   19 2
   4    2   11 1
   5    2   20 1
   6    2   21 1
   7    3    4 ar
   8    3    8 ar
   9    4    5 ar
  10    4   10 1
  11    5    6 ar
  12    5   22 1
  13    6    7 ar
  14    6    9 1
  15    7    8 ar
  16    7   23 1
  17    8   24 1
  18   11   12 1
  19   12   13 ar
  20   12   17 ar
  21   13   14 ar
  22   13   18 1
  23   14   15 ar
  24   14   25 1
  25   15   16 ar
  26   15   26 1
  27   16   17 ar
  28   16   27 1
  29   17   28 1

#	End of record

