#	Name: ASD00431159
#	Creating user name:	WinNT
#	Creation time:	15. 06. 2019 18:35

#	Modifying user name:	WinNT
#	Modification time:	15. 06. 2019 18:35

#	Program:	/corina/corina34_cracker 3.40 0067  02.08.2006

@<TRIPOS>MOLECULE
ASD00431159
  51   54    0    0    0
SMALL
NO_CHARGES


@<TRIPOS>ATOM
   1 N1             0.1925     1.7337    -0.6650 N.am    
   2 C2            -0.0170     0.4025    -0.6478 C.2     
   3 O3             0.8938    -0.3527    -0.3675 O.2     
   4 N4            -1.2360    -0.0917    -0.9414 N.am    
   5 C5            -1.4637    -1.5388    -0.9227 C.3     
   6 C6             1.5176     2.2709    -0.3459 C.3     
   7 C7             2.3867     2.2659    -1.6051 C.3     
   8 O8             0.5448     4.6231    -0.3060 O.3     
   9 N9             0.6533     5.6641     0.2993 N.2     
  10 C10            1.5594     5.5746     1.2453 C.2     
  11 C11            2.0687     4.2452     1.1786 C.2     
  12 C12            1.3782     3.6827     0.1626 C.2     
  13 S13            3.1894     6.4894     3.4484 S.3     
  14 C14            2.9189     8.1117     3.9147 C.2     
  15 N15            2.0027     8.6479     3.1686 N.2     
  16 C16            1.4712     7.8902     2.2346 C.2     
  17 C17            1.9679     6.6362     2.1873 C.2     
  18 O18            3.5682     8.7465     4.9194 O.3     
  19 C19            3.1688    10.0054     5.2424 C.ar    
  20 C20            2.0043    10.1982     5.9713 C.ar    
  21 C21            1.5987    11.4770     6.2993 C.ar    
  22 C22            2.3556    12.5686     5.9000 C.ar    
  23 C23            3.5200    12.3760     5.1711 C.ar    
  24 C24            3.9288    11.0969     4.8479 C.ar    
  25 O25            1.9559    13.8276     6.2225 O.3     
  26 C26            2.7836    14.9047     5.7788 C.3     
  27 C27            2.1774    16.2342     6.2327 C.3     
  28 C28            2.9794    17.5074     5.9558 C.3     
  29 C29            1.7160    17.2077     5.1464 C.3     
  30 H30           -0.5331     2.3360    -0.8925 H       
  31 H31           -1.9626     0.5107    -1.1650 H       
  32 H32           -1.2555    -1.9265     0.0745 H       
  33 H33           -2.5013    -1.7467    -1.1841 H       
  34 H34           -0.8038    -2.0198    -1.6447 H       
  35 H35            1.9851     1.6531     0.4208 H       
  36 H36            1.9192     2.8837    -2.3717 H       
  37 H37            3.3726     2.6655    -1.3676 H       
  38 H38            2.4875     1.2448    -1.9728 H       
  39 H39            2.8299     3.7925     1.7967 H       
  40 H40            0.7024     8.2415     1.5623 H       
  41 H41            1.4147     9.3483     6.2820 H       
  42 H42            0.6919    11.6271     6.8665 H       
  43 H43            4.1090    13.2260     4.8599 H       
  44 H44            4.8377    10.9467     4.2843 H       
  45 H45            3.7810    14.7959     6.2047 H       
  46 H46            2.8493    14.8880     4.6909 H       
  47 H47            1.5966    16.1957     7.1542 H       
  48 H48            2.9258    18.3067     6.6949 H       
  49 H49            3.9388    17.3979     5.4502 H       
  50 H50            1.8443    16.9012     4.1083 H       
  51 H51            0.8313    17.8099     5.3530 H       
@<TRIPOS>BOND
   1    1    2 am
   2    1    6 1
   3    1   30 1
   4    2    3 2
   5    2    4 am
   6    4    5 1
   7    4   31 1
   8    5   32 1
   9    5   33 1
  10    5   34 1
  11    6    7 1
  12    6   12 1
  13    6   35 1
  14    7   36 1
  15    7   37 1
  16    7   38 1
  17    8    9 1
  18    8   12 1
  19    9   10 2
  20   10   11 1
  21   10   17 1
  22   11   12 2
  23   11   39 1
  24   13   14 1
  25   13   17 1
  26   14   15 2
  27   14   18 1
  28   15   16 1
  29   16   17 2
  30   16   40 1
  31   18   19 1
  32   19   20 ar
  33   19   24 ar
  34   20   21 ar
  35   20   41 1
  36   21   22 ar
  37   21   42 1
  38   22   23 ar
  39   22   25 1
  40   23   24 ar
  41   23   43 1
  42   24   44 1
  43   25   26 1
  44   26   27 1
  45   26   45 1
  46   26   46 1
  47   27   28 1
  48   27   29 1
  49   27   47 1
  50   28   29 1
  51   28   48 1
  52   28   49 1
  53   29   50 1
  54   29   51 1

#	End of record

