#	Name: ASD03250001
#	Creating user name:	WinNT
#	Creation time:	15. 06. 2019 20:35

#	Modifying user name:	WinNT
#	Modification time:	15. 06. 2019 20:35

#	Program:	/corina/corina34_cracker 3.40 0067  02.08.2006

@<TRIPOS>MOLECULE
ASD03250001
  36   39    0    0    0
SMALL
NO_CHARGES


@<TRIPOS>ATOM
   1 N1            -0.0157     1.3053     0.0092 N.2     
   2 C2             0.0021    -0.0041     0.0020 C.2     
   3 C3             1.3072    -0.6896    -0.0141 C.2     
   4 C4             2.4637     0.2030    -0.0200 C.ar    
   5 C5             2.3794     1.5832    -0.0115 C.ar    
   6 N6             1.1201     2.1273     0.0028 N.pl3   
   7 C7             3.6308    -0.5365    -0.0347 C.ar    
   8 N8             4.7478     0.1977    -0.0408 N.ar    
   9 C9             4.6677     1.5163    -0.0330 C.ar    
  10 N10            3.5425     2.2241    -0.0188 N.ar    
  11 C11            1.8425    -1.9249    -0.0260 C.2     
  12 N12            3.2251    -1.8392    -0.0382 N.pl3   
  13 C13            4.1295    -2.9916    -0.0534 C.3     
  14 O14            3.4629    -4.1395     0.4848 O.3     
  15 C15            3.3677    -5.1657    -0.5159 C.3     
  16 C16            4.5264    -4.8768    -1.5031 C.3     
  17 C17            4.5303    -3.3237    -1.5068 C.3     
  18 O18            3.5321    -6.4548     0.0783 O.3     
  19 O19            5.7641    -5.3937    -1.0100 O.3     
  20 O20            3.5650    -2.8150    -2.4295 O.3     
  21 C21            0.9603     3.5836     0.0121 C.3     
  22 N22           -1.1834    -0.7315     0.0098 N.pl3   
  23 H23            5.5968     2.0669    -0.0381 H       
  24 H24            1.2780    -2.8457    -0.0256 H       
  25 H25            5.0195    -2.7708     0.5358 H       
  26 H26            2.4085    -5.1048    -1.0301 H       
  27 H27            4.3053    -5.2714    -2.4948 H       
  28 H28            5.5248    -2.9388    -1.7325 H       
  29 H29            2.8593    -6.6725     0.7379 H       
  30 H30            5.7693    -6.3531    -0.8891 H       
  31 H31            3.7250    -3.0721    -3.3478 H       
  32 H32            0.9114     3.9503    -1.0131 H       
  33 H33            0.0407     3.8448     0.5357 H       
  34 H34            1.8099     4.0390     0.5208 H       
  35 H35           -2.0361    -0.2692     0.0207 H       
  36 H36           -1.1575    -1.7011     0.0044 H       
@<TRIPOS>BOND
   1    1    2 2
   2    1    6 1
   3    2    3 1
   4    2   22 1
   5    3    4 1
   6    3   11 2
   7    4    5 ar
   8    4    7 ar
   9    5    6 1
  10    5   10 ar
  11    6   21 1
  12    7    8 ar
  13    7   12 1
  14    8    9 ar
  15    9   10 ar
  16    9   23 1
  17   11   12 1
  18   11   24 1
  19   12   13 1
  20   13   14 1
  21   13   17 1
  22   13   25 1
  23   14   15 1
  24   15   16 1
  25   15   18 1
  26   15   26 1
  27   16   17 1
  28   16   19 1
  29   16   27 1
  30   17   20 1
  31   17   28 1
  32   18   29 1
  33   19   30 1
  34   20   31 1
  35   21   32 1
  36   21   33 1
  37   21   34 1
  38   22   35 1
  39   22   36 1

#	End of record

