#	Name: ASD04840087
#	Creating user name:	WinNT
#	Creation time:	15. 06. 2019 20:52

#	Modifying user name:	WinNT
#	Modification time:	15. 06. 2019 20:52

#	Program:	/corina/corina34_cracker 3.40 0067  02.08.2006

@<TRIPOS>MOLECULE
ASD04840087
  46   49    0    0    0
SMALL
NO_CHARGES


@<TRIPOS>ATOM
   1 C1            -0.0172     1.4162     0.0098 C.ar    
   2 C2             0.0021    -0.0041     0.0020 C.ar    
   3 N3             2.3586     0.1191    -0.0198 N.ar    
   4 C4             2.2873     1.4300    -0.0121 C.ar    
   5 N5             1.1332     2.0725     0.0024 N.ar    
   6 C6            -1.0883    -0.9558     0.0069 C.2     
   7 C7            -0.7095    -2.2339    -0.0040 C.2     
   8 S8             1.0380    -2.3780    -0.0213 S.3     
   9 C9             1.2510    -0.6335    -0.0133 C.ar    
  10 N10           -1.2176     2.1025     0.0193 N.pl3   
  11 C11           -1.2237     3.5675     0.0273 C.3     
  12 C12           -2.2353     4.0710    -0.9699 C.ar    
  13 P13           -1.6632     4.1642     1.6928 P.3     
  14 C14           -4.0908     4.9945    -2.7996 C.ar    
  15 C15           -4.3412     3.8380    -2.0850 C.ar    
  16 C16           -3.4133     3.3761    -1.1703 C.ar    
  17 C17           -1.9877     5.2309    -1.6799 C.ar    
  18 C18           -2.9155     5.6928    -2.5946 C.ar    
  19 O19           -1.7984     5.7684     1.6698 O.3     
  20 O20           -3.0655     3.5139     2.1432 O.3     
  21 O21           -0.6067     3.7719     2.6521 O.2     
  22 C22           -1.6419    -3.3812    -0.0017 C.ar    
  23 C23           -1.1474    -4.6863    -0.0138 C.ar    
  24 C24           -2.0228    -5.7525    -0.0112 C.ar    
  25 C25           -3.3884    -5.5302     0.0034 C.ar    
  26 C26           -3.8851    -4.2390     0.0155 C.ar    
  27 C27           -3.0204    -3.1640     0.0183 C.ar    
  28 C28           -4.3388    -6.6997     0.0057 C.3     
  29 H29            3.2031     2.0024    -0.0174 H       
  30 H30           -2.1255    -0.6547     0.0187 H       
  31 H31           -2.0556     1.6140     0.0206 H       
  32 H32           -0.2339     3.9365    -0.2414 H       
  33 H33           -4.8157     5.3554    -3.5142 H       
  34 H34           -5.2594     3.2924    -2.2451 H       
  35 H35           -3.6086     2.4721    -0.6126 H       
  36 H36           -1.0694     5.7765    -1.5198 H       
  37 H37           -2.7199     6.5963    -3.1529 H       
  38 H38           -2.4741     6.0975     1.0613 H       
  39 H39           -3.3619     3.7879     3.0220 H       
  40 H40           -0.0817    -4.8611    -0.0256 H       
  41 H41           -1.6415    -6.7629    -0.0209 H       
  42 H42           -4.9521    -4.0723     0.0268 H       
  43 H43           -3.4094    -2.1566     0.0322 H       
  44 H44           -4.5579    -6.9878     1.0339 H       
  45 H45           -5.2636    -6.4174    -0.4975 H       
  46 H46           -3.8823    -7.5399    -0.5176 H       
@<TRIPOS>BOND
   1    1    2 ar
   2    1    5 ar
   3    1   10 1
   4    2    9 ar
   5    2    6 1
   6    3    4 ar
   7    3    9 ar
   8    4    5 ar
   9    4   29 1
  10    6    7 2
  11    6   30 1
  12    7    8 1
  13    7   22 1
  14    8    9 1
  15   10   11 1
  16   10   31 1
  17   11   12 1
  18   11   13 1
  19   11   32 1
  20   12   17 ar
  21   12   16 ar
  22   13   19 1
  23   13   20 1
  24   13   21 2
  25   14   15 ar
  26   14   18 ar
  27   14   33 1
  28   15   16 ar
  29   15   34 1
  30   16   35 1
  31   17   18 ar
  32   17   36 1
  33   18   37 1
  34   19   38 1
  35   20   39 1
  36   22   23 ar
  37   22   27 ar
  38   23   24 ar
  39   23   40 1
  40   24   25 ar
  41   24   41 1
  42   25   26 ar
  43   25   28 1
  44   26   27 ar
  45   26   42 1
  46   27   43 1
  47   28   44 1
  48   28   45 1
  49   28   46 1

#	End of record

