#	Name: ASD01840048
#	Creating user name:	WinNT
#	Creation time:	15. 06. 2019 19:37

#	Modifying user name:	WinNT
#	Modification time:	15. 06. 2019 19:37

#	Program:	/corina/corina34_cracker 3.40 0067  02.08.2006

@<TRIPOS>MOLECULE
ASD01840048
  39   41    0    0    0
SMALL
NO_CHARGES


@<TRIPOS>ATOM
   1 C1             0.3103     1.8319    -1.1051 C.ar    
   2 C2             0.4562     0.6453    -1.7869 C.ar    
   3 C3             1.6310    -0.0798    -1.6499 C.ar    
   4 N4             2.6052     0.3465    -0.8809 N.ar    
   5 C5             2.5230     1.4899    -0.1941 C.ar    
   6 C6             1.3697     2.2774    -0.2810 C.ar    
   7 S7             3.6925     2.2440     0.8829 S.3     
   8 C8             2.6346     3.6024     1.2084 C.2     
   9 C9             1.4589     3.4787     0.5306 C.2     
  10 C10            1.7909    -1.3791    -2.3964 C.3     
  11 C11           -0.9519     2.6442    -1.2392 C.3     
  12 N12            0.4416     4.4135     0.6083 N.pl3   
  13 C13            2.9554     4.6756     2.0561 C.2     
  14 C14            4.2887     4.7092     2.7576 C.3     
  15 O15            2.1575     5.5771     2.2237 O.2     
  16 C16            4.3834     5.9745     3.6126 C.3     
  17 C17            5.7167     6.0081     4.3141 C.ar    
  18 C18            7.1131     5.4811     6.1776 C.ar    
  19 C19            5.8754     5.4308     5.5647 C.ar    
  20 C20            6.8153     6.6121     3.7219 C.ar    
  21 C21            8.0220     6.6235     4.3955 C.ar    
  22 N22            8.1350     6.0687     5.5865 N.ar    
  23 H23           -0.3372     0.2816    -2.4229 H       
  24 H24            2.2355    -1.1850    -3.3725 H       
  25 H25            2.4386    -2.0471    -1.8286 H       
  26 H26            0.8143    -1.8450    -2.5281 H       
  27 H27           -1.6215     2.4145    -0.4103 H       
  28 H28           -0.7044     3.7056    -1.2230 H       
  29 H29           -1.4428     2.3999    -2.1812 H       
  30 H30           -0.4709     4.1553     0.4048 H       
  31 H31            0.6412     5.3270     0.8663 H       
  32 H32            4.3854     3.8312     3.3962 H       
  33 H33            5.0888     4.7101     2.0175 H       
  34 H34            4.2866     6.8525     2.9740 H       
  35 H35            3.5833     5.9736     4.3528 H       
  36 H36            7.2450     5.0338     7.1517 H       
  37 H37            5.0422     4.9481     6.0539 H       
  38 H38            6.7292     7.0675     2.7465 H       
  39 H39            8.8825     7.0919     3.9411 H       
@<TRIPOS>BOND
   1    1    2 ar
   2    1    6 ar
   3    1   11 1
   4    2    3 ar
   5    2   23 1
   6    3    4 ar
   7    3   10 1
   8    4    5 ar
   9    5    7 1
  10    5    6 ar
  11    6    9 1
  12    7    8 1
  13    8    9 2
  14    8   13 1
  15    9   12 1
  16   10   24 1
  17   10   25 1
  18   10   26 1
  19   11   27 1
  20   11   28 1
  21   11   29 1
  22   12   30 1
  23   12   31 1
  24   13   14 1
  25   13   15 2
  26   14   16 1
  27   14   32 1
  28   14   33 1
  29   16   17 1
  30   16   34 1
  31   16   35 1
  32   17   20 ar
  33   17   19 ar
  34   18   19 ar
  35   18   22 ar
  36   18   36 1
  37   19   37 1
  38   20   21 ar
  39   20   38 1
  40   21   22 ar
  41   21   39 1

#	End of record

