#	Name: ASD08150500
#	Creating user name:	WinNT
#	Creation time:	15. 06. 2019 21:16

#	Modifying user name:	WinNT
#	Modification time:	15. 06. 2019 21:16

#	Program:	/corina/corina34_cracker 3.40 0067  02.08.2006

@<TRIPOS>MOLECULE
ASD08150500
  51   55    0    0    0
SMALL
NO_CHARGES


@<TRIPOS>ATOM
   1 N1            -0.0147     1.7415    -0.5584 N.am    
   2 C2            -0.0392     0.4540    -0.9521 C.2     
   3 C3             1.2229    -0.3659    -0.9748 C.3     
   4 C4             2.4090     0.5144    -1.3710 C.3     
   5 C5             2.3891     1.7817    -0.5582 C.ar    
   6 C6             3.5757     2.3941    -0.1754 C.ar    
   7 N7             3.5833     3.4995     0.5329 N.ar    
   8 C8             2.4512     4.0959     0.9231 C.ar    
   9 C9             1.1990     3.5320     0.5724 C.ar    
  10 C10            1.1804     2.3410    -0.1877 C.ar    
  11 C11            0.0832     5.3232     1.7238 C.ar    
  12 C12            1.3267     5.8751     2.0675 C.ar    
  13 C13            2.4852     5.2807     1.6800 C.ar    
  14 O14           -1.0887    -0.0501    -1.2915 O.2     
  15 C15           -1.2028     2.4821    -0.5284 C.ar    
  16 C16           -1.3527     3.5877    -1.3527 C.ar    
  17 C17           -2.5321     4.3189    -1.3204 C.ar    
  18 C18           -3.5583     3.9415    -0.4630 C.ar    
  19 C19           -3.4054     2.8397     0.3566 C.ar    
  20 C20           -2.2349     2.1070     0.3228 C.ar    
  21 N21           -2.6869     5.4330    -2.1485 N.pl3   
  22 C22           -4.8390     4.7350    -0.4267 C.3     
  23 C23            0.0156     4.1578     0.9803 C.ar    
  24 C24           -1.1663     5.9932     2.1593 C.ar    
  25 C25           -2.4029     5.3949     1.9350 C.ar    
  26 N26           -3.5161     5.9862     2.3205 N.ar    
  27 C27           -3.5056     7.1615     2.9309 C.ar    
  28 C28           -2.3071     7.8213     3.1894 C.ar    
  29 C29           -1.1179     7.2334     2.8069 C.ar    
  30 N30           -4.7062     7.7437     3.3180 N.pl3   
  31 H31            1.3991    -0.7866     0.0152 H       
  32 H32            1.1158    -1.1754    -1.6968 H       
  33 H33            3.3386    -0.0229    -1.1833 H       
  34 H34            2.3400     0.7613    -2.4304 H       
  35 H35            4.5156     1.9496    -0.4675 H       
  36 H36            1.3634     6.7852     2.6478 H       
  37 H37            3.4337     5.7184     1.9538 H       
  38 H38           -0.5534     3.8790    -2.0180 H       
  39 H39           -4.2045     2.5483     1.0222 H       
  40 H40           -2.1187     1.2461     0.9646 H       
  41 H41           -1.9700     5.6961    -2.7466 H       
  42 H42           -3.5114     5.9436    -2.1254 H       
  43 H43           -5.5409     4.3253    -1.1530 H       
  44 H44           -5.2738     4.6775     0.5712 H       
  45 H45           -4.6285     5.7759    -0.6720 H       
  46 H46           -0.9426     3.7349     0.7168 H       
  47 H47           -2.4508     4.4364     1.4395 H       
  48 H48           -2.3074     8.7798     3.6871 H       
  49 H49           -0.1736     7.7225     2.9951 H       
  50 H50           -5.5448     7.2897     3.1407 H       
  51 H51           -4.7058     8.6044     3.7655 H       
@<TRIPOS>BOND
   1    1    2 am
   2    1   10 1
   3    1   15 1
   4    2    3 1
   5    2   14 2
   6    3    4 1
   7    3   31 1
   8    3   32 1
   9    4    5 1
  10    4   33 1
  11    4   34 1
  12    5    6 ar
  13    5   10 ar
  14    6    7 ar
  15    6   35 1
  16    7    8 ar
  17    8    9 ar
  18    8   13 ar
  19    9   10 ar
  20    9   23 ar
  21   11   12 ar
  22   11   24 1
  23   11   23 ar
  24   12   13 ar
  25   12   36 1
  26   13   37 1
  27   15   16 ar
  28   15   20 ar
  29   16   17 ar
  30   16   38 1
  31   17   18 ar
  32   17   21 1
  33   18   19 ar
  34   18   22 1
  35   19   20 ar
  36   19   39 1
  37   20   40 1
  38   21   41 1
  39   21   42 1
  40   22   43 1
  41   22   44 1
  42   22   45 1
  43   23   46 1
  44   24   25 ar
  45   24   29 ar
  46   25   26 ar
  47   25   47 1
  48   26   27 ar
  49   27   28 ar
  50   27   30 1
  51   28   29 ar
  52   28   48 1
  53   29   49 1
  54   30   50 1
  55   30   51 1

#	End of record

