#	Name: ASD04910429
#	Creating user name:	WinNT
#	Creation time:	15. 06. 2019 20:55

#	Modifying user name:	WinNT
#	Modification time:	15. 06. 2019 20:55

#	Program:	/corina/corina34_cracker 3.40 0067  02.08.2006

@<TRIPOS>MOLECULE
ASD04910429
  46   48    0    0    0
SMALL
NO_CHARGES


@<TRIPOS>ATOM
   1 N1            -0.0178     1.4648     0.0101 N.3     
   2 C2             0.0021    -0.0041     0.0020 C.3     
   3 C3            -1.4289    -0.5341     0.1123 C.3     
   4 C4             0.6205    -0.4910    -1.2831 C.ar    
   5 C5            -2.0568    -0.0398     1.4170 C.3     
   6 C6            -3.4878    -0.5698     1.5273 C.3     
   7 C7            -4.3117    -0.0644     0.3413 C.3     
   8 C8            -3.6838    -0.5588    -0.9634 C.3     
   9 C9            -2.2528    -0.0287    -1.0737 C.3     
  10 C10            0.6809     0.3475    -2.3807 C.ar    
  11 C11            1.1315    -1.7738    -1.3604 C.ar    
  12 C12            1.6988    -2.2229    -2.5366 C.ar    
  13 C13            1.7558    -1.3850    -3.6425 C.ar    
  14 C14            1.2468    -0.0962    -3.5602 C.ar    
  15 C15            1.0697    -2.6823    -0.1596 C.3     
  16 N16            2.3315    -1.8378    -4.8378 N.pl3   
  17 C17            2.4503    -1.1282    -5.9827 C.2     
  18 C18            3.0588    -1.9196    -6.8963 C.2     
  19 C19            3.3209    -3.1535    -6.2909 C.2     
  20 N20            2.8910    -3.1035    -5.0558 N.2     
  21 C21            3.3941    -1.5394    -8.3155 C.3     
  22 F22            4.6740    -0.9761    -8.3573 F       
  23 F23            3.3600    -2.6803    -9.1244 F       
  24 F24            2.4595    -0.6088    -8.7822 F       
  25 H25            0.9191     1.8392     0.0032 H       
  26 H26           -0.5563     1.8234    -0.7642 H       
  27 H27            0.5890    -0.3641     0.8470 H       
  28 H28           -1.4141    -1.6240     0.1063 H       
  29 H29           -1.4698    -0.3998     2.2620 H       
  30 H30           -2.0716     1.0501     1.4230 H       
  31 H31           -3.4730    -1.6597     1.5213 H       
  32 H32           -3.9351    -0.2176     2.4568 H       
  33 H33           -5.3311    -0.4421     0.4199 H       
  34 H34           -4.3265     1.0254     0.3473 H       
  35 H35           -3.6690    -1.6487    -0.9694 H       
  36 H36           -4.2708    -0.1987    -1.8084 H       
  37 H37           -2.2676     1.0612    -1.0677 H       
  38 H38           -1.8055    -0.3809    -2.0032 H       
  39 H39            0.2850     1.3502    -2.3160 H       
  40 H40            2.0981    -3.2246    -2.5963 H       
  41 H41            1.2894     0.5576    -4.4188 H       
  42 H42            0.1381    -3.2479    -0.1795 H       
  43 H43            1.9138    -3.3716    -0.1817 H       
  44 H44            1.1124    -2.0846     0.7509 H       
  45 H45            2.1188    -0.1125    -6.1399 H       
  46 H46            3.8000    -3.9999    -6.7606 H       
@<TRIPOS>BOND
   1    1    2 1
   2    1   25 1
   3    1   26 1
   4    2    3 1
   5    2    4 1
   6    2   27 1
   7    3    5 1
   8    3    9 1
   9    3   28 1
  10    4   10 ar
  11    4   11 ar
  12    5    6 1
  13    5   29 1
  14    5   30 1
  15    6    7 1
  16    6   31 1
  17    6   32 1
  18    7    8 1
  19    7   33 1
  20    7   34 1
  21    8    9 1
  22    8   35 1
  23    8   36 1
  24    9   37 1
  25    9   38 1
  26   10   14 ar
  27   10   39 1
  28   11   12 ar
  29   11   15 1
  30   12   13 ar
  31   12   40 1
  32   13   14 ar
  33   13   16 1
  34   14   41 1
  35   15   42 1
  36   15   43 1
  37   15   44 1
  38   16   17 1
  39   16   20 1
  40   17   18 2
  41   17   45 1
  42   18   19 1
  43   18   21 1
  44   19   20 2
  45   19   46 1
  46   21   22 1
  47   21   23 1
  48   21   24 1

#	End of record

