#	Name: ASD09900022
#	Creating user name:	WinNT
#	Creation time:	15. 06. 2019 21:24

#	Modifying user name:	WinNT
#	Modification time:	15. 06. 2019 21:24

#	Program:	/corina/corina34_cracker 3.40 0067  02.08.2006

@<TRIPOS>MOLECULE
ASD09900022
  29   30    0    0    0
SMALL
NO_CHARGES


@<TRIPOS>ATOM
   1 C1            -0.0164     1.3599     0.0095 C.ar    
   2 C2             0.0021    -0.0041     0.0020 C.ar    
   3 C3             1.2071    -0.6958    -0.0132 C.ar    
   4 C4             2.4065    -0.0165    -0.0210 C.ar    
   5 C5             2.4125     1.3778    -0.0136 C.ar    
   6 C6             1.1894     2.0745     0.0018 C.ar    
   7 N7             3.4196     2.3149    -0.0177 N.pl3   
   8 C8             2.8542     3.5749    -0.0053 C.2     
   9 C9             1.5008     3.4557     0.0067 C.2     
  10 C10            3.5984     4.8434    -0.0047 C.2     
  11 O11            2.9976     5.9011     0.0069 O.2     
  12 N12            4.9461     4.8340    -0.0169 N.am    
  13 C13            5.6874     6.0976    -0.0163 C.3     
  14 C14            5.8501     6.5927     1.4222 C.3     
  15 C15            7.0675     5.8795    -0.6397 C.3     
  16 F16            3.5722    -0.6993    -0.0354 F       
  17 H17           -0.9584     1.8882     0.0168 H       
  18 H18           -0.9288    -0.5516     0.0083 H       
  19 H19            1.2039    -1.7758    -0.0186 H       
  20 H20            4.3702     2.1224    -0.0278 H       
  21 H21            0.7900     4.2687     0.0177 H       
  22 H22            5.4252     3.9906    -0.0262 H       
  23 H23            5.1399     6.8404    -0.5965 H       
  24 H24            6.3976     5.8500     2.0024 H       
  25 H25            6.4017     7.5329     1.4227 H       
  26 H26            4.8669     6.7481     1.8663 H       
  27 H27            6.9517     5.5267    -1.6645 H       
  28 H28            7.6191     6.8196    -0.6392 H       
  29 H29            7.6151     5.1367    -0.0595 H       
@<TRIPOS>BOND
   1    1    2 ar
   2    1    6 ar
   3    1   17 1
   4    2    3 ar
   5    2   18 1
   6    3    4 ar
   7    3   19 1
   8    4    5 ar
   9    4   16 1
  10    5    7 1
  11    5    6 ar
  12    6    9 1
  13    7    8 1
  14    7   20 1
  15    8    9 2
  16    8   10 1
  17    9   21 1
  18   10   11 2
  19   10   12 am
  20   12   13 1
  21   12   22 1
  22   13   14 1
  23   13   15 1
  24   13   23 1
  25   14   24 1
  26   14   25 1
  27   14   26 1
  28   15   27 1
  29   15   28 1
  30   15   29 1

#	End of record

