#	Name: ASD01813935
#	Creating user name:	WinNT
#	Creation time:	15. 06. 2019 19:31

#	Modifying user name:	WinNT
#	Modification time:	15. 06. 2019 19:31

#	Program:	/corina/corina34_cracker 3.40 0067  02.08.2006

@<TRIPOS>MOLECULE
ASD01813935
  60   64    0    0    0
SMALL
NO_CHARGES


@<TRIPOS>ATOM
   1 C1            -0.0169     1.3972     0.0097 C.2     
   2 C2             0.0021    -0.0041     0.0020 C.2     
   3 C3             1.1986    -0.6593    -0.0129 C.2     
   4 C4             2.3918     0.0821    -0.0204 C.2     
   5 N5             2.3437     1.4497    -0.0122 N.am    
   6 C6             1.1421     2.0937     0.0024 C.2     
   7 C7             3.6227    -0.5889    -0.0356 C.2     
   8 C8             4.7877     0.1218    -0.0425 C.2     
   9 C9             4.7345     1.5280    -0.0346 C.2     
  10 C10            3.4812     2.1736    -0.0189 C.2     
  11 O11            3.4258     3.3917    -0.0123 O.2     
  12 C12            5.9703     2.3140    -0.0413 C.2     
  13 O13            5.9124     3.6618    -0.0337 O.3     
  14 O14            7.0487     1.7516    -0.0537 O.2     
  15 C15            3.6593    -2.0954    -0.0439 C.3     
  16 N16            3.7787    -2.5747    -1.4274 N.3     
  17 C17            4.0549    -4.0171    -1.4629 C.3     
  18 C18            4.0193    -4.5119    -2.8811 C.2     
  19 N19            3.4533    -3.8192    -3.8750 N.am    
  20 C20            2.8493    -2.5039    -3.6821 C.3     
  21 C21            2.5615    -2.2718    -2.1975 C.3     
  22 C22            3.4389    -4.4058    -5.2173 C.3     
  23 O23            4.5255    -5.5843    -3.1352 O.2     
  24 C24            5.4175    -4.2801    -0.8753 C.ar    
  25 C25            5.6173    -5.3762    -0.0580 C.ar    
  26 C26            6.8695    -5.6176     0.4817 C.ar    
  27 C27            7.9198    -4.7603     0.2017 C.ar    
  28 C28            7.7176    -3.6645    -0.6161 C.ar    
  29 C29            6.4686    -3.4277    -1.1588 C.ar    
  30 F30            7.0660    -6.6888     1.2813 F       
  31 C31            2.1850    -5.2225    -5.3953 C.ar    
  32 C32            1.0394    -4.6304    -5.8932 C.ar    
  33 C33           -0.1109    -5.3795    -6.0564 C.ar    
  34 C34           -0.1154    -6.7208    -5.7220 C.ar    
  35 C35            1.0304    -7.3131    -5.2249 C.ar    
  36 C36            2.1819    -6.5650    -5.0658 C.ar    
  37 H37           -0.9605     1.9226     0.0170 H       
  38 H38           -0.9233    -0.5609     0.0082 H       
  39 H39            1.2282    -1.7389    -0.0187 H       
  40 H40            1.1156     3.1733     0.0087 H       
  41 H41            5.7393    -0.3889    -0.0536 H       
  42 H42            6.7544     4.1373    -0.0385 H       
  43 H43            4.5153    -2.4412     0.5356 H       
  44 H44            2.7412    -2.4836     0.3971 H       
  45 H45            3.3020    -4.5441    -0.8768 H       
  46 H46            3.5333    -1.7355    -4.0423 H       
  47 H47            1.9171    -2.4481    -4.2442 H       
  48 H48            1.7522    -2.9270    -1.8752 H       
  49 H49            2.2778    -1.2315    -2.0384 H       
  50 H50            3.4630    -3.6101    -5.9619 H       
  51 H51            4.3112    -5.0473    -5.3428 H       
  52 H52            4.7971    -6.0441     0.1600 H       
  53 H53            8.8968    -4.9475     0.6224 H       
  54 H54            8.5368    -2.9956    -0.8347 H       
  55 H55            6.3115    -2.5715    -1.7980 H       
  56 H56            1.0429    -3.5825    -6.1544 H       
  57 H57           -1.0061    -4.9168    -6.4447 H       
  58 H58           -1.0143    -7.3059    -5.8488 H       
  59 H59            1.0268    -8.3609    -4.9634 H       
  60 H60            3.0772    -7.0277    -4.6775 H       
@<TRIPOS>BOND
   1    1    2 1
   2    1    6 2
   3    1   37 1
   4    2    3 2
   5    2   38 1
   6    3    4 1
   7    3   39 1
   8    4    5 1
   9    4    7 2
  10    5    6 1
  11    5   10 am
  12    6   40 1
  13    7    8 1
  14    7   15 1
  15    8    9 2
  16    8   41 1
  17    9   10 1
  18    9   12 1
  19   10   11 2
  20   12   13 1
  21   12   14 2
  22   13   42 1
  23   15   16 1
  24   15   43 1
  25   15   44 1
  26   16   17 1
  27   16   21 1
  28   17   18 1
  29   17   24 1
  30   17   45 1
  31   18   19 am
  32   18   23 2
  33   19   20 1
  34   19   22 1
  35   20   21 1
  36   20   46 1
  37   20   47 1
  38   21   48 1
  39   21   49 1
  40   22   31 1
  41   22   50 1
  42   22   51 1
  43   24   25 ar
  44   24   29 ar
  45   25   26 ar
  46   25   52 1
  47   26   27 ar
  48   26   30 1
  49   27   28 ar
  50   27   53 1
  51   28   29 ar
  52   28   54 1
  53   29   55 1
  54   31   32 ar
  55   31   36 ar
  56   32   33 ar
  57   32   56 1
  58   33   34 ar
  59   33   57 1
  60   34   35 ar
  61   34   58 1
  62   35   36 ar
  63   35   59 1
  64   36   60 1

#	End of record

