#	Name: ASD01420028
#	Creating user name:	WinNT
#	Creation time:	15. 06. 2019 19:20

#	Modifying user name:	WinNT
#	Modification time:	15. 06. 2019 19:20

#	Program:	/corina/corina34_cracker 3.40 0067  02.08.2006

@<TRIPOS>MOLECULE
ASD01420028
  54   57    0    0    0
SMALL
NO_CHARGES


@<TRIPOS>ATOM
   1 C1             0.3350     1.4045     1.0883 C.2     
   2 O2             0.4481     0.2996     1.5822 O.2     
   3 N3             1.4253     2.0560     0.6376 N.am    
   4 C4             2.7746     1.5048     0.8400 C.3     
   5 C5             3.5043     1.5051    -0.5082 C.3     
   6 O6             3.4320     2.8124    -1.0823 O.3     
   7 C7             2.1030     3.2501    -1.3756 C.3     
   8 C8             1.3013     3.3365    -0.0768 C.3     
   9 C9            -4.9592     3.5609     0.5903 C.3     
  10 N10           -5.6979     2.2825     0.6972 N.3     
  11 C11           -4.7198     1.2675     0.2448 C.3     
  12 C12           -3.3579     1.8426     0.5621 C.ar    
  13 C13           -2.1153     1.2531     0.6650 C.ar    
  14 C14           -0.9994     2.0311     0.9763 C.ar    
  15 C15           -1.1490     3.4037     1.1821 C.ar    
  16 C16           -2.3968     3.9818     1.0766 C.ar    
  17 C17           -3.4999     3.2060     0.7676 C.ar    
  18 C18           -6.8875     2.2882    -0.1647 C.3     
  19 C19           -7.5551     0.9383    -0.1083 C.ar    
  20 C20           -8.3043     0.5811     1.0041 C.ar    
  21 C21           -8.9181    -0.6606     1.0553 C.ar    
  22 C22           -8.7818    -1.5431    -0.0054 C.ar    
  23 C23           -8.0318    -1.1814    -1.1153 C.ar    
  24 C24           -7.4255     0.0595    -1.1664 C.ar    
  25 O25           -9.3821    -2.7614     0.0421 O.3     
  26 C26           -9.1990    -3.6192    -1.0861 C.3     
  27 O27           -8.4357     1.4480     2.0424 O.3     
  28 C28           -9.2211     1.0140     3.1545 C.3     
  29 H29            3.3205     2.1228     1.5529 H       
  30 H30            2.7018     0.4850     1.2178 H       
  31 H31            4.5484     1.2310    -0.3572 H       
  32 H32            3.0317     0.7867    -1.1780 H       
  33 H33            2.1390     4.2315    -1.8486 H       
  34 H34            1.6254     2.5380    -2.0486 H       
  35 H35            0.2531     3.5290    -0.3058 H       
  36 H36            1.6962     4.1420     0.5422 H       
  37 H37           -5.1214     4.0086    -0.3903 H       
  38 H38           -5.2779     4.2467     1.3753 H       
  39 H39           -4.8693     0.3331     0.7858 H       
  40 H40           -4.8179     1.1020    -0.8281 H       
  41 H41           -2.0061     0.1906     0.5050 H       
  42 H42           -0.2897     4.0115     1.4237 H       
  43 H43           -2.5132     5.0436     1.2360 H       
  44 H44           -7.5834     3.0524     0.1815 H       
  45 H45           -6.5914     2.5045    -1.1911 H       
  46 H46           -9.5012    -0.9405     1.9202 H       
  47 H47           -7.9253    -1.8684    -1.9418 H       
  48 H48           -6.8457     0.3409    -2.0330 H       
  49 H49           -9.7290    -4.5570    -0.9192 H       
  50 H50           -9.5921    -3.1337    -1.9793 H       
  51 H51           -8.1364    -3.8213    -1.2203 H       
  52 H52           -9.2445     1.7984     3.9110 H       
  53 H53          -10.2366     0.8006     2.8209 H       
  54 H54           -8.7814     0.1119     3.5799 H       
@<TRIPOS>BOND
   1    1    2 2
   2    1    3 am
   3    1   14 1
   4    3    4 1
   5    3    8 1
   6    4    5 1
   7    4   29 1
   8    4   30 1
   9    5    6 1
  10    5   31 1
  11    5   32 1
  12    6    7 1
  13    7    8 1
  14    7   33 1
  15    7   34 1
  16    8   35 1
  17    8   36 1
  18    9   10 1
  19    9   17 1
  20    9   37 1
  21    9   38 1
  22   10   11 1
  23   10   18 1
  24   11   12 1
  25   11   39 1
  26   11   40 1
  27   12   13 ar
  28   12   17 ar
  29   13   14 ar
  30   13   41 1
  31   14   15 ar
  32   15   16 ar
  33   15   42 1
  34   16   17 ar
  35   16   43 1
  36   18   19 1
  37   18   44 1
  38   18   45 1
  39   19   20 ar
  40   19   24 ar
  41   20   21 ar
  42   20   27 1
  43   21   22 ar
  44   21   46 1
  45   22   23 ar
  46   22   25 1
  47   23   24 ar
  48   23   47 1
  49   24   48 1
  50   25   26 1
  51   26   49 1
  52   26   50 1
  53   26   51 1
  54   27   28 1
  55   28   52 1
  56   28   53 1
  57   28   54 1

#	End of record

