#	Name: ASD01028680
#	Creating user name:	WinNT
#	Creation time:	15. 06. 2019 18:57

#	Modifying user name:	WinNT
#	Modification time:	15. 06. 2019 18:57

#	Program:	/corina/corina34_cracker 3.40 0067  02.08.2006

@<TRIPOS>MOLECULE
ASD01028680
  33   35    0    0    0
SMALL
NO_CHARGES


@<TRIPOS>ATOM
   1 C1            -0.0233     1.5019     0.0092 C.2     
   2 C2             0.0442     0.0001     0.1144 C.3     
   3 N3             1.9835    -2.1265    -4.7141 N.ar    
   4 C4             3.2555    -2.4042    -4.8666 C.ar    
   5 C5             4.1805    -2.1880    -3.8473 C.ar    
   6 C6             3.7688    -1.6735    -2.6510 C.ar    
   7 C7             2.4021    -1.3761    -2.4910 C.ar    
   8 C8             1.9051    -0.8451    -1.2902 C.ar    
   9 C9             0.5764    -0.5703    -1.1749 C.ar    
  10 C10           -0.2975    -0.8101    -2.2330 C.ar    
  11 C11            0.1501    -1.3246    -3.4109 C.ar    
  12 C12            1.5150    -1.6209    -3.5687 C.ar    
  13 F13            0.8935    -0.3558     1.1675 F       
  14 F14           -1.2365    -0.5085     0.3558 F       
  15 C15            2.1427     2.3386     0.9283 C.ar    
  16 C16            1.2180     2.2890    -0.1210 C.ar    
  17 C17            1.4912     2.9983    -1.2958 C.ar    
  18 C18            2.6706     3.7211    -1.3675 C.ar    
  19 C19            3.5336     3.7198    -0.2863 C.ar    
  20 N20            3.2519     3.0421     0.8104 N.ar    
  21 F21            1.8945     1.6652     2.0729 F       
  22 Br22           3.0971     4.6998    -2.9283 Br      
  23 N23           -1.1700     2.1007     0.0276 N.2     
  24 O24           -1.2297     3.5153     0.0499 O.3     
  25 H25            3.5955    -2.8116    -5.8073 H       
  26 H26            5.2221    -2.4275    -4.0029 H       
  27 H27            4.4721    -1.4999    -1.8500 H       
  28 H28            2.5728    -0.6552    -0.4628 H       
  29 H29           -1.3473    -0.5844    -2.1167 H       
  30 H30           -0.5408    -1.5048    -4.2212 H       
  31 H31            0.8003     2.9822    -2.1257 H       
  32 H32            4.4537     4.2827    -0.3409 H       
  33 H33           -2.1288     3.8709     0.0626 H       
@<TRIPOS>BOND
   1    1    2 1
   2    1   16 1
   3    1   23 2
   4    2    9 1
   5    2   13 1
   6    2   14 1
   7    3    4 ar
   8    3   12 ar
   9    4    5 ar
  10    4   25 1
  11    5    6 ar
  12    5   26 1
  13    6    7 ar
  14    6   27 1
  15    7    8 ar
  16    7   12 ar
  17    8    9 ar
  18    8   28 1
  19    9   10 ar
  20   10   11 ar
  21   10   29 1
  22   11   12 ar
  23   11   30 1
  24   15   16 ar
  25   15   20 ar
  26   15   21 1
  27   16   17 ar
  28   17   18 ar
  29   17   31 1
  30   18   19 ar
  31   18   22 1
  32   19   20 ar
  33   19   32 1
  34   23   24 1
  35   24   33 1

#	End of record

