#	Name: ASD00310032
#	Creating user name:	WinNT
#	Creation time:	15. 06. 2019 18:33

#	Modifying user name:	WinNT
#	Modification time:	15. 06. 2019 18:33

#	Program:	/corina/corina34_cracker 3.40 0067  02.08.2006

@<TRIPOS>MOLECULE
ASD00310032
  40   41    0    0    0
SMALL
NO_CHARGES


@<TRIPOS>ATOM
   1 N1            -0.0179     1.4664     0.0101 N.am    
   2 C2             0.0021    -0.0041     0.0020 C.3     
   3 C3             1.3598     0.0722    -0.7099 C.3     
   4 C4             1.4523     1.4322    -0.0041 C.3     
   5 C5            -0.9662     2.4241     0.0201 C.2     
   6 O6            -2.1414     2.1153     0.0243 O.2     
   7 O7            -0.6114     3.7228     0.0253 O.3     
   8 C8             2.3817    -0.9576    -0.2239 C.3     
   9 O9             3.5604    -0.8750    -1.0277 O.3     
  10 C10            4.5741    -1.7286    -0.7259 C.ar    
  11 C11            5.7474    -1.7026    -1.4656 C.ar    
  12 C12            6.7765    -2.5711    -1.1573 C.ar    
  13 C13            6.6374    -3.4666    -0.1120 C.ar    
  14 C14            5.4681    -3.4941     0.6269 C.ar    
  15 C15            4.4390    -2.6231     0.3258 C.ar    
  16 Br16           8.0473    -4.6551     0.3070 Br      
  17 C17           -1.6857     4.6996     0.0361 C.3     
  18 C18           -2.5419     4.5023     1.2886 C.3     
  19 C19           -1.0925     6.1100     0.0407 C.3     
  20 C20           -2.5545     4.5159    -1.2098 C.3     
  21 H21            0.0583    -0.4429     0.9982 H       
  22 H22           -0.7846    -0.4455    -0.6098 H       
  23 H23            1.2921     0.1360    -1.7959 H       
  24 H24            1.8987     2.2120    -0.6212 H       
  25 H25            1.8949     1.3759     0.9904 H       
  26 H26            2.6362    -0.7540     0.8162 H       
  27 H27            1.9562    -1.9578    -0.3047 H       
  28 H28            5.8561    -1.0042    -2.2821 H       
  29 H29            7.6901    -2.5512    -1.7329 H       
  30 H30            5.3615    -4.1940     1.4425 H       
  31 H31            3.5281    -2.6418     0.9057 H       
  32 H32           -1.9229     4.6332     2.1762 H       
  33 H33           -3.3484     5.2356     1.2966 H       
  34 H34           -2.9645     3.4975     1.2852 H       
  35 H35           -0.4825     6.2506    -0.8516 H       
  36 H36           -1.8990     6.8432     0.0488 H       
  37 H37           -0.4736     6.2409     0.9283 H       
  38 H38           -2.9770     3.5111    -1.2132 H       
  39 H39           -3.3609     5.2491    -1.2018 H       
  40 H40           -1.9445     4.6564    -2.1022 H       
@<TRIPOS>BOND
   1    1    2 1
   2    1    4 1
   3    1    5 am
   4    2    3 1
   5    2   21 1
   6    2   22 1
   7    3    4 1
   8    3    8 1
   9    3   23 1
  10    4   24 1
  11    4   25 1
  12    5    6 2
  13    5    7 1
  14    7   17 1
  15    8    9 1
  16    8   26 1
  17    8   27 1
  18    9   10 1
  19   10   11 ar
  20   10   15 ar
  21   11   12 ar
  22   11   28 1
  23   12   13 ar
  24   12   29 1
  25   13   14 ar
  26   13   16 1
  27   14   15 ar
  28   14   30 1
  29   15   31 1
  30   17   18 1
  31   17   20 1
  32   17   19 1
  33   18   32 1
  34   18   33 1
  35   18   34 1
  36   19   35 1
  37   19   36 1
  38   19   37 1
  39   20   38 1
  40   20   39 1
  41   20   40 1

#	End of record

