#	Name: ASD01190078
#	Creating user name:	WinNT
#	Creation time:	15. 06. 2019 19:07

#	Modifying user name:	WinNT
#	Modification time:	15. 06. 2019 19:07

#	Program:	/corina/corina34_cracker 3.40 0067  02.08.2006

@<TRIPOS>MOLECULE
ASD01190078
  38   41    0    0    0
SMALL
NO_CHARGES


@<TRIPOS>ATOM
   1 C1            -0.0176     1.4478     0.0100 C.3     
   2 O2             0.0021    -0.0041     0.0020 O.3     
   3 C3             0.6007    -0.6020    -1.0468 C.2     
   4 O4             1.0928     0.0714    -1.9304 O.2     
   5 C5             0.6586    -2.0737    -1.1221 C.ar    
   6 C6             0.0875    -2.8493    -0.1083 C.ar    
   7 C7             0.1420    -4.2172    -0.1794 C.ar    
   8 C8             0.7678    -4.8361    -1.2632 C.ar    
   9 C9             1.3388    -4.0629    -2.2757 C.ar    
  10 C10            1.2797    -2.6948    -2.2102 C.ar    
  11 C11            0.8265    -6.3142    -1.3385 C.2     
  12 C12            1.4059    -7.0400    -2.3281 C.2     
  13 N13            1.2363    -8.3795    -2.0101 N.pl3   
  14 C14            1.5653    -9.6116    -2.5581 C.2     
  15 C15            2.3232    -9.7274    -3.8771 C.3     
  16 C16            2.9216   -11.1306    -3.9827 C.3     
  17 C17            1.8279   -12.1744    -3.7368 C.3     
  18 C18            1.4235   -12.1241    -2.2582 C.3     
  19 C19            1.1851   -10.6884    -1.8748 C.2     
  20 S20            0.3462   -10.1112    -0.4315 S.3     
  21 C21            0.5577    -8.4006    -0.8334 C.2     
  22 N22            0.3185    -7.1748    -0.4328 N.2     
  23 H23            1.0050     1.8251     0.0023 H       
  24 H24           -0.5448     1.8089    -0.8731 H       
  25 H25           -0.5278     1.7993     0.9068 H       
  26 H26           -0.3960    -2.3708     0.7305 H       
  27 H27           -0.2990    -4.8164     0.6035 H       
  28 H28            1.8229    -4.5428    -3.1134 H       
  29 H29            1.7169    -2.0969    -2.9962 H       
  30 H30            1.9061    -6.6476    -3.2012 H       
  31 H31            1.6378    -9.5594    -4.7079 H       
  32 H32            3.1223    -8.9867    -3.9053 H       
  33 H33            3.3414   -11.2723    -4.9785 H       
  34 H34            3.7085   -11.2467    -3.2374 H       
  35 H35            0.9623   -11.9508    -4.3604 H       
  36 H36            2.2087   -13.1668    -3.9781 H       
  37 H37            0.5097   -12.6993    -2.1090 H       
  38 H38            2.2241   -12.5385    -1.6455 H       
@<TRIPOS>BOND
   1    1    2 1
   2    1   23 1
   3    1   24 1
   4    1   25 1
   5    2    3 1
   6    3    4 2
   7    3    5 1
   8    5   10 ar
   9    5    6 ar
  10    6    7 ar
  11    6   26 1
  12    7    8 ar
  13    7   27 1
  14    8    9 ar
  15    8   11 1
  16    9   10 ar
  17    9   28 1
  18   10   29 1
  19   11   22 1
  20   11   12 2
  21   12   13 1
  22   12   30 1
  23   13   21 1
  24   13   14 1
  25   14   19 2
  26   14   15 1
  27   15   16 1
  28   15   31 1
  29   15   32 1
  30   16   17 1
  31   16   33 1
  32   16   34 1
  33   17   18 1
  34   17   35 1
  35   17   36 1
  36   18   19 1
  37   18   37 1
  38   18   38 1
  39   19   20 1
  40   20   21 1
  41   21   22 2

#	End of record

