#	Name: ASD03730936
#	Creating user name:	WinNT
#	Creation time:	15. 06. 2019 20:44

#	Modifying user name:	WinNT
#	Modification time:	15. 06. 2019 20:44

#	Program:	/corina/corina34_cracker 3.40 0067  02.08.2006

@<TRIPOS>MOLECULE
ASD03730936
  70   76    0    0    0
SMALL
NO_CHARGES


@<TRIPOS>ATOM
   1 C1            -0.0180     1.4742     0.0101 C.2     
   2 C2             0.0021    -0.0041     0.0020 C.ar    
   3 C3             1.2186    -0.6886    -0.0133 C.ar    
   4 C4             1.2303    -2.0679    -0.0203 C.ar    
   5 C5             0.0396    -2.7730    -0.0127 C.ar    
   6 C6            -1.1694    -2.1008     0.0024 C.ar    
   7 C7            -1.1950    -0.7213     0.0154 C.ar    
   8 O8             1.0263     2.0963     0.0035 O.2     
   9 N9            -1.1942     2.1322     0.0193 N.am    
  10 C10           -1.2141     3.5970     0.0274 C.3     
  11 C11           -2.6633     4.0874     0.0369 C.3     
  12 N12           -2.6833     5.5562     0.0450 N.3     
  13 C13           -4.0415     6.0653    -0.1839 C.3     
  14 C14           -4.0507     7.5874    -0.0247 C.3     
  15 C15           -3.0770     8.2069    -1.0310 C.3     
  16 C16           -1.6797     7.6238    -0.8026 C.3     
  17 C17           -1.7392     6.1007    -0.9392 C.3     
  18 C18            2.5426    -2.8085    -0.0368 C.3     
  19 O19           -0.8950    -3.3222     6.2568 O.3     
  20 C20           -0.9357    -3.5767     7.6734 C.3     
  21 O21           -0.0305    -4.6825     7.8486 O.3     
  22 C22            0.8672    -4.5864     6.8240 C.ar    
  23 C23            0.3345    -3.7506     5.8451 C.ar    
  24 C24            2.1164    -5.1528     6.6449 C.ar    
  25 C25            2.8483    -4.8954     5.4896 C.ar    
  26 C26            2.3022    -4.0656     4.5151 C.ar    
  27 C27            1.0594    -3.4944     4.6934 C.ar    
  28 O28            4.0884    -5.3328     5.1276 O.3     
  29 C29            3.3036    -4.0052     3.3929 C.3     
  30 C30            4.2536    -5.1693     3.7058 C.3     
  31 N31            2.9813    -3.0555     1.3390 N.am    
  32 C32            2.6574    -4.1565     2.0459 C.2     
  33 C33            4.0258    -2.6916     3.3422 C.ar    
  34 C34            4.7978    -1.9949     4.2449 C.ar    
  35 C35            5.3433    -0.7733     3.8926 C.ar    
  36 C36            5.1110    -0.2535     2.6322 C.ar    
  37 C37            4.3376    -0.9471     1.7248 C.ar    
  38 C38            3.7848    -2.1777     2.0707 C.ar    
  39 O39            1.9775    -5.0871     1.6680 O.2     
  40 H40            2.1485    -0.1394    -0.0199 H       
  41 H41            0.0543    -3.8529    -0.0190 H       
  42 H42           -2.0951    -2.6570     0.0083 H       
  43 H43           -2.1395    -0.1977     0.0314 H       
  44 H44           -2.0276     1.6358     0.0206 H       
  45 H45           -0.7010     3.9625     0.9169 H       
  46 H46           -0.7094     3.9721    -0.8630 H       
  47 H47           -3.1764     3.7219    -0.8527 H       
  48 H48           -3.1680     3.7122     0.9273 H       
  49 H49           -4.3623     5.8037    -1.1922 H       
  50 H50           -4.7231     5.6202     0.5409 H       
  51 H51           -5.0557     7.9666    -0.2099 H       
  52 H52           -3.7433     7.8492     0.9878 H       
  53 H53           -3.4061     7.9778    -2.0446 H       
  54 H54           -3.0480     9.2876    -0.8919 H       
  55 H55           -0.9907     8.0291    -1.5436 H       
  56 H56           -1.3349     7.8863     0.1976 H       
  57 H57           -0.7487     5.6813    -0.7631 H       
  58 H58           -2.0708     5.8389    -1.9440 H       
  59 H59            2.4166    -3.7596    -0.5542 H       
  60 H60            3.2914    -2.2095    -0.5550 H       
  61 H61           -0.5884    -2.7057     8.2291 H       
  62 H62           -1.9432    -3.8536     7.9839 H       
  63 H63            2.5266    -5.7991     7.4068 H       
  64 H64            0.6506    -2.8459     3.9327 H       
  65 H65            5.2829    -4.9048     3.4636 H       
  66 H66            3.9491    -6.0710     3.1745 H       
  67 H67            4.9778    -2.4026     5.2287 H       
  68 H68            5.9496    -0.2270     4.6001 H       
  69 H69            5.5367     0.7002     2.3573 H       
  70 H70            4.1602    -0.5344     0.7427 H       
@<TRIPOS>BOND
   1    1    2 1
   2    1    8 2
   3    1    9 am
   4    2    3 ar
   5    2    7 ar
   6    3    4 ar
   7    3   40 1
   8    4    5 ar
   9    4   18 1
  10    5    6 ar
  11    5   41 1
  12    6    7 ar
  13    6   42 1
  14    7   43 1
  15    9   10 1
  16    9   44 1
  17   10   11 1
  18   10   45 1
  19   10   46 1
  20   11   12 1
  21   11   47 1
  22   11   48 1
  23   12   13 1
  24   12   17 1
  25   13   14 1
  26   13   49 1
  27   13   50 1
  28   14   15 1
  29   14   51 1
  30   14   52 1
  31   15   16 1
  32   15   53 1
  33   15   54 1
  34   16   17 1
  35   16   55 1
  36   16   56 1
  37   17   57 1
  38   17   58 1
  39   18   31 1
  40   18   59 1
  41   18   60 1
  42   19   20 1
  43   19   23 1
  44   20   21 1
  45   20   61 1
  46   20   62 1
  47   21   22 1
  48   22   23 ar
  49   22   24 ar
  50   23   27 ar
  51   24   25 ar
  52   24   63 1
  53   25   26 ar
  54   25   28 1
  55   26   27 ar
  56   26   29 1
  57   27   64 1
  58   28   30 1
  59   29   30 1
  60   29   32 1
  61   29   33 1
  62   30   65 1
  63   30   66 1
  64   31   32 am
  65   31   38 1
  66   32   39 2
  67   33   34 ar
  68   33   38 ar
  69   34   35 ar
  70   34   67 1
  71   35   36 ar
  72   35   68 1
  73   36   37 ar
  74   36   69 1
  75   37   38 ar
  76   37   70 1

#	End of record

