#	Name: ASD01881740
#	Creating user name:	WinNT
#	Creation time:	15. 06. 2019 19:43

#	Modifying user name:	WinNT
#	Modification time:	15. 06. 2019 19:43

#	Program:	/corina/corina34_cracker 3.40 0067  02.08.2006

@<TRIPOS>MOLECULE
ASD01881740
  39   41    0    0    0
SMALL
NO_CHARGES


@<TRIPOS>ATOM
   1 C1            -0.0184     1.5028     0.0103 C.2     
   2 C2             0.0021    -0.0041     0.0020 C.3     
   3 O3             1.0236     2.1234     0.0037 O.2     
   4 N4            -1.1946     2.1607     0.0195 N.am    
   5 C5            -1.2145     3.6256     0.0275 C.3     
   6 O6            -2.4111     1.4361     0.0213 O.3     
   7 C7            -2.9043     1.1316     1.3275 C.3     
   8 O8             1.3556    -0.4620    -0.0134 O.3     
   9 N9             2.4198    -5.8351    -0.0519 N.pl3   
  10 N10            3.8173    -5.7157    -0.0652 N.2     
  11 N11            4.1407    -4.4707    -0.0622 N.2     
  12 C12            3.0352    -3.6995    -0.0472 C.ar    
  13 C13            1.9186    -4.5534    -0.0404 C.ar    
  14 C14            2.8360    -2.3121    -0.0374 C.ar    
  15 C15            1.5521    -1.8076    -0.0225 C.ar    
  16 C16            0.4556    -2.6664    -0.0161 C.ar    
  17 C17            0.6344    -4.0210    -0.0241 C.ar    
  18 C18            1.6459    -7.0791    -0.0558 C.3     
  19 C19            1.3910    -7.5257     1.3851 C.3     
  20 C20            0.4951    -8.7476     1.5980 C.3     
  21 C21            2.0033    -8.8549     1.8316 C.3     
  22 Br22           4.3187    -1.1385    -0.0457 Br      
  23 H23           -0.4983    -0.3791     0.8948 H       
  24 H24           -0.5153    -0.3696    -0.8850 H       
  25 H25           -1.2243     3.9944    -0.9981 H       
  26 H26           -2.1068     3.9740     0.5475 H       
  27 H27           -0.3271     3.9982     0.5392 H       
  28 H28           -3.0808     2.0579     1.8743 H       
  29 H29           -3.8383     0.5760     1.2428 H       
  30 H30           -2.1700     0.5286     1.8616 H       
  31 H31           -0.5443    -2.2582    -0.0041 H       
  32 H32           -0.2224    -4.6786    -0.0189 H       
  33 H33            0.6932    -6.9127    -0.5586 H       
  34 H34            2.2045    -7.8527    -0.5826 H       
  35 H35            1.3335    -6.7249     2.1223 H       
  36 H36           -0.1516    -8.7508     2.4755 H       
  37 H37            0.0873    -9.2332     0.7115 H       
  38 H38            2.5878    -9.4111     1.0987 H       
  39 H39            2.3489    -8.9287     2.8627 H       
@<TRIPOS>BOND
   1    1    2 1
   2    1    3 2
   3    1    4 am
   4    2    8 1
   5    2   23 1
   6    2   24 1
   7    4    5 1
   8    4    6 1
   9    5   25 1
  10    5   26 1
  11    5   27 1
  12    6    7 1
  13    7   28 1
  14    7   29 1
  15    7   30 1
  16    8   15 1
  17    9   10 1
  18    9   13 1
  19    9   18 1
  20   10   11 2
  21   11   12 1
  22   12   13 ar
  23   12   14 ar
  24   13   17 ar
  25   14   15 ar
  26   14   22 1
  27   15   16 ar
  28   16   17 ar
  29   16   31 1
  30   17   32 1
  31   18   19 1
  32   18   33 1
  33   18   34 1
  34   19   20 1
  35   19   21 1
  36   19   35 1
  37   20   21 1
  38   20   36 1
  39   20   37 1
  40   21   38 1
  41   21   39 1

#	End of record

