#	Name: ASD01884311
#	Creating user name:	WinNT
#	Creation time:	15. 06. 2019 19:47

#	Modifying user name:	WinNT
#	Modification time:	15. 06. 2019 19:47

#	Program:	/corina/corina34_cracker 3.40 0067  02.08.2006

@<TRIPOS>MOLECULE
ASD01884311
  36   37    0    0    0
SMALL
NO_CHARGES


@<TRIPOS>ATOM
   1 C1            -3.7039    -4.7954    -0.6313 C.ar    
   2 C2            -3.5042    -3.9176    -1.7009 C.ar    
   3 C3            -3.4572    -2.5603    -1.4754 C.ar    
   4 C4            -3.6076    -2.0623    -0.1859 C.ar    
   5 C5            -3.8064    -2.9319     0.8806 C.ar    
   6 C6            -3.8604    -4.2902     0.6628 C.ar    
   7 O7            -3.5597    -0.7240     0.0322 O.3     
   8 C8            -4.7199    -0.0208    -0.0575 C.ar    
   9 C9            -5.9207    -0.6862    -0.2567 C.ar    
  10 C10           -4.7035     1.3618     0.0558 C.ar    
  11 C11           -5.8821     2.0760    -0.0354 C.ar    
  12 C12           -7.0821     1.4111    -0.2399 C.ar    
  13 C13           -7.0992     0.0283    -0.3479 C.ar    
  14 O14           -8.2425     2.1143    -0.3288 O.3     
  15 C15           -3.7555    -6.2500    -0.8683 C.2     
  16 O16           -3.9481    -7.0944     0.1639 O.3     
  17 C17           -3.9877    -8.5130    -0.1434 C.3     
  18 O18           -3.6242    -6.6870    -1.9945 O.2     
  19 S19           -8.5981     2.5456    -1.7444 S.o2    
  20 O20           -9.6679     3.4648    -1.5724 O.2     
  21 O21           -7.3601     2.9591    -2.3062 O.2     
  22 C22           -9.1855     1.0279    -2.5459 C.3     
  23 F23          -10.2980     0.5361    -1.8547 F       
  24 F24           -9.5446     1.3081    -3.8686 F       
  25 F25           -8.1668     0.0691    -2.5323 F       
  26 H26           -3.3866    -4.3037    -2.7026 H       
  27 H27           -3.3029    -1.8815    -2.3011 H       
  28 H28           -3.9228    -2.5411     1.8806 H       
  29 H29           -4.0149    -4.9650     1.4918 H       
  30 H30           -5.9341    -1.7628    -0.3408 H       
  31 H31           -3.7693     1.8795     0.2157 H       
  32 H32           -5.8694     3.1524     0.0528 H       
  33 H33           -8.0336    -0.4894    -0.5075 H       
  34 H34           -4.8024    -8.7112    -0.8399 H       
  35 H35           -3.0423    -8.8134    -0.5952 H       
  36 H36           -4.1482    -9.0792     0.7740 H       
@<TRIPOS>BOND
   1    1    2 ar
   2    1   15 1
   3    1    6 ar
   4    2    3 ar
   5    2   26 1
   6    3    4 ar
   7    3   27 1
   8    4    5 ar
   9    4    7 1
  10    5    6 ar
  11    5   28 1
  12    6   29 1
  13    7    8 1
  14    8    9 ar
  15    8   10 ar
  16    9   13 ar
  17    9   30 1
  18   10   11 ar
  19   10   31 1
  20   11   12 ar
  21   11   32 1
  22   12   13 ar
  23   12   14 1
  24   13   33 1
  25   14   19 1
  26   15   16 1
  27   15   18 2
  28   16   17 1
  29   17   34 1
  30   17   35 1
  31   17   36 1
  32   19   20 2
  33   19   21 2
  34   19   22 1
  35   22   23 1
  36   22   24 1
  37   22   25 1

#	End of record

