#	Name: ASD01885597
#	Creating user name:	WinNT
#	Creation time:	15. 06. 2019 19:49

#	Modifying user name:	WinNT
#	Modification time:	15. 06. 2019 19:49

#	Program:	/corina/corina34_cracker 3.40 0067  02.08.2006

@<TRIPOS>MOLECULE
ASD01885597
  52   56    0    0    0
SMALL
NO_CHARGES


@<TRIPOS>ATOM
   1 C1            -0.0168     1.3910     0.0097 C.ar    
   2 C2             0.0021    -0.0041     0.0020 C.ar    
   3 C3            -1.1826    -0.7081     0.0100 C.ar    
   4 C4            -2.3961    -0.0293     0.0257 C.ar    
   5 C5            -2.4177     1.3610     0.0330 C.ar    
   6 C6            -1.2357     2.0697     0.0308 C.ar    
   7 C7             1.2550     2.1503     0.0016 C.2     
   8 N8            -3.5941    -0.7445     0.0338 N.pl3   
   9 C9             2.1445     2.0674     1.1006 C.2     
  10 C10            3.2997     2.7581     1.0914 C.2     
  11 N11            3.6349     3.5475     0.0287 N.pl3   
  12 C12            2.8006     3.6555    -1.0575 C.2     
  13 C13            1.5886     2.9430    -1.0820 C.2     
  14 C14            4.7086     4.3382    -0.2476 C.2     
  15 N15            4.5109     4.8742    -1.4243 N.2     
  16 N16            3.3880     4.4788    -1.9124 N.2     
  17 C17            5.9061     4.5565     0.6409 C.3     
  18 C18            6.9761     3.5108     0.3208 C.3     
  19 Cl19           0.5211     3.0663    -2.4454 Cl      
  20 C20           -4.8733    -0.0306     0.0504 C.3     
  21 C21            8.3221     3.6350     1.0376 C.3     
  22 C22            7.3487     2.5202     1.4257 C.3     
  23 C23           -6.0043    -1.0265     0.0563 C.ar    
  24 C24           -6.5160    -1.4940     1.2502 C.ar    
  25 N25           -7.5062    -2.3661     1.2664 N.ar    
  26 C26           -8.0452    -2.8249     0.1492 C.ar    
  27 C27           -7.5802    -2.3980    -1.0883 C.ar    
  28 C28           -6.5465    -1.4794    -1.1388 C.ar    
  29 O29           -9.0616    -3.7214     0.2124 O.3     
  30 C30           -9.4941    -4.1212     1.5144 C.3     
  31 H31            0.9443    -0.5317    -0.0105 H       
  32 H32           -1.1685    -1.7880     0.0037 H       
  33 H33           -3.3615     1.8859     0.0448 H       
  34 H34           -1.2530     3.1495     0.0364 H       
  35 H35           -3.5800    -1.7144     0.0285 H       
  36 H36            1.8948     1.4480     1.9494 H       
  37 H37            3.9699     2.6873     1.9353 H       
  38 H38            6.3098     5.5541     0.4679 H       
  39 H39            5.6062     4.4619     1.6845 H       
  40 H40            6.9846     3.1461    -0.7064 H       
  41 H41           -4.9313     0.5903     0.9443 H       
  42 H42           -4.9490     0.5999    -0.8355 H       
  43 H43            9.2161     3.3517     0.4821 H       
  44 H44            8.4453     4.4618     1.7372 H       
  45 H45            6.8315     2.6136     2.3807 H       
  46 H46            7.6023     1.5035     1.1256 H       
  47 H47           -6.1005    -1.1417     2.1827 H       
  48 H48           -8.0224    -2.7749    -1.9987 H       
  49 H49           -6.1647    -1.1292    -2.0864 H       
  50 H50           -8.6630    -4.5827     2.0475 H       
  51 H51           -9.8396    -3.2473     2.0667 H       
  52 H52          -10.3097    -4.8384     1.4220 H       
@<TRIPOS>BOND
   1    1    2 ar
   2    1    7 1
   3    1    6 ar
   4    2    3 ar
   5    2   31 1
   6    3    4 ar
   7    3   32 1
   8    4    5 ar
   9    4    8 1
  10    5    6 ar
  11    5   33 1
  12    6   34 1
  13    7    9 1
  14    7   13 2
  15    8   20 1
  16    8   35 1
  17    9   10 2
  18    9   36 1
  19   10   11 1
  20   10   37 1
  21   11   12 1
  22   11   14 1
  23   12   13 1
  24   12   16 2
  25   13   19 1
  26   14   15 2
  27   14   17 1
  28   15   16 1
  29   17   18 1
  30   17   38 1
  31   17   39 1
  32   18   21 1
  33   18   22 1
  34   18   40 1
  35   20   23 1
  36   20   41 1
  37   20   42 1
  38   21   22 1
  39   21   43 1
  40   21   44 1
  41   22   45 1
  42   22   46 1
  43   23   24 ar
  44   23   28 ar
  45   24   25 ar
  46   24   47 1
  47   25   26 ar
  48   26   27 ar
  49   26   29 1
  50   27   28 ar
  51   27   48 1
  52   28   49 1
  53   29   30 1
  54   30   50 1
  55   30   51 1
  56   30   52 1

#	End of record

