#	Name: ASD03080170
#	Creating user name:	WinNT
#	Creation time:	15. 06. 2019 20:26

#	Modifying user name:	WinNT
#	Modification time:	15. 06. 2019 20:26

#	Program:	/corina/corina34_cracker 3.40 0067  02.08.2006

@<TRIPOS>MOLECULE
ASD03080170
  29   30    0    0    0
SMALL
NO_CHARGES


@<TRIPOS>ATOM
   1 C1            -0.0158     1.3142     0.0093 C.ar    
   2 N2             0.0021    -0.0041     0.0020 N.ar    
   3 C3             1.1445    -0.6686    -0.0124 C.ar    
   4 C4             2.3450     0.0496    -0.0200 C.ar    
   5 C5             2.2777     1.4470    -0.0119 C.ar    
   6 N6             1.0915     2.0298     0.0025 N.ar    
   7 C7             3.6480    -0.6483    -0.0357 C.2     
   8 C8             4.7743     0.0507    -0.0427 C.2     
   9 N9             8.2082    -0.9493     1.1594 N.3     
  10 C10            6.9053    -0.2726     1.1852 C.3     
  11 C11            6.1027    -0.6608    -0.0587 C.3     
  12 C12            6.8844    -0.2560    -1.3115 C.3     
  13 C13            8.2560    -0.9362    -1.2896 C.3     
  14 C14            8.9962    -0.5399    -0.0101 C.3     
  15 H15           -0.9678     1.8241     0.0165 H       
  16 H16            1.1510    -1.7486    -0.0179 H       
  17 H17            3.1803     2.0399    -0.0169 H       
  18 H18            3.6824    -1.7278    -0.0415 H       
  19 H19            4.7400     1.1301    -0.0369 H       
  20 H20            8.7181    -0.7848     2.0145 H       
  21 H21            6.3579    -0.5724     2.0788 H       
  22 H22            7.0568     0.8068     1.1973 H       
  23 H23            5.9389    -1.7384    -0.0644 H       
  24 H24            6.3364    -0.5696    -2.2000 H       
  25 H25            7.0146     0.8261    -1.3257 H       
  26 H26            8.1261    -2.0181    -1.3147 H       
  27 H27            8.8338    -0.6182    -2.1576 H       
  28 H28            9.1380     0.5407     0.0076 H       
  29 H29            9.9675    -1.0339     0.0154 H       
@<TRIPOS>BOND
   1    1    2 ar
   2    1    6 ar
   3    1   15 1
   4    2    3 ar
   5    3    4 ar
   6    3   16 1
   7    4    5 ar
   8    4    7 1
   9    5    6 ar
  10    5   17 1
  11    7    8 2
  12    7   18 1
  13    8   11 1
  14    8   19 1
  15    9   10 1
  16    9   14 1
  17    9   20 1
  18   10   11 1
  19   10   21 1
  20   10   22 1
  21   11   12 1
  22   11   23 1
  23   12   13 1
  24   12   24 1
  25   12   25 1
  26   13   14 1
  27   13   26 1
  28   13   27 1
  29   14   28 1
  30   14   29 1

#	End of record

