#	Name: ASD03930172
#	Creating user name:	WinNT
#	Creation time:	15. 06. 2019 20:47

#	Modifying user name:	WinNT
#	Modification time:	15. 06. 2019 20:47

#	Program:	/corina/corina34_cracker 3.40 0067  02.08.2006

@<TRIPOS>MOLECULE
ASD03930172
  18   18    0    0    0
SMALL
NO_CHARGES


@<TRIPOS>ATOM
   1 C1            -0.0168     1.3906     0.0097 C.ar    
   2 C2             0.0021    -0.0041     0.0020 C.ar    
   3 C3             1.2076    -0.6748    -0.0131 C.ar    
   4 C4             2.3967     0.0335    -0.0202 C.ar    
   5 C5             2.3841     1.4175    -0.0126 C.ar    
   6 C6             1.1847     2.0991     0.0020 C.ar    
   7 C7            -1.3072     2.1162     0.0198 C.2     
   8 N8            -2.4261     1.4531     0.0215 N.2     
   9 N9            -1.3229     3.5008     0.0274 N.pl3   
  10 I10            4.2227    -0.9933    -0.0417 I       
  11 O11           -3.6604     2.1471     0.0311 O.3     
  12 H12           -0.9251    -0.5578     0.0083 H       
  13 H13            1.2235    -1.7547    -0.0190 H       
  14 H14            3.3151     1.9650    -0.0182 H       
  15 H15            1.1761     3.1790     0.0075 H       
  16 H16           -0.4884     3.9953     0.0261 H       
  17 H17           -2.1683     3.9762     0.0340 H       
  18 H18           -4.4362     1.5698     0.0316 H       
@<TRIPOS>BOND
   1    1    2 ar
   2    1    6 ar
   3    1    7 1
   4    2    3 ar
   5    2   12 1
   6    3    4 ar
   7    3   13 1
   8    4    5 ar
   9    4   10 1
  10    5    6 ar
  11    5   14 1
  12    6   15 1
  13    7    8 2
  14    7    9 1
  15    8   11 1
  16    9   16 1
  17    9   17 1
  18   11   18 1

#	End of record

