#	Name: ASD03091333
#	Creating user name:	WinNT
#	Creation time:	15. 06. 2019 20:30

#	Modifying user name:	WinNT
#	Modification time:	15. 06. 2019 20:30

#	Program:	/corina/corina34_cracker 3.40 0067  02.08.2006

@<TRIPOS>MOLECULE
ASD03091333
  48   52    0    0    0
SMALL
NO_CHARGES


@<TRIPOS>ATOM
   1 N1            -0.1850     1.3941     0.0804 N.am    
   2 C2            -0.2777     0.1102     0.5459 C.2     
   3 N3            -1.4123    -0.4482     0.8786 N.2     
   4 C4            -2.5830     0.2144     0.7835 C.ar    
   5 C5            -2.5837     1.5471     0.3120 C.ar    
   6 C6            -1.2956     2.1563    -0.0516 C.2     
   7 C7             0.9629    -0.6824     0.6781 C.ar    
   8 O8            -1.2316     3.3000    -0.4636 O.2     
   9 C9            -3.7934    -0.3882     1.1404 C.ar    
  10 C10           -4.9605     0.3114     1.0314 C.ar    
  11 C11           -4.9666     1.6267     0.5666 C.ar    
  12 C12           -3.7828     2.2481     0.2062 C.ar    
  13 N13           -6.1748     2.3213     0.4638 N.3     
  14 C14            1.9455    -0.6162    -0.3109 C.ar    
  15 C15            3.1020    -1.3577    -0.1824 C.ar    
  16 C16            3.2898    -2.1667     0.9235 C.ar    
  17 C17            2.3189    -2.2379     1.9100 C.ar    
  18 C18            1.1591    -1.4957     1.7954 C.ar    
  19 C19            1.1247     1.9484    -0.2713 C.3     
  20 C20           -6.1462     3.2718    -0.6740 C.3     
  21 C21           -7.3487     2.8590    -1.5781 C.3     
  22 N22           -6.9194     1.5602    -2.1863 N.3     
  23 C23           -6.8522     0.5876    -1.0691 C.3     
  24 C24           -7.3105     1.3849     0.1912 C.3     
  25 C25           -5.6141     1.6942    -2.8468 C.3     
  26 C26           -8.3483     2.3577    -0.4750 C.3     
  27 F27            2.5090    -3.0302     2.9876 F       
  28 H28           -3.8048    -1.4059     1.5016 H       
  29 H29           -5.8919    -0.1600     1.3084 H       
  30 H30           -3.7890     3.2666    -0.1531 H       
  31 H31            1.8006     0.0143    -1.1757 H       
  32 H32            3.8624    -1.3066    -0.9476 H       
  33 H33            4.1966    -2.7455     1.0187 H       
  34 H34            0.4026    -1.5513     2.5641 H       
  35 H35            1.3697     1.6781    -1.2984 H       
  36 H36            1.0966     3.0341    -0.1781 H       
  37 H37            1.8821     1.5455     0.4010 H       
  38 H38           -6.2743     4.2936    -0.3169 H       
  39 H39           -5.2095     3.1766    -1.2232 H       
  40 H40           -7.7124     3.6170    -2.2718 H       
  41 H41           -7.5267    -0.2485    -1.2540 H       
  42 H42           -5.8309     0.2295    -0.9398 H       
  43 H43           -7.6569     0.7912     1.0371 H       
  44 H44           -4.8374     1.8254    -2.0934 H       
  45 H45           -5.4076     0.7962    -3.4290 H       
  46 H46           -5.6288     2.5605    -3.5082 H       
  47 H47           -8.6579     3.1574     0.1979 H       
  48 H48           -9.2010     1.8271    -0.8986 H       
@<TRIPOS>BOND
   1    1    2 1
   2    1   19 1
   3    1    6 am
   4    2    3 2
   5    2    7 1
   6    3    4 1
   7    4    5 ar
   8    4    9 ar
   9    5    6 1
  10    5   12 ar
  11    6    8 2
  12    7   14 ar
  13    7   18 ar
  14    9   10 ar
  15    9   28 1
  16   10   11 ar
  17   10   29 1
  18   11   12 ar
  19   11   13 1
  20   12   30 1
  21   13   20 1
  22   13   24 1
  23   14   15 ar
  24   14   31 1
  25   15   16 ar
  26   15   32 1
  27   16   17 ar
  28   16   33 1
  29   17   18 ar
  30   17   27 1
  31   18   34 1
  32   19   35 1
  33   19   36 1
  34   19   37 1
  35   20   21 1
  36   20   38 1
  37   20   39 1
  38   21   22 1
  39   21   26 1
  40   21   40 1
  41   22   23 1
  42   22   25 1
  43   23   24 1
  44   23   41 1
  45   23   42 1
  46   24   26 1
  47   24   43 1
  48   25   44 1
  49   25   45 1
  50   25   46 1
  51   26   47 1
  52   26   48 1

#	End of record

