#	Name: ASD08070555
#	Creating user name:	WinNT
#	Creation time:	15. 06. 2019 21:15

#	Modifying user name:	WinNT
#	Modification time:	15. 06. 2019 21:15

#	Program:	/corina/corina34_cracker 3.40 0067  02.08.2006

@<TRIPOS>MOLECULE
ASD08070555
  44   45    0    0    0
SMALL
NO_CHARGES


@<TRIPOS>ATOM
   1 N1             1.2742    -0.4544     0.0062 N.pl3   
   2 C2            -0.0438    -0.0406     0.0184 C.2     
   3 C3            -0.0842     1.3172     0.0429 C.2     
   4 C4             1.2510     1.7883     0.0465 C.ar    
   5 C5             1.8197     3.0685     0.0673 C.ar    
   6 C6             3.1769     3.2084     0.0649 C.ar    
   7 C7             4.0033     2.0917     0.0420 C.ar    
   8 C8             3.4686     0.8233     0.0212 C.ar    
   9 C9             2.0866     0.6546     0.0231 C.ar    
  10 C10           -1.2161    -0.9284     0.0067 C.2     
  11 O11           -1.0679    -2.1303    -0.1087 O.2     
  12 N12           -2.4549    -0.4104     0.1239 N.am    
  13 C13            1.7311    -1.8461    -0.0149 C.3     
  14 C14           -3.0572    -3.4625     3.1400 C.3     
  15 C15           -2.7641    -2.8333     1.7765 C.3     
  16 C16           -3.9199    -1.9122     1.3808 C.3     
  17 C17           -3.6268    -1.2830     0.0173 C.3     
  18 C18           -4.8352    -0.4610    -0.4354 C.3     
  19 C19           -4.5924     0.0655    -1.8513 C.3     
  20 C20           -5.8008     0.8875    -2.3040 C.3     
  21 H21           -0.9750     1.9277     0.0570 H       
  22 H22            1.1854     3.9425     0.0849 H       
  23 H23            3.6128     4.1964     0.0807 H       
  24 H24            5.0756     2.2201     0.0400 H       
  25 H25            4.1193    -0.0385     0.0030 H       
  26 H26           -2.5704     0.5401     0.2789 H       
  27 H27            1.7529    -2.2058    -1.0436 H       
  28 H28            2.7321    -1.9065     0.4124 H       
  29 H29            1.0483    -2.4616     0.5708 H       
  30 H30           -3.1672    -2.6763     3.8868 H       
  31 H31           -3.9794    -4.0408     3.0826 H       
  32 H32           -2.2338    -4.1187     3.4218 H       
  33 H33           -1.8419    -2.2550     1.8338 H       
  34 H34           -2.6540    -3.6196     1.0296 H       
  35 H35           -4.8421    -2.4905     1.3234 H       
  36 H36           -4.0299    -1.1260     2.1277 H       
  37 H37           -3.4291    -2.0696    -0.7109 H       
  38 H38           -5.7254    -1.0900    -0.4293 H       
  39 H39           -4.9789     0.3786     0.2447 H       
  40 H40           -3.7022     0.6944    -1.8574 H       
  41 H41           -4.4487    -0.7741    -2.5314 H       
  42 H42           -5.6278     1.2625    -3.3127 H       
  43 H43           -6.6910     0.2585    -2.2979 H       
  44 H44           -5.9445     1.7271    -1.6239 H       
@<TRIPOS>BOND
   1    1    2 1
   2    1    9 1
   3    1   13 1
   4    2    3 2
   5    2   10 1
   6    3    4 1
   7    3   21 1
   8    4    5 ar
   9    4    9 ar
  10    5    6 ar
  11    5   22 1
  12    6    7 ar
  13    6   23 1
  14    7    8 ar
  15    7   24 1
  16    8    9 ar
  17    8   25 1
  18   10   11 2
  19   10   12 am
  20   12   17 1
  21   12   26 1
  22   13   27 1
  23   13   28 1
  24   13   29 1
  25   14   15 1
  26   14   30 1
  27   14   31 1
  28   14   32 1
  29   15   16 1
  30   15   33 1
  31   15   34 1
  32   16   17 1
  33   16   35 1
  34   16   36 1
  35   17   18 1
  36   17   37 1
  37   18   19 1
  38   18   38 1
  39   18   39 1
  40   19   20 1
  41   19   40 1
  42   19   41 1
  43   20   42 1
  44   20   43 1
  45   20   44 1

#	End of record

