#	Name: ASD01814226
#	Creating user name:	WinNT
#	Creation time:	15. 06. 2019 19:31

#	Modifying user name:	WinNT
#	Modification time:	15. 06. 2019 19:31

#	Program:	/corina/corina34_cracker 3.40 0067  02.08.2006

@<TRIPOS>MOLECULE
ASD01814226
  41   44    0    0    0
SMALL
NO_CHARGES


@<TRIPOS>ATOM
   1 C1            -0.2751     1.1077     0.2310 C.ar    
   2 C2            -0.1485    -0.2726     0.2187 C.ar    
   3 C3             1.0925    -0.8662     0.1294 C.ar    
   4 C4             2.2374    -0.0789     0.0502 C.ar    
   5 C5             2.1095     1.3209     0.0626 C.ar    
   6 C6             0.8461     1.9100     0.1535 C.ar    
   7 N7             3.4832    -0.6621    -0.0389 N.pl3   
   8 C8             4.6142     0.0510    -0.1163 C.2     
   9 C9             4.6151     1.4310    -0.1131 C.2     
  10 C10            3.3296     2.1428    -0.0218 C.2     
  11 C11            5.8781     2.1775    -0.1992 C.2     
  12 O12            5.8659     3.5255    -0.1951 O.3     
  13 O13            6.9338     1.5795    -0.2742 O.2     
  14 O14            3.2769     3.3603    -0.0155 O.2     
  15 C15            3.5739    -2.1243    -0.0488 C.3     
  16 C16            3.4311    -2.6269    -1.4623 C.2     
  17 C17            2.2835    -3.0449    -2.0193 C.2     
  18 C18            2.5949    -3.4425    -3.3944 C.ar    
  19 C19            3.9739    -3.2199    -3.5605 C.ar    
  20 N20            4.4509    -2.7192    -2.3699 N.pl3   
  21 C21            1.8385    -3.9491    -4.4531 C.ar    
  22 C22            2.4428    -4.2264    -5.6467 C.ar    
  23 C23            3.8034    -4.0085    -5.8157 C.ar    
  24 C24            4.5685    -3.5097    -4.7845 C.ar    
  25 F25            0.7221     3.2553     0.1655 F       
  26 C26            5.8445    -2.3492    -2.1105 C.3     
  27 H27           -1.2548     1.5574     0.2969 H       
  28 H28           -1.0323    -0.8902     0.2801 H       
  29 H29            1.1763    -1.9429     0.1212 H       
  30 H30            5.5571    -0.4715    -0.1832 H       
  31 H31            6.7214     3.9725    -0.2537 H       
  32 H32            4.5409    -2.4310     0.3500 H       
  33 H33            2.7777    -2.5419     0.5675 H       
  34 H34            1.3146    -3.0815    -1.5438 H       
  35 H35            0.7796    -4.1215    -4.3288 H       
  36 H36            1.8573    -4.6186    -6.4651 H       
  37 H37            4.2668    -4.2329    -6.7650 H       
  38 H38            5.6262    -3.3437    -4.9259 H       
  39 H39            6.0175    -1.3268    -2.4464 H       
  40 H40            6.0462    -2.4195    -1.0417 H       
  41 H41            6.5066    -3.0260    -2.6505 H       
@<TRIPOS>BOND
   1    1    2 ar
   2    1    6 ar
   3    1   27 1
   4    2    3 ar
   5    2   28 1
   6    3    4 ar
   7    3   29 1
   8    4    5 ar
   9    4    7 1
  10    5    6 ar
  11    5   10 1
  12    6   25 1
  13    7    8 1
  14    7   15 1
  15    8    9 2
  16    8   30 1
  17    9   10 1
  18    9   11 1
  19   10   14 2
  20   11   12 1
  21   11   13 2
  22   12   31 1
  23   15   16 1
  24   15   32 1
  25   15   33 1
  26   16   17 2
  27   16   20 1
  28   17   18 1
  29   17   34 1
  30   18   19 ar
  31   18   21 ar
  32   19   20 1
  33   19   24 ar
  34   20   26 1
  35   21   22 ar
  36   21   35 1
  37   22   23 ar
  38   22   36 1
  39   23   24 ar
  40   23   37 1
  41   24   38 1
  42   26   39 1
  43   26   40 1
  44   26   41 1

#	End of record

