#	Name: ASD03092722
#	Creating user name:	WinNT
#	Creation time:	15. 06. 2019 20:33

#	Modifying user name:	WinNT
#	Modification time:	15. 06. 2019 20:33

#	Program:	/corina/corina34_cracker 3.40 0067  02.08.2006

@<TRIPOS>MOLECULE
ASD03092722
  51   53    0    0    0
SMALL
NO_CHARGES


@<TRIPOS>ATOM
   1 C1            -0.0499     1.1857     0.0141 C.2     
   2 O2             0.6518     1.2268    -0.9782 O.2     
   3 C3             0.3876     0.4151     1.1972 C.ar    
   4 C4             1.5491    -0.3580     1.1401 C.ar    
   5 C5             1.9519    -1.0756     2.2497 C.ar    
   6 C6             1.2050    -1.0289     3.4165 C.ar    
   7 C7             0.0536    -0.2648     3.4774 C.ar    
   8 C8            -0.3557     0.4617     2.3783 C.ar    
   9 F9             3.0752    -1.8244     2.1974 F       
  10 C10           -2.5495     1.2129    -0.0917 C.ar    
  11 C11           -1.3332     1.9088     0.0393 C.ar    
  12 C12           -1.3635     3.2985     0.1944 C.ar    
  13 C13           -2.6046     3.9338     0.2121 C.ar    
  14 C14           -3.7639     3.1701     0.0759 C.ar    
  15 N15           -3.7034     1.8622    -0.0687 N.ar    
  16 N16           -2.5393    -0.1596    -0.2516 N.pl3   
  17 C17           -3.8010    -0.9038    -0.2748 C.3     
  18 C18           -3.5106    -2.3942    -0.4623 C.3     
  19 C19           -4.8282    -3.1715    -0.4865 C.3     
  20 C20           -2.6912     5.4061     0.3745 C.ar    
  21 C21           -3.9350     6.0347     0.3914 C.ar    
  22 C22           -4.0123     7.4034     0.5430 C.ar    
  23 C23           -2.8530     8.1548     0.6783 C.ar    
  24 C24           -1.6127     7.5315     0.6615 C.ar    
  25 C25           -1.5293     6.1625     0.5164 C.ar    
  26 O26           -2.9323     9.5032     0.8271 O.3     
  27 C27           -1.7003    10.2147     0.9611 C.3     
  28 C28           -1.9888    11.7091     1.1173 C.3     
  29 H29            2.1307    -0.3951     0.2308 H       
  30 H30            1.5233    -1.5917     4.2815 H       
  31 H31           -0.5240    -0.2330     4.3894 H       
  32 H32           -1.2524     1.0614     2.4296 H       
  33 H33           -0.4496     3.8646     0.2981 H       
  34 H34           -4.7268     3.6590     0.0895 H       
  35 H35           -1.6967    -0.6303    -0.3485 H       
  36 H36           -4.3295    -0.7523     0.6664 H       
  37 H37           -4.4180    -0.5472    -1.0995 H       
  38 H38           -2.9820    -2.5458    -1.4035 H       
  39 H39           -2.8935    -2.7508     0.3624 H       
  40 H40           -5.3568    -3.0199     0.4546 H       
  41 H41           -5.4453    -2.8149    -1.3113 H       
  42 H42           -4.6214    -4.2333    -0.6202 H       
  43 H43           -4.8373     5.4508     0.2854 H       
  44 H44           -4.9759     7.8911     0.5561 H       
  45 H45           -0.7124     8.1187     0.7663 H       
  46 H46           -0.5643     5.6776     0.5082 H       
  47 H47           -1.1661     9.8540     1.8401 H       
  48 H48           -1.0892    10.0535     0.0731 H       
  49 H49           -2.5229    12.0698     0.2383 H       
  50 H50           -2.5999    11.8703     2.0053 H       
  51 H51           -1.0490    12.2518     1.2195 H       
@<TRIPOS>BOND
   1    1    2 2
   2    1    3 1
   3    1   11 1
   4    3    4 ar
   5    3    8 ar
   6    4    5 ar
   7    4   29 1
   8    5    6 ar
   9    5    9 1
  10    6    7 ar
  11    6   30 1
  12    7    8 ar
  13    7   31 1
  14    8   32 1
  15   10   11 ar
  16   10   15 ar
  17   10   16 1
  18   11   12 ar
  19   12   13 ar
  20   12   33 1
  21   13   14 ar
  22   13   20 1
  23   14   15 ar
  24   14   34 1
  25   16   17 1
  26   16   35 1
  27   17   18 1
  28   17   36 1
  29   17   37 1
  30   18   19 1
  31   18   38 1
  32   18   39 1
  33   19   40 1
  34   19   41 1
  35   19   42 1
  36   20   21 ar
  37   20   25 ar
  38   21   22 ar
  39   21   43 1
  40   22   23 ar
  41   22   44 1
  42   23   24 ar
  43   23   26 1
  44   24   25 ar
  45   24   45 1
  46   25   46 1
  47   26   27 1
  48   27   28 1
  49   27   47 1
  50   27   48 1
  51   28   49 1
  52   28   50 1
  53   28   51 1

#	End of record

