#	Name: ASD08178050
#	Creating user name:	WinNT
#	Creation time:	15. 06. 2019 21:18

#	Modifying user name:	WinNT
#	Modification time:	15. 06. 2019 21:18

#	Program:	/corina/corina34_cracker 3.40 0067  02.08.2006

@<TRIPOS>MOLECULE
ASD08178050
  93   96    0    0    0
SMALL
NO_CHARGES


@<TRIPOS>ATOM
   1 C1            -0.0167     1.3781     0.0096 C.ar    
   2 C2            14.8898     3.3338   -10.1263 C.ar    
   3 N3             2.1186     3.4122    -4.0543 N.2     
   4 N4             2.3632     3.6413    -5.2715 N.2     
   5 C5             1.9859     2.1729    -3.6888 C.2     
   6 S6             2.1976     1.1699    -5.0613 S.3     
   7 C7             2.4593     2.6088    -6.0476 C.2     
   8 N8             1.7164     1.7331    -2.3972 N.am    
   9 C9             1.5700     2.6259    -1.3981 C.2     
  10 O10            1.6732     3.8127    -1.6255 O.2     
  11 C11            1.2780     2.1493     0.0014 C.3     
  12 C12            2.7427     2.6325    -7.5275 C.3     
  13 C13            4.2538     2.5681    -7.7585 C.3     
  14 S14            4.5949     2.5967    -9.5399 S.3     
  15 C15            6.4057     2.5144    -9.6100 C.3     
  16 C16            6.8608     2.5296   -11.0707 C.3     
  17 C17            8.3651     2.4612   -11.1289 C.2     
  18 N18            9.0792     1.3821   -11.1849 N.2     
  19 S19            9.4694     3.8367   -11.1407 S.3     
  20 C20           10.7915     2.7498   -11.2142 C.2     
  21 N21           10.3316     1.5351   -11.2277 N.2     
  22 N22           12.1345     3.1087   -11.2577 N.am    
  23 C23           13.0853     2.1552   -11.3142 C.2     
  24 O24           12.7698     0.9841   -11.3270 O.2     
  25 C25           14.5405     2.5440   -11.3614 C.3     
  26 N26           15.3672     1.3359   -11.4185 N.am    
  27 C27           14.9609     4.7130   -10.1850 C.ar    
  28 C28           15.2813     5.4374    -9.0522 C.ar    
  29 C29           15.5302     4.7826    -7.8605 C.ar    
  30 C30           15.4582     3.4034    -7.8015 C.ar    
  31 C31           15.1335     2.6793    -8.9334 C.ar    
  32 C32           16.6011     1.3886   -11.9582 C.2     
  33 O33           17.3608     0.2783   -12.0107 O.3     
  34 O34           17.0278     2.4381   -12.3973 O.2     
  35 C35           18.6790     0.4090   -12.6054 C.3     
  36 C36           19.4973     1.4300   -11.8124 C.3     
  37 C37           19.3883    -0.9463   -12.5764 C.3     
  38 C38           18.5403     0.8811   -14.0541 C.3     
  39 C39            0.0021    -0.0041     0.0020 C.ar    
  40 C40           -1.1855    -0.7115     0.0095 C.ar    
  41 C41           -2.3919    -0.0367     0.0251 C.ar    
  42 C42           -2.4106     1.3455     0.0336 C.ar    
  43 C43           -1.2230     2.0529     0.0305 C.ar    
  44 N44            1.1647     3.3035     0.8966 N.am    
  45 C45            1.4080     3.1606     2.2145 C.2     
  46 O46            1.3038     4.2213     3.0371 O.3     
  47 O47            1.7213     2.0745     2.6602 O.2     
  48 C48            1.5802     3.9938     4.4443 C.3     
  49 C49            3.0146     3.4868     4.6068 C.3     
  50 C50            1.4121     5.3045     5.2155 C.3     
  51 C51            0.6053     2.9503     4.9934 C.3     
  52 H52            1.6339     0.7839    -2.2154 H       
  53 H53            2.0877     1.5037     0.3417 H       
  54 H54            2.2657     1.7753    -8.0026 H       
  55 H55            2.3482     3.5528    -7.9583 H       
  56 H56            4.7308     3.4254    -7.2834 H       
  57 H57            4.6483     1.6479    -7.3277 H       
  58 H58            6.8289     3.3729    -9.0886 H       
  59 H59            6.7464     1.5954    -9.1329 H       
  60 H60            6.4376     1.6710   -11.5921 H       
  61 H61            6.5201     3.4485   -11.5478 H       
  62 H62           12.3868     4.0452   -11.2475 H       
  63 H63           14.7254     3.1529   -12.2464 H       
  64 H64           15.0265     0.4981   -11.0679 H       
  65 H65           14.7664     5.2246   -11.1161 H       
  66 H66           15.3375     6.5150    -9.0982 H       
  67 H67           15.7812     5.3485    -6.9755 H       
  68 H68           15.6530     2.8918    -6.8706 H       
  69 H69           15.0773     1.6017    -8.8874 H       
  70 H70           19.5961     1.0937   -10.7803 H       
  71 H71           20.4868     1.5281   -12.2589 H       
  72 H72           18.9920     2.3956   -11.8331 H       
  73 H73           18.8053    -1.6737   -13.1413 H       
  74 H74           20.3778    -0.8482   -13.0228 H       
  75 H75           19.4871    -1.2827   -11.5443 H       
  76 H76           18.0350     1.8467   -14.0748 H       
  77 H77           19.5298     0.9792   -14.5006 H       
  78 H78           17.9573     0.1537   -14.6191 H       
  79 H79            0.9446    -0.5313    -0.0101 H       
  80 H80           -1.1709    -1.7913     0.0029 H       
  81 H81           -3.3198    -0.5893     0.0302 H       
  82 H82           -3.3531     1.8728     0.0454 H       
  83 H83           -1.2376     3.1328     0.0372 H       
  84 H84            0.9145     4.1705     0.5408 H       
  85 H85            3.7092     4.2302     4.2156 H       
  86 H86            3.2222     3.3160     5.6631 H       
  87 H87            3.1344     2.5531     4.0574 H       
  88 H88            0.3902     5.6656     5.0997 H       
  89 H89            1.6197     5.1337     6.2718 H       
  90 H90            2.1067     6.0478     4.8243 H       
  91 H91            0.7251     2.0165     4.4440 H       
  92 H92            0.8128     2.7795     6.0497 H       
  93 H93           -0.4166     3.3114     4.8776 H       
@<TRIPOS>BOND
   1    1   39 ar
   2    1   11 1
   3    1   43 ar
   4    2   27 ar
   5    2   25 1
   6    2   31 ar
   7    3    4 1
   8    3    5 2
   9    4    7 2
  10    5    6 1
  11    5    8 1
  12    6    7 1
  13    7   12 1
  14    8    9 am
  15    8   52 1
  16    9   10 2
  17    9   11 1
  18   11   44 1
  19   11   53 1
  20   12   13 1
  21   12   54 1
  22   12   55 1
  23   13   14 1
  24   13   56 1
  25   13   57 1
  26   14   15 1
  27   15   16 1
  28   15   58 1
  29   15   59 1
  30   16   17 1
  31   16   60 1
  32   16   61 1
  33   17   18 2
  34   17   19 1
  35   18   21 1
  36   19   20 1
  37   20   21 2
  38   20   22 1
  39   22   23 am
  40   22   62 1
  41   23   24 2
  42   23   25 1
  43   25   26 1
  44   25   63 1
  45   26   32 am
  46   26   64 1
  47   27   28 ar
  48   27   65 1
  49   28   29 ar
  50   28   66 1
  51   29   30 ar
  52   29   67 1
  53   30   31 ar
  54   30   68 1
  55   31   69 1
  56   32   33 1
  57   32   34 2
  58   33   35 1
  59   35   36 1
  60   35   37 1
  61   35   38 1
  62   36   70 1
  63   36   71 1
  64   36   72 1
  65   37   73 1
  66   37   74 1
  67   37   75 1
  68   38   76 1
  69   38   77 1
  70   38   78 1
  71   39   40 ar
  72   39   79 1
  73   40   41 ar
  74   40   80 1
  75   41   42 ar
  76   41   81 1
  77   42   43 ar
  78   42   82 1
  79   43   83 1
  80   44   45 am
  81   44   84 1
  82   45   46 1
  83   45   47 2
  84   46   48 1
  85   48   49 1
  86   48   50 1
  87   48   51 1
  88   49   85 1
  89   49   86 1
  90   49   87 1
  91   50   88 1
  92   50   89 1
  93   50   90 1
  94   51   91 1
  95   51   92 1
  96   51   93 1

#	End of record

