#	Name: ASD01884828
#	Creating user name:	WinNT
#	Creation time:	15. 06. 2019 19:48

#	Modifying user name:	WinNT
#	Modification time:	15. 06. 2019 19:48

#	Program:	/corina/corina34_cracker 3.40 0067  02.08.2006

@<TRIPOS>MOLECULE
ASD01884828
  40   43    0    0    0
SMALL
NO_CHARGES


@<TRIPOS>ATOM
   1 C1            -0.0187     1.5258     0.0104 C.3     
   2 C2             0.0021    -0.0041     0.0020 C.3     
   3 O3            -1.3386    -0.4987     0.0122 O.3     
   4 C4            -1.4981    -1.8462     0.0064 C.ar    
   5 C5            -2.7755    -2.3852     0.0100 C.ar    
   6 C6            -2.9237    -3.7729     0.0035 C.ar    
   7 C7            -1.7688    -4.5621    -0.0062 C.ar    
   8 C8            -0.5351    -3.9469    -0.0092 C.ar    
   9 N9            -0.4327    -2.6310    -0.0079 N.ar    
  10 C10           -4.2708    -4.3947     0.0075 C.2     
  11 C11           -4.5414    -5.7737     0.0074 C.2     
  12 C12           -5.8952    -5.9347     0.0117 C.2     
  13 N13           -6.6729    -7.0839     0.0140 N.am    
  14 C14           -6.0214    -8.3960     0.0109 C.3     
  15 C15           -8.0199    -7.0109     0.0197 C.2     
  16 O16           -8.6958    -8.0225     0.0226 O.2     
  17 C17           -8.6568    -5.6816     0.0228 C.ar    
  18 C18          -10.0435    -5.5438     0.0291 C.ar    
  19 C19          -10.6025    -4.2828     0.0323 C.ar    
  20 C20           -9.7934    -3.1577     0.0286 C.ar    
  21 C21           -8.4181    -3.2809     0.0224 C.ar    
  22 C22           -7.8382    -4.5409     0.0197 C.ar    
  23 N23           -6.4555    -4.6935     0.0144 N.pl3   
  24 N24           -5.4187    -3.7495     0.0174 N.2     
  25 H25            1.0039     1.9031     0.0027 H       
  26 H26           -0.5459     1.8868    -0.8726 H       
  27 H27           -0.5289     1.8773     0.9072 H       
  28 H28            0.5123    -0.3556    -0.8948 H       
  29 H29            0.5293    -0.3651     0.8851 H       
  30 H30           -3.6424    -1.7411     0.0179 H       
  31 H31           -1.8426    -5.6396    -0.0111 H       
  32 H32            0.3605    -4.5504    -0.0163 H       
  33 H33           -3.8070    -6.5656     0.0039 H       
  34 H34           -5.8559    -8.7220     1.0377 H       
  35 H35           -6.6590    -9.1170    -0.5009 H       
  36 H36           -5.0647    -8.3254    -0.5066 H       
  37 H37          -10.6766    -6.4188     0.0312 H       
  38 H38          -11.6767    -4.1717     0.0372 H       
  39 H39          -10.2426    -2.1755     0.0304 H       
  40 H40           -7.7954    -2.3984     0.0193 H       
@<TRIPOS>BOND
   1    1    2 1
   2    1   25 1
   3    1   26 1
   4    1   27 1
   5    2    3 1
   6    2   28 1
   7    2   29 1
   8    3    4 1
   9    4    9 ar
  10    4    5 ar
  11    5    6 ar
  12    5   30 1
  13    6    7 ar
  14    6   10 1
  15    7    8 ar
  16    7   31 1
  17    8    9 ar
  18    8   32 1
  19   10   24 2
  20   10   11 1
  21   11   12 2
  22   11   33 1
  23   12   23 1
  24   12   13 1
  25   13   14 1
  26   13   15 am
  27   14   34 1
  28   14   35 1
  29   14   36 1
  30   15   16 2
  31   15   17 1
  32   17   22 ar
  33   17   18 ar
  34   18   19 ar
  35   18   37 1
  36   19   20 ar
  37   19   38 1
  38   20   21 ar
  39   20   39 1
  40   21   22 ar
  41   21   40 1
  42   22   23 1
  43   23   24 1

#	End of record

