#	Name: ASD02038544
#	Creating user name:	WinNT
#	Creation time:	15. 06. 2019 20:16

#	Modifying user name:	WinNT
#	Modification time:	15. 06. 2019 20:16

#	Program:	/corina/corina34_cracker 3.40 0067  02.08.2006

@<TRIPOS>MOLECULE
ASD02038544
  50   52    0    0    0
SMALL
NO_CHARGES


@<TRIPOS>ATOM
   1 C1            -0.2488     1.5456    -0.8138 C.3     
   2 C2            -0.2360     0.0387    -0.8149 C.2     
   3 C3            -0.9928    -0.6313     0.0430 C.2     
   4 C4            -0.9802    -2.1093     0.0418 C.ar    
   5 C5            -1.7760    -2.8171     0.9439 C.ar    
   6 C6            -1.7606    -4.1964     0.9388 C.ar    
   7 C7            -0.9574    -4.8795     0.0413 C.ar    
   8 C8            -0.1651    -4.1827    -0.8567 C.ar    
   9 C9            -0.1773    -2.8019    -0.8647 C.ar    
  10 N10            1.1191     2.0455    -0.6543 N.am    
  11 C11            2.0555     2.3394    -1.7499 C.3     
  12 C12            3.3253     2.8275    -1.0262 C.3     
  13 C13            3.6516     4.2673    -1.4278 C.3     
  14 O14            4.8929     4.6571    -0.8366 O.3     
  15 C15            5.3311     5.9182    -1.0958 C.ar    
  16 C16            6.5284     6.3610    -0.5535 C.ar    
  17 C17            1.7191     2.3150     0.5132 C.2     
  18 C18            4.5834     6.7588    -1.9070 C.ar    
  19 C19            5.0279     8.0395    -2.1711 C.ar    
  20 C20            6.2237     8.4856    -1.6239 C.ar    
  21 C21            6.9743     7.6415    -0.8162 C.ar    
  22 O22            2.9749     2.7582     0.3864 O.3     
  23 O23            1.1734     2.1674     1.5888 O.2     
  24 Cl24          -0.9425    -6.6154     0.0417 Cl      
  25 Cl25           0.8395    -5.0470    -1.9782 Cl      
  26 N26            6.6749     9.7830    -1.8910 N.am    
  27 S27            5.9602    11.0779    -1.1462 S.o2    
  28 O28            6.6771    12.2031    -1.6354 O.2     
  29 O29            4.5746    10.9175    -1.4177 O.2     
  30 C30            6.2962    10.8272     0.6187 C.3     
  31 H31           -0.6598     1.9062    -1.7567 H       
  32 H32           -0.8648     1.9031     0.0114 H       
  33 H33            0.3897    -0.4955    -1.5146 H       
  34 H34           -1.6185    -0.0971     0.7426 H       
  35 H35           -2.4025    -2.2858     1.6450 H       
  36 H36           -2.3761    -4.7447     1.6365 H       
  37 H37            0.4405    -2.2593    -1.5649 H       
  38 H38            2.2657     1.4383    -2.3261 H       
  39 H39            1.6570     3.1229    -2.3944 H       
  40 H40            4.1668     2.1705    -1.2460 H       
  41 H41            3.7295     4.3331    -2.5130 H       
  42 H42            2.8594     4.9301    -1.0796 H       
  43 H43            7.1121     5.7045     0.0748 H       
  44 H44            3.6534     6.4117    -2.3325 H       
  45 H45            4.4459     8.6936    -2.8033 H       
  46 H46            7.9044     7.9877    -0.3902 H       
  47 H47            7.4062     9.9238    -2.5124 H       
  48 H48            7.3697    10.7166     0.7720 H       
  49 H49            5.9353    11.6870     1.1830 H       
  50 H50            5.7857     9.9272     0.9614 H       
@<TRIPOS>BOND
   1    1    2 1
   2    1   10 1
   3    1   31 1
   4    1   32 1
   5    2    3 2
   6    2   33 1
   7    3    4 1
   8    3   34 1
   9    4    5 ar
  10    4    9 ar
  11    5    6 ar
  12    5   35 1
  13    6    7 ar
  14    6   36 1
  15    7    8 ar
  16    7   24 1
  17    8    9 ar
  18    8   25 1
  19    9   37 1
  20   10   11 1
  21   10   17 am
  22   11   12 1
  23   11   38 1
  24   11   39 1
  25   12   13 1
  26   12   22 1
  27   12   40 1
  28   13   14 1
  29   13   41 1
  30   13   42 1
  31   14   15 1
  32   15   16 ar
  33   15   18 ar
  34   16   21 ar
  35   16   43 1
  36   17   22 1
  37   17   23 2
  38   18   19 ar
  39   18   44 1
  40   19   20 ar
  41   19   45 1
  42   20   21 ar
  43   20   26 1
  44   21   46 1
  45   26   27 am
  46   26   47 1
  47   27   28 2
  48   27   29 2
  49   27   30 1
  50   30   48 1
  51   30   49 1
  52   30   50 1

#	End of record

