#	Name: ASD01120303
#	Creating user name:	WinNT
#	Creation time:	15. 06. 2019 18:59

#	Modifying user name:	WinNT
#	Modification time:	15. 06. 2019 18:59

#	Program:	/corina/corina34_cracker 3.40 0067  02.08.2006

@<TRIPOS>MOLECULE
ASD01120303
  36   38    0    0    0
SMALL
NO_CHARGES


@<TRIPOS>ATOM
   1 O1             0.2909     1.1799     0.4813 O.3     
   2 C2             0.2126    -0.1341     0.1875 C.2     
   3 O3             1.1803    -0.7145    -0.2657 O.2     
   4 C4            -1.0400    -0.8631     0.4146 C.2     
   5 C5            -1.2424    -2.1843     0.1591 C.2     
   6 C6            -2.5747    -2.4925     0.5141 C.ar    
   7 C7            -3.1611    -1.3047     0.9917 C.ar    
   8 N8            -2.2038    -0.3193     0.9286 N.pl3   
   9 C9            -4.4867    -1.3153     1.4164 C.ar    
  10 C10           -5.2188    -2.4816     1.3689 C.ar    
  11 C11           -4.6510    -3.6570     0.9003 C.ar    
  12 C12           -3.3362    -3.6762     0.4718 C.ar    
  13 N13           -2.7694    -4.8579     0.0019 N.pl3   
  14 C14           -3.4729    -6.0601     0.1072 C.ar    
  15 C15           -3.4794    -6.9582    -0.9529 C.ar    
  16 C16           -4.1755    -8.1460    -0.8453 C.ar    
  17 C17           -4.8656    -8.4420     0.3159 C.ar    
  18 C18           -4.8613    -7.5505     1.3731 C.ar    
  19 C19           -4.1630    -6.3632     1.2743 C.ar    
  20 C20           -5.6245    -9.7390     0.4294 C.3     
  21 F21           -4.7841   -10.7267     0.9541 F       
  22 F22           -6.7237    -9.5636     1.2770 F       
  23 F23           -6.0704   -10.1309    -0.8374 F       
  24 N24           -5.1109    -0.0712     1.9204 N.pl3   
  25 O25           -6.2707    -0.0791     2.2923 O.2     
  26 O26           -4.4646     0.9603     1.9633 O.2     
  27 H27            1.1371     1.6174     0.3146 H       
  28 H28           -0.5150    -2.8737    -0.2434 H       
  29 H29           -2.3262     0.6055     1.1946 H       
  30 H30           -6.2466    -2.4805     1.7008 H       
  31 H31           -5.2388    -4.5625     0.8701 H       
  32 H32           -1.8860    -4.8463    -0.3985 H       
  33 H33           -2.9409    -6.7274    -1.8602 H       
  34 H34           -4.1812    -8.8443    -1.6691 H       
  35 H35           -5.4014    -7.7849     2.2785 H       
  36 H36           -4.1601    -5.6673     2.1002 H       
@<TRIPOS>BOND
   1    1    2 1
   2    1   27 1
   3    2    3 2
   4    2    4 1
   5    4    5 2
   6    4    8 1
   7    5    6 1
   8    5   28 1
   9    6    7 ar
  10    6   12 ar
  11    7    8 1
  12    7    9 ar
  13    8   29 1
  14    9   10 ar
  15    9   24 1
  16   10   11 ar
  17   10   30 1
  18   11   12 ar
  19   11   31 1
  20   12   13 1
  21   13   14 1
  22   13   32 1
  23   14   15 ar
  24   14   19 ar
  25   15   16 ar
  26   15   33 1
  27   16   17 ar
  28   16   34 1
  29   17   18 ar
  30   17   20 1
  31   18   19 ar
  32   18   35 1
  33   19   36 1
  34   20   21 1
  35   20   22 1
  36   20   23 1
  37   24   25 2
  38   24   26 2

#	End of record

