#	Name: ASD01884730
#	Creating user name:	WinNT
#	Creation time:	15. 06. 2019 19:48

#	Modifying user name:	WinNT
#	Modification time:	15. 06. 2019 19:48

#	Program:	/corina/corina34_cracker 3.40 0067  02.08.2006

@<TRIPOS>MOLECULE
ASD01884730
  48   50    0    0    0
SMALL
NO_CHARGES


@<TRIPOS>ATOM
   1 C1            -0.0168     1.3865     0.0097 C.2     
   2 C2             0.0021    -0.0041     0.0020 C.2     
   3 C3            -1.2187    -0.6995     0.0099 C.2     
   4 C4            -2.4045     0.0006     0.0249 C.2     
   5 N5            -2.4131     1.3554     0.0318 N.am    
   6 C6            -1.2661     2.0592     0.0311 C.2     
   7 O7            -1.3004     3.2778     0.0385 O.2     
   8 C8            -3.6938     2.0667     0.0469 C.3     
   9 C9             1.2076     2.1291     0.0020 C.1     
  10 N10            2.1788     2.7183    -0.0041 N.1     
  11 C11           -4.1267     2.3070     1.4945 C.3     
  12 C12           -5.4642     3.0499     1.5102 C.3     
  13 C13           -5.9582     3.1804     2.9524 C.3     
  14 C14           -5.2806     4.4435     0.9060 C.3     
  15 C15           -1.2303    -2.1854     0.0015 C.2     
  16 C16           -1.5411    -3.0087    -1.0981 C.2     
  17 N17           -1.4424    -4.2547    -0.7151 N.2     
  18 N18           -1.0676    -4.2770     0.6338 N.pl3   
  19 C19           -0.9363    -2.9990     1.0555 C.2     
  20 C20           -0.8596    -5.4248     1.4107 C.ar    
  21 C21           -1.6395    -6.5549     1.2048 C.ar    
  22 C22           -1.4318    -7.6847     1.9717 C.ar    
  23 C23           -0.4483    -7.6910     2.9437 C.ar    
  24 C24            0.3298    -6.5669     3.1514 C.ar    
  25 C25            0.1307    -5.4360     2.3838 C.ar    
  26 C26           -0.5456    -2.5545     2.4414 C.3     
  27 H27            0.9394    -0.5404    -0.0101 H       
  28 H28           -3.3407    -0.5379     0.0309 H       
  29 H29           -3.5838     3.0237    -0.4631 H       
  30 H30           -4.4481     1.4677    -0.4633 H       
  31 H31           -4.2366     1.3500     2.0045 H       
  32 H32           -3.3724     2.9060     2.0047 H       
  33 H33           -6.1958     2.4934     0.9245 H       
  34 H34           -5.2266     3.7369     3.5381 H       
  35 H35           -6.9110     3.7096     2.9636 H       
  36 H36           -6.0889     2.1875     3.3829 H       
  37 H37           -4.9287     4.3505    -0.1215 H       
  38 H38           -6.2335     4.9727     0.9171 H       
  39 H39           -4.5490     5.0000     1.4917 H       
  40 H40           -1.8137    -2.6694    -2.0866 H       
  41 H41           -2.4081    -6.5504     0.4460 H       
  42 H42           -2.0384    -8.5639     1.8122 H       
  43 H43           -0.2877    -8.5757     3.5421 H       
  44 H44            1.0967    -6.5747     3.9118 H       
  45 H45            0.7387    -4.5584     2.5465 H       
  46 H46            0.5386    -2.4586     2.5001 H       
  47 H47           -1.0078    -1.5914     2.6579 H       
  48 H48           -0.8849    -3.2920     3.1687 H       
@<TRIPOS>BOND
   1    1    2 2
   2    1    9 1
   3    1    6 1
   4    2    3 1
   5    2   27 1
   6    3    4 2
   7    3   15 1
   8    4    5 1
   9    4   28 1
  10    5    8 1
  11    5    6 am
  12    6    7 2
  13    8   11 1
  14    8   29 1
  15    8   30 1
  16    9   10 3
  17   11   12 1
  18   11   31 1
  19   11   32 1
  20   12   13 1
  21   12   14 1
  22   12   33 1
  23   13   34 1
  24   13   35 1
  25   13   36 1
  26   14   37 1
  27   14   38 1
  28   14   39 1
  29   15   16 1
  30   15   19 2
  31   16   17 2
  32   16   40 1
  33   17   18 1
  34   18   19 1
  35   18   20 1
  36   19   26 1
  37   20   21 ar
  38   20   25 ar
  39   21   22 ar
  40   21   41 1
  41   22   23 ar
  42   22   42 1
  43   23   24 ar
  44   23   43 1
  45   24   25 ar
  46   24   44 1
  47   25   45 1
  48   26   46 1
  49   26   47 1
  50   26   48 1

#	End of record

