#	Name: ASD03331462
#	Creating user name:	WinNT
#	Creation time:	15. 06. 2019 20:39

#	Modifying user name:	WinNT
#	Modification time:	15. 06. 2019 20:39

#	Program:	/corina/corina34_cracker 3.40 0067  02.08.2006

@<TRIPOS>MOLECULE
ASD03331462
  60   62    0    0    0
SMALL
NO_CHARGES


@<TRIPOS>ATOM
   1 C1             0.5942     1.5919     0.4653 C.ar    
   2 C2             0.4610     0.1231     0.3512 C.2     
   3 N3            -0.6299    -0.6047     0.7068 N.pl3   
   4 C4            -0.3505    -1.9151     0.4482 C.2     
   5 C5             0.9041    -1.9637    -0.0636 C.2     
   6 N6             1.3758    -0.6967    -0.1164 N.2     
   7 C7             1.6223    -3.1773    -0.4912 C.2     
   8 N8             2.8727    -3.0816    -0.9850 N.am    
   9 C9            -0.2726     2.3113     1.2883 C.ar    
  10 O10            1.0867    -4.2653    -0.3985 O.2     
  11 C11            3.5867    -4.2882    -1.4101 C.3     
  12 C12            3.2011    -4.6279    -2.8512 C.3     
  13 C13            5.0722    -4.0469    -1.3311 C.2     
  14 C14            3.4703    -3.4191    -3.7497 C.3     
  15 C15           -1.9044    -0.1457     1.2659 C.3     
  16 C16           -2.9323    -1.2728     1.1021 C.3     
  17 N17           -2.3729    -2.5348     1.6061 N.3     
  18 C18           -1.3143    -3.0424     0.7146 C.3     
  19 O19            5.5124    -2.9251    -1.4677 O.2     
  20 N20            5.9114    -5.0777    -1.1088 N.am    
  21 C21            7.3429    -4.8294    -0.9205 C.3     
  22 C22            4.0325    -5.8178    -3.3346 C.3     
  23 C23            1.7149    -4.9864    -2.9105 C.3     
  24 C24           -0.1437     3.6828     1.3911 C.ar    
  25 C25            0.8457     4.3436     0.6767 C.ar    
  26 C26            1.7077     3.6320    -0.1418 C.ar    
  27 C27            1.5910     2.2615    -0.2455 C.ar    
  28 F28            0.9684     5.6851     0.7794 F       
  29 F29           -0.9819     4.3816     2.1875 F       
  30 C30           -3.4276    -3.5394     1.7964 C.3     
  31 C31           -4.1969    -0.9263     1.8906 C.3     
  32 H32            3.2999    -2.2139    -1.0589 H       
  33 H33           -1.0430     1.7971     1.8437 H       
  34 H34            3.3182    -5.1184    -0.7568 H       
  35 H35            4.5291    -3.1636    -3.7074 H       
  36 H36            3.1956    -3.6611    -4.7763 H       
  37 H37            2.8780    -2.5713    -3.4053 H       
  38 H38           -1.7796     0.0874     2.3234 H       
  39 H39           -2.2428     0.7414     0.7306 H       
  40 H40           -3.1834    -1.3836     0.0472 H       
  41 H41           -1.7537    -3.3810    -0.2237 H       
  42 H42           -0.7913    -3.8684     1.1966 H       
  43 H43            5.5677    -5.9841    -1.0735 H       
  44 H44            7.8571    -5.7760    -0.7543 H       
  45 H45            7.7481    -4.3471    -1.8101 H       
  46 H46            7.4886    -4.1803    -0.0571 H       
  47 H47            3.8007    -6.6933    -2.7280 H       
  48 H48            3.7963    -6.0260    -4.3782 H       
  49 H49            5.0926    -5.5819    -3.2420 H       
  50 H50            1.1226    -4.1387    -2.5661 H       
  51 H51            1.4402    -5.2284    -3.9371 H       
  52 H52            1.5231    -5.8476    -2.2704 H       
  53 H53            2.4756     4.1509    -0.6962 H       
  54 H54            2.2639     1.7085    -0.8841 H       
  55 H55           -3.9220    -3.7320     0.8443 H       
  56 H56           -2.9861    -4.4634     2.1699 H       
  57 H57           -4.1572    -3.1684     2.5162 H       
  58 H58           -4.6163     0.0063     1.5132 H       
  59 H59           -4.9279    -1.7265     1.7748 H       
  60 H60           -3.9474    -0.8119     2.9454 H       
@<TRIPOS>BOND
   1    1    2 1
   2    1    9 ar
   3    1   27 ar
   4    2    3 1
   5    2    6 2
   6    3    4 1
   7    3   15 1
   8    4    5 2
   9    4   18 1
  10    5    6 1
  11    5    7 1
  12    7    8 am
  13    7   10 2
  14    8   11 1
  15    8   32 1
  16    9   24 ar
  17    9   33 1
  18   11   12 1
  19   11   13 1
  20   11   34 1
  21   12   14 1
  22   12   22 1
  23   12   23 1
  24   13   19 2
  25   13   20 am
  26   14   35 1
  27   14   36 1
  28   14   37 1
  29   15   16 1
  30   15   38 1
  31   15   39 1
  32   16   17 1
  33   16   31 1
  34   16   40 1
  35   17   18 1
  36   17   30 1
  37   18   41 1
  38   18   42 1
  39   20   21 1
  40   20   43 1
  41   21   44 1
  42   21   45 1
  43   21   46 1
  44   22   47 1
  45   22   48 1
  46   22   49 1
  47   23   50 1
  48   23   51 1
  49   23   52 1
  50   24   25 ar
  51   24   29 1
  52   25   26 ar
  53   25   28 1
  54   26   27 ar
  55   26   53 1
  56   27   54 1
  57   30   55 1
  58   30   56 1
  59   30   57 1
  60   31   58 1
  61   31   59 1
  62   31   60 1

#	End of record

