#	Name: ASD01150064
#	Creating user name:	WinNT
#	Creation time:	15. 06. 2019 19:03

#	Modifying user name:	WinNT
#	Modification time:	15. 06. 2019 19:03

#	Program:	/corina/corina34_cracker 3.40 0067  02.08.2006

@<TRIPOS>MOLECULE
ASD01150064
  44   47    0    0    0
SMALL
NO_CHARGES


@<TRIPOS>ATOM
   1 C1            -0.0168     1.3855     0.0097 C.2     
   2 C2             0.0021    -0.0041     0.0020 C.2     
   3 N3            -1.2676    -0.4181     0.0119 N.2     
   4 C4            -2.0718     0.6146     0.0251 C.2     
   5 N5            -1.3486     1.7539     0.0298 N.pl3   
   6 C6            -1.8524     3.0620     0.0434 C.ar    
   7 C7            -3.5770     0.5421     0.0391 C.3     
   8 C8            -4.0727     0.5104     1.4862 C.3     
   9 C9             1.2057     2.0899     0.0018 C.2     
  10 N10            2.3644     1.3985    -0.0130 N.am    
  11 C11            2.3684     0.0544    -0.0203 C.2     
  12 N12            1.2246    -0.6558    -0.0131 N.am    
  13 O13            3.4319    -0.5350    -0.0336 O.2     
  14 C14            3.6372     2.1238    -0.0218 C.3     
  15 O15            1.2151     3.3078     0.0078 O.2     
  16 C16            4.0875     2.3654     1.3960 C.ar    
  17 C17            4.8867     1.4358     2.0350 C.ar    
  18 C18            5.3000     1.6567     3.3352 C.ar    
  19 C19            4.9137     2.8085     3.9973 C.ar    
  20 C20            4.1139     3.7385     3.3573 C.ar    
  21 C21            3.7059     3.5191     2.0551 C.ar    
  22 Cl22           5.4320     3.0865     5.6306 Cl      
  23 C23           -2.5699     3.5192     1.1406 C.ar    
  24 C24           -3.0650     4.8084     1.1523 C.ar    
  25 C25           -2.8466     5.6448     0.0704 C.ar    
  26 C26           -2.1315     5.1905    -1.0250 C.ar    
  27 C27           -1.6295     3.9040    -1.0378 C.ar    
  28 F28           -3.3321     6.9055     0.0836 F       
  29 H29           -3.9876     1.4161    -0.4666 H       
  30 H30           -3.9021    -0.3618    -0.4762 H       
  31 H31           -3.7477     1.4143     2.0015 H       
  32 H32           -5.1614     0.4580     1.4963 H       
  33 H33           -3.6622    -0.3636     1.9918 H       
  34 H34            1.2565    -1.6253    -0.0183 H       
  35 H35            4.3885     1.5330    -0.5459 H       
  36 H36            3.5074     3.0795    -0.5295 H       
  37 H37            5.1878     0.5365     1.5182 H       
  38 H38            5.9240     0.9303     3.8344 H       
  39 H39            3.8121     4.6378     3.8736 H       
  40 H40            3.0816     4.2449     1.5553 H       
  41 H41           -2.7411     2.8669     1.9842 H       
  42 H42           -3.6232     5.1643     2.0056 H       
  43 H43           -1.9628     5.8440    -1.8681 H       
  44 H44           -1.0716     3.5501    -1.8922 H       
@<TRIPOS>BOND
   1    1    2 2
   2    1    9 1
   3    1    5 1
   4    2    3 1
   5    2   12 1
   6    3    4 2
   7    4    5 1
   8    4    7 1
   9    5    6 1
  10    6   23 ar
  11    6   27 ar
  12    7    8 1
  13    7   29 1
  14    7   30 1
  15    8   31 1
  16    8   32 1
  17    8   33 1
  18    9   10 am
  19    9   15 2
  20   10   11 am
  21   10   14 1
  22   11   12 am
  23   11   13 2
  24   12   34 1
  25   14   16 1
  26   14   35 1
  27   14   36 1
  28   16   17 ar
  29   16   21 ar
  30   17   18 ar
  31   17   37 1
  32   18   19 ar
  33   18   38 1
  34   19   20 ar
  35   19   22 1
  36   20   21 ar
  37   20   39 1
  38   21   40 1
  39   23   24 ar
  40   23   41 1
  41   24   25 ar
  42   24   42 1
  43   25   26 ar
  44   25   28 1
  45   26   27 ar
  46   26   43 1
  47   27   44 1

#	End of record

