#	Name: ASD01914435
#	Creating user name:	WinNT
#	Creation time:	15. 06. 2019 20:03

#	Modifying user name:	WinNT
#	Modification time:	15. 06. 2019 20:03

#	Program:	/corina/corina34_cracker 3.40 0067  02.08.2006

@<TRIPOS>MOLECULE
ASD01914435
  36   37    0    0    0
SMALL
NO_CHARGES


@<TRIPOS>ATOM
   1 C1             0.1572     1.6359    -0.0997 C.ar    
   2 C2             0.0781     0.2669     0.0813 C.ar    
   3 C3             1.3876     2.2450    -0.2625 C.ar    
   4 C4             2.5431     1.4879    -0.2454 C.ar    
   5 C5             2.4683     0.1134    -0.0640 C.ar    
   6 C6             1.2296    -0.4964     0.0999 C.ar    
   7 N7             3.6352    -0.6553    -0.0467 N.am    
   8 C8             4.3855    -0.8199     1.2008 C.3     
   9 S9             4.1698    -1.3803    -1.4362 S.o2    
  10 C10            5.3252     0.3447     1.3791 C.2     
  11 N11            6.0521     0.4573     2.5085 N.am    
  12 O12            5.4274     1.1806     0.5064 O.2     
  13 C13            6.8419     1.5877     2.7199 C.ar    
  14 C14            5.2632    -0.1491    -2.1973 C.3     
  15 O15            4.9187    -2.4992    -0.9820 O.2     
  16 O16            2.9945    -1.5531    -2.2159 O.2     
  17 Cl17           1.1300    -2.2145     0.3277 Cl      
  18 C18            7.6727     1.6481     3.8324 C.ar    
  19 C19            8.4517     2.7747     4.0310 C.ar    
  20 C20            8.3718     3.8073     3.1045 C.ar    
  21 C21            7.5226     3.6785     2.0202 C.ar    
  22 N22            6.7965     2.5895     1.8562 N.ar    
  23 F23            9.1150     4.9246     3.2611 F       
  24 H24           -0.7446     2.2299    -0.1183 H       
  25 H25           -0.8846    -0.2057     0.2086 H       
  26 H26            1.4455     3.3142    -0.4036 H       
  27 H27            3.5037     1.9647    -0.3734 H       
  28 H28            3.6911    -0.8582     2.0401 H       
  29 H29            4.9585    -1.7463     1.1607 H       
  30 H30            6.0261    -0.2477     3.1743 H       
  31 H31            5.9953     0.1894    -1.4640 H       
  32 H32            5.7797    -0.5972    -3.0462 H       
  33 H33            4.6717     0.7003    -2.5390 H       
  34 H34            7.7096     0.8269     4.5328 H       
  35 H35            9.1064     2.8497     4.8867 H       
  36 H36            7.4560     4.4779     1.2970 H       
@<TRIPOS>BOND
   1    1    2 ar
   2    1    3 ar
   3    1   24 1
   4    2    6 ar
   5    2   25 1
   6    3    4 ar
   7    3   26 1
   8    4    5 ar
   9    4   27 1
  10    5    6 ar
  11    5    7 1
  12    6   17 1
  13    7    8 1
  14    7    9 am
  15    8   10 1
  16    8   28 1
  17    8   29 1
  18    9   14 1
  19    9   15 2
  20    9   16 2
  21   10   11 am
  22   10   12 2
  23   11   13 1
  24   11   30 1
  25   13   18 ar
  26   13   22 ar
  27   14   31 1
  28   14   32 1
  29   14   33 1
  30   18   19 ar
  31   18   34 1
  32   19   20 ar
  33   19   35 1
  34   20   21 ar
  35   20   23 1
  36   21   22 ar
  37   21   36 1

#	End of record

