#	Name: ASD01913331
#	Creating user name:	WinNT
#	Creation time:	15. 06. 2019 20:01

#	Modifying user name:	WinNT
#	Modification time:	15. 06. 2019 20:01

#	Program:	/corina/corina34_cracker 3.40 0067  02.08.2006

@<TRIPOS>MOLECULE
ASD01913331
  29   31    0    0    0
SMALL
NO_CHARGES


@<TRIPOS>ATOM
   1 C1            -0.0166     1.3764     0.0096 C.2     
   2 C2             0.0021    -0.0041     0.0020 C.2     
   3 C3             1.2499    -0.6727    -0.0135 C.2     
   4 N4             2.3635     0.0159    -0.0204 N.2     
   5 C5             2.3515     1.3566    -0.0131 C.2     
   6 N6             1.1687     2.0507     0.0019 N.pl3   
   7 C7            -1.2215    -0.7480     0.0102 C.1     
   8 C8            -2.2246    -1.3579     0.0169 C.1     
   9 C9            -3.4482    -2.1018     0.0250 C.ar    
  10 C10           -4.6064    -4.2106     0.0253 C.ar    
  11 C11           -5.8165    -3.5410     0.0409 C.ar    
  12 C12           -5.8502    -2.1572     0.0429 C.ar    
  13 C13           -4.6758    -1.4344     0.0350 C.ar    
  14 C14            3.3713     2.2994    -0.0173 C.2     
  15 C15            2.7833     3.5556    -0.0047 C.2     
  16 N16            1.4769     3.4160     0.0068 N.2     
  17 C17            3.5233     4.8684    -0.0038 C.3     
  18 C18           -3.4208    -3.5008     0.0172 C.ar    
  19 F19           -2.2391    -4.1554     0.0015 F       
  20 H20           -0.9539     1.9131     0.0170 H       
  21 H21            1.2833    -1.7522    -0.0192 H       
  22 H22           -4.5879    -5.2904     0.0242 H       
  23 H23           -6.7401    -4.1008     0.0467 H       
  24 H24           -6.7993    -1.6420     0.0548 H       
  25 H25           -4.7049    -0.3548     0.0369 H       
  26 H26            4.4311     2.0918    -0.0285 H       
  27 H27            3.6925     5.1909    -1.0311 H       
  28 H28            2.9312     5.6190     0.5198 H       
  29 H29            4.4817     4.7450     0.5007 H       
@<TRIPOS>BOND
   1    1    2 2
   2    1    6 1
   3    1   20 1
   4    2    3 1
   5    2    7 1
   6    3    4 2
   7    3   21 1
   8    4    5 1
   9    5    6 1
  10    5   14 2
  11    6   16 1
  12    7    8 3
  13    8    9 1
  14    9   18 ar
  15    9   13 ar
  16   10   11 ar
  17   10   18 ar
  18   10   22 1
  19   11   12 ar
  20   11   23 1
  21   12   13 ar
  22   12   24 1
  23   13   25 1
  24   14   15 1
  25   14   26 1
  26   15   16 2
  27   15   17 1
  28   17   27 1
  29   17   28 1
  30   17   29 1
  31   18   19 1

#	End of record

