#	Name: ASD03330155
#	Creating user name:	WinNT
#	Creation time:	15. 06. 2019 20:36

#	Modifying user name:	WinNT
#	Modification time:	15. 06. 2019 20:36

#	Program:	/corina/corina34_cracker 3.40 0067  02.08.2006

@<TRIPOS>MOLECULE
ASD03330155
  46   48    0    0    0
SMALL
NO_CHARGES


@<TRIPOS>ATOM
   1 C1             0.0158     1.4061    -0.0096 C.2     
   2 C2            -0.0246     0.0428    -0.0096 C.2     
   3 C3             1.2105    -0.5699    -0.0040 C.2     
   4 C4             2.2757     0.3024     0.0006 C.2     
   5 S5             1.6845     1.9580    -0.0022 S.3     
   6 C6            -1.1574     2.2804    -0.0205 C.2     
   7 O7            -2.2746     1.7992    -0.0305 O.2     
   8 O8            -1.0000     3.6205    -0.0194 O.3     
   9 C9             1.3774    -2.0430    -0.0031 C.ar    
  10 C10            0.7783    -2.8134     0.9926 C.ar    
  11 C11            0.9356    -4.1837     0.9906 C.ar    
  12 C12            1.6898    -4.7958    -0.0011 C.ar    
  13 C13            2.2876    -4.0317    -0.9939 C.ar    
  14 C14            2.1292    -2.6616    -1.0012 C.ar    
  15 O15            1.8436    -6.1462     0.0003 O.3     
  16 C16            2.6323    -6.7104    -1.0493 C.3     
  17 C17            2.6913    -8.2301    -0.8824 C.3     
  18 C18            3.5357    -8.8342    -2.0062 C.3     
  19 O19            3.5909   -10.2536    -1.8503 O.3     
  20 C20            3.6972    -0.0922     0.0077 C.ar    
  21 C21            4.5871     0.4719    -0.9119 C.ar    
  22 C22            5.9155     0.0986    -0.8994 C.ar    
  23 C23            6.3675    -0.8330     0.0219 C.ar    
  24 C24            5.4897    -1.3951     0.9356 C.ar    
  25 C25            4.1610    -1.0265     0.9368 C.ar    
  26 F26            7.6691    -1.1949     0.0292 F       
  27 Cl27           4.0218     1.6384    -2.0666 Cl      
  28 C28           -2.1889     4.4133    -0.0304 C.3     
  29 H29           -0.9507    -0.5128    -0.0133 H       
  30 H30            0.1919    -2.3377     1.7649 H       
  31 H31            0.4718    -4.7810     1.7616 H       
  32 H32            2.8741    -4.5110    -1.7638 H       
  33 H33            2.5909    -2.0681    -1.7765 H       
  34 H34            2.1827    -6.4678    -2.0122 H       
  35 H35            3.6414    -6.3006    -1.0059 H       
  36 H36            3.1409    -8.4727     0.0805 H       
  37 H37            1.6822    -8.6398    -0.9258 H       
  38 H38            3.0862    -8.5916    -2.9691 H       
  39 H39            4.5449    -8.4244    -1.9628 H       
  40 H40            4.1111   -10.7039    -2.5297 H       
  41 H41            6.6041     0.5329    -1.6090 H       
  42 H42            5.8482    -2.1205     1.6510 H       
  43 H43            3.4794    -1.4622     1.6523 H       
  44 H44           -2.7681     4.1871    -0.9257 H       
  45 H45           -2.7843     4.1876     0.8542 H       
  46 H46           -1.9210     5.4699    -0.0282 H       
@<TRIPOS>BOND
   1    1    2 2
   2    1    5 1
   3    1    6 1
   4    2    3 1
   5    2   29 1
   6    3    4 2
   7    3    9 1
   8    4    5 1
   9    4   20 1
  10    6    7 2
  11    6    8 1
  12    8   28 1
  13    9   10 ar
  14    9   14 ar
  15   10   11 ar
  16   10   30 1
  17   11   12 ar
  18   11   31 1
  19   12   13 ar
  20   12   15 1
  21   13   14 ar
  22   13   32 1
  23   14   33 1
  24   15   16 1
  25   16   17 1
  26   16   34 1
  27   16   35 1
  28   17   18 1
  29   17   36 1
  30   17   37 1
  31   18   19 1
  32   18   38 1
  33   18   39 1
  34   19   40 1
  35   20   21 ar
  36   20   25 ar
  37   21   22 ar
  38   21   27 1
  39   22   23 ar
  40   22   41 1
  41   23   24 ar
  42   23   26 1
  43   24   25 ar
  44   24   42 1
  45   25   43 1
  46   28   44 1
  47   28   45 1
  48   28   46 1

#	End of record

