#	Name: ASD01150153
#	Creating user name:	WinNT
#	Creation time:	15. 06. 2019 19:03

#	Modifying user name:	WinNT
#	Modification time:	15. 06. 2019 19:03

#	Program:	/corina/corina34_cracker 3.40 0067  02.08.2006

@<TRIPOS>MOLECULE
ASD01150153
  51   53    0    0    0
SMALL
NO_CHARGES


@<TRIPOS>ATOM
   1 N1            -0.0570     0.7804    -0.6856 N.pl3   
   2 C2            -0.0382    -0.5611    -0.3603 C.2     
   3 C3            -1.3577    -0.9925    -0.4134 C.2     
   4 N4            -2.1048     0.0601    -0.7558 N.2     
   5 C5            -1.3429     1.1125    -0.9125 C.2     
   6 C6             0.9737    -1.4835    -0.0174 C.2     
   7 N7             0.6363    -2.7621     0.2508 N.am    
   8 C8            -0.6446    -3.1661     0.1952 C.2     
   9 N9            -1.6397    -2.3185    -0.1273 N.am    
  10 O10            2.1379    -1.1295     0.0355 O.2     
  11 C11           -3.0227    -2.7992    -0.1766 C.3     
  12 O12           -0.9113    -4.3264     0.4428 O.2     
  13 C13            1.6816    -3.7246     0.6074 C.3     
  14 C14            1.8766    -3.7238     2.1017 C.ar    
  15 C15            1.1384    -4.5819     2.8953 C.ar    
  16 C16            1.3169    -4.5816     4.2659 C.ar    
  17 C17            2.2344    -3.7222     4.8436 C.ar    
  18 C18            2.9728    -2.8636     4.0488 C.ar    
  19 C19            2.7976    -2.8688     2.6778 C.ar    
  20 Cl20           2.4586    -3.7209     6.5650 Cl      
  21 C21           -1.8290     2.4857    -1.2986 C.3     
  22 C22           -2.1651     3.2815    -0.0357 C.3     
  23 C23            1.1008     1.6747    -0.7632 C.3     
  24 C24           -3.6703    -2.6315     1.1994 C.3     
  25 O25           -2.9375    -3.3871     2.1660 O.3     
  26 O26           -3.6588    -1.2504     1.5662 O.3     
  27 C27           -3.6310    -3.5796     3.4005 C.3     
  28 C28           -4.6254    -0.9050     2.5604 C.3     
  29 H29           -3.5816    -2.2228    -0.9139 H       
  30 H30           -3.0314    -3.8527    -0.4563 H       
  31 H31            1.3848    -4.7211     0.2803 H       
  32 H32            2.6150    -3.4449     0.1190 H       
  33 H33            0.4220    -5.2525     2.4443 H       
  34 H34            0.7399    -5.2518     4.8858 H       
  35 H35            3.6892    -2.1925     4.4992 H       
  36 H36            3.3739    -2.1986     2.0573 H       
  37 H37           -1.0494     3.0033    -1.8574 H       
  38 H38           -2.7208     2.3944    -1.9186 H       
  39 H39           -2.9447     2.7638     0.5231 H       
  40 H40           -1.2733     3.3728     0.5843 H       
  41 H41           -2.5167     4.2747    -0.3150 H       
  42 H42            1.5060     1.6575    -1.7749 H       
  43 H43            0.7933     2.6899    -0.5122 H       
  44 H44            1.8645     1.3421    -0.0602 H       
  45 H45           -4.6993    -2.9892     1.1627 H       
  46 H46           -3.2072    -4.4356     3.9256 H       
  47 H47           -3.5282    -2.6873     4.0180 H       
  48 H48           -4.6865    -3.7628     3.1996 H       
  49 H49           -5.6055    -1.2734     2.2577 H       
  50 H50           -4.3453    -1.3570     3.5119 H       
  51 H51           -4.6625     0.1788     2.6699 H       
@<TRIPOS>BOND
   1    1    2 1
   2    1   23 1
   3    1    5 1
   4    2    3 2
   5    2    6 1
   6    3    4 1
   7    3    9 1
   8    4    5 2
   9    5   21 1
  10    6    7 am
  11    6   10 2
  12    7    8 am
  13    7   13 1
  14    8    9 am
  15    8   12 2
  16    9   11 1
  17   11   24 1
  18   11   29 1
  19   11   30 1
  20   13   14 1
  21   13   31 1
  22   13   32 1
  23   14   15 ar
  24   14   19 ar
  25   15   16 ar
  26   15   33 1
  27   16   17 ar
  28   16   34 1
  29   17   18 ar
  30   17   20 1
  31   18   19 ar
  32   18   35 1
  33   19   36 1
  34   21   22 1
  35   21   37 1
  36   21   38 1
  37   22   39 1
  38   22   40 1
  39   22   41 1
  40   23   42 1
  41   23   43 1
  42   23   44 1
  43   24   25 1
  44   24   26 1
  45   24   45 1
  46   25   27 1
  47   26   28 1
  48   27   46 1
  49   27   47 1
  50   27   48 1
  51   28   49 1
  52   28   50 1
  53   28   51 1

#	End of record

