#	Name: ASD03730384
#	Creating user name:	WinNT
#	Creation time:	15. 06. 2019 20:44

#	Modifying user name:	WinNT
#	Modification time:	15. 06. 2019 20:44

#	Program:	/corina/corina34_cracker 3.40 0067  02.08.2006

@<TRIPOS>MOLECULE
ASD03730384
  67   72    0    0    0
SMALL
NO_CHARGES


@<TRIPOS>ATOM
   1 C1            -2.0093    -0.1681     0.2228 C.2     
   2 C2            -3.1647    -0.9440     0.7216 C.ar    
   3 C3            -3.5444    -2.1252     0.0823 C.ar    
   4 C4            -4.6232    -2.8448     0.5531 C.ar    
   5 C5            -5.3285    -2.3976     1.6563 C.ar    
   6 C6            -4.9573    -1.2275     2.2946 C.ar    
   7 C7            -3.8770    -0.5016     1.8374 C.ar    
   8 O8            -1.9020     0.0666    -0.9650 O.2     
   9 N9            -1.0778     0.2837     1.0858 N.am    
  10 C10           -6.5065    -3.1883     2.1644 C.3     
  11 O11           -0.8004    -3.5313     6.5249 O.3     
  12 C12           -0.0303    -4.1445     7.5756 C.3     
  13 O13           -1.0267    -4.5918     8.5138 O.3     
  14 C14           -2.1543    -4.8081     7.7745 C.ar    
  15 C15           -2.0150    -4.1549     6.5521 C.ar    
  16 C16           -3.3068    -5.5220     8.0499 C.ar    
  17 C17           -4.3334    -5.5922     7.1131 C.ar    
  18 C18           -4.1861    -4.9286     5.8988 C.ar    
  19 C19           -3.0358    -4.2211     5.6188 C.ar    
  20 O20           -5.5283    -6.2468     7.1765 O.3     
  21 C21           -5.4549    -5.1653     5.1240 C.3     
  22 C22           -6.4227    -5.6999     6.1884 C.3     
  23 N23           -6.0485    -4.1632     3.1574 N.am    
  24 C24           -5.9693    -3.9107     4.4791 C.2     
  25 C25           -5.2642    -6.1407     4.0006 C.ar    
  26 C26           -4.8259    -7.4446     3.9367 C.ar    
  27 C27           -4.7603    -8.0946     2.7172 C.ar    
  28 C28           -5.1353    -7.4316     1.5628 C.ar    
  29 C29           -5.5740    -6.1253     1.6215 C.ar    
  30 C30           -5.6437    -5.4632     2.8448 C.ar    
  31 O31           -6.2575    -2.8735     5.0379 O.2     
  32 C32           -1.4670     0.6841     2.4402 C.3     
  33 C33           -2.3781     1.9111     2.3673 C.3     
  34 C34           -2.2143    -0.4665     3.1172 C.3     
  35 C35            0.3238     0.3745     0.6694 C.3     
  36 C36            0.8312     1.8003     0.8937 C.3     
  37 C37            1.1650    -0.6019     1.4940 C.3     
  38 H38           -2.9951    -2.4750    -0.7793 H       
  39 H39           -4.9180    -3.7589     0.0593 H       
  40 H40           -5.5121    -0.8840     3.1552 H       
  41 H41           -3.5855     0.4092     2.3393 H       
  42 H42           -7.2267    -2.5119     2.6247 H       
  43 H43           -6.9791    -3.7111     1.3329 H       
  44 H44            0.5391    -4.9900     7.1896 H       
  45 H45            0.6329    -3.4149     8.0402 H       
  46 H46           -3.4104    -6.0283     8.9982 H       
  47 H47           -2.9310    -3.7171     4.6693 H       
  48 H48           -7.0634    -6.4779     5.7733 H       
  49 H49           -7.0186    -4.8910     6.6111 H       
  50 H50           -4.5335    -7.9603     4.8395 H       
  51 H51           -4.4175    -9.1175     2.6669 H       
  52 H52           -5.0839    -7.9391     0.6108 H       
  53 H53           -5.8646    -5.6141     0.7156 H       
  54 H54           -0.5751     0.9276     3.0175 H       
  55 H55           -3.0551     1.8111     1.5189 H       
  56 H56           -2.9575     1.9886     3.2873 H       
  57 H57           -1.7708     2.8078     2.2438 H       
  58 H58           -1.6141    -0.8555     3.9398 H       
  59 H59           -3.1673    -0.1040     3.5026 H       
  60 H60           -2.3939    -1.2599     2.3917 H       
  61 H61            0.4059     0.1217    -0.3877 H       
  62 H62            0.8343     2.0212     1.9611 H       
  63 H63            1.8438     1.8917     0.5008 H       
  64 H64            0.1769     2.5040     0.3790 H       
  65 H65            0.8606    -1.6239     1.2687 H       
  66 H66            2.2185    -0.4734     1.2455 H       
  67 H67            1.0153    -0.4038     2.5554 H       
@<TRIPOS>BOND
   1    1    2 1
   2    1    8 2
   3    1    9 am
   4    2    3 ar
   5    2    7 ar
   6    3    4 ar
   7    3   38 1
   8    4    5 ar
   9    4   39 1
  10    5    6 ar
  11    5   10 1
  12    6    7 ar
  13    6   40 1
  14    7   41 1
  15    9   32 1
  16    9   35 1
  17   10   23 1
  18   10   42 1
  19   10   43 1
  20   11   12 1
  21   11   15 1
  22   12   13 1
  23   12   44 1
  24   12   45 1
  25   13   14 1
  26   14   15 ar
  27   14   16 ar
  28   15   19 ar
  29   16   17 ar
  30   16   46 1
  31   17   18 ar
  32   17   20 1
  33   18   19 ar
  34   18   21 1
  35   19   47 1
  36   20   22 1
  37   21   22 1
  38   21   24 1
  39   21   25 1
  40   22   48 1
  41   22   49 1
  42   23   24 am
  43   23   30 1
  44   24   31 2
  45   25   26 ar
  46   25   30 ar
  47   26   27 ar
  48   26   50 1
  49   27   28 ar
  50   27   51 1
  51   28   29 ar
  52   28   52 1
  53   29   30 ar
  54   29   53 1
  55   32   33 1
  56   32   34 1
  57   32   54 1
  58   33   55 1
  59   33   56 1
  60   33   57 1
  61   34   58 1
  62   34   59 1
  63   34   60 1
  64   35   36 1
  65   35   37 1
  66   35   61 1
  67   36   62 1
  68   36   63 1
  69   36   64 1
  70   37   65 1
  71   37   66 1
  72   37   67 1

#	End of record

