#	Name: ASD05250063
#	Creating user name:	WinNT
#	Creation time:	15. 06. 2019 20:58

#	Modifying user name:	WinNT
#	Modification time:	15. 06. 2019 20:58

#	Program:	/corina/corina34_cracker 3.40 0067  02.08.2006

@<TRIPOS>MOLECULE
ASD05250063
  79   83    0    0    0
SMALL
NO_CHARGES


@<TRIPOS>ATOM
   1 C1             1.2174     1.9671     3.6034 C.3     
   2 C2             0.9074     0.5392     3.1498 C.3     
   3 N3             1.7701    -0.4003     3.8705 N.am    
   4 C4             1.6731    -1.7232     3.6319 C.2     
   5 C5             2.5605    -2.6896     4.3733 C.3     
   6 C6             2.2551    -4.0961     3.9265 C.ar    
   7 C7             2.9397    -4.6422     2.8605 C.ar    
   8 C8             1.2929    -4.8368     4.5910 C.ar    
   9 C9             1.0052    -6.1276     4.1901 C.ar    
  10 C10            1.6807    -6.6888     3.1181 C.ar    
  11 C11            2.6581    -5.9443     2.4464 C.ar    
  12 C12            3.3616    -6.5148     1.3372 C.1     
  13 C13            3.9383    -6.9825     0.4279 C.1     
  14 C14            4.6614    -7.5689    -0.7123 C.3     
  15 C15            5.6747    -6.5550    -1.2717 C.3     
  16 C16            7.0686    -7.2000    -1.1279 C.3     
  17 C17            6.7801    -8.7210    -1.0789 C.3     
  18 C18            5.4749    -8.7947    -0.2482 C.3     
  19 O19            3.7373    -7.9514    -1.7331 O.3     
  20 O20            1.3994    -7.9576     2.7237 O.3     
  21 C21            0.3731    -8.6040     3.3376 C.ar    
  22 C22            0.6166    -9.3796     4.4664 C.ar    
  23 C23           -0.4141   -10.0406     5.0990 C.ar    
  24 C24           -1.7109    -9.9362     4.6111 C.ar    
  25 C25           -1.9563    -9.1542     3.4730 C.ar    
  26 C26           -0.9135    -8.4851     2.8423 C.ar    
  27 O27           -2.8903   -10.4567     5.0115 O.3     
  28 C28           -3.8905   -10.0684     4.2130 C.2     
  29 C29           -3.4094    -9.2585     3.2298 C.2     
  30 C30           -4.1764    -8.6206     2.1515 C.2     
  31 O31           -4.6564    -7.5161     2.3182 O.2     
  32 O32           -4.3481    -9.2600     0.9770 O.3     
  33 C33           -5.1169    -8.5696    -0.0431 C.3     
  34 C34           -5.2039    -9.4443    -1.2954 C.3     
  35 C35           -5.3344   -10.4678     4.3769 C.3     
  36 C36           -5.4910   -11.3887     5.5996 C.3     
  37 C37           -6.4462   -10.6689     6.5739 C.3     
  38 C38           -7.2590    -9.7094     5.6697 C.3     
  39 C39           -6.1998    -9.2205     4.6508 C.3     
  40 O40           -5.7941   -11.1347     3.1996 O.3     
  41 O41            2.5512     2.3093     3.2213 O.3     
  42 O42            0.8715    -2.1359     2.8207 O.2     
  43 H43            0.5166     2.6576     3.1342 H       
  44 H44            1.1218     2.0329     4.6872 H       
  45 H45           -0.1368     0.3093     3.3616 H       
  46 H46            1.0888     0.4507     2.0787 H       
  47 H47            2.4112    -0.0702     4.5193 H       
  48 H48            3.6047    -2.4598     4.1615 H       
  49 H49            2.3791    -2.6012     5.4444 H       
  50 H50            3.6924    -4.0624     2.3471 H       
  51 H51            0.7644    -4.4038     5.4274 H       
  52 H52            0.2532    -6.6998     4.7130 H       
  53 H53            5.4622    -6.3553    -2.3219 H       
  54 H54            5.6310    -5.6287    -0.6988 H       
  55 H55            7.6918    -6.9575    -1.9887 H       
  56 H56            7.5472    -6.8726    -0.2050 H       
  57 H57            6.6224    -9.1168    -2.0821 H       
  58 H58            7.5886    -9.2515    -0.5758 H       
  59 H59            5.6960    -8.7248     0.8168 H       
  60 H60            4.9350    -9.7160    -0.4670 H       
  61 H61            3.0785    -8.5980    -1.4450 H       
  62 H62            1.6225    -9.4650     4.8503 H       
  63 H63           -0.2136   -10.6403     5.9745 H       
  64 H64           -1.1050    -7.8835     1.9660 H       
  65 H65           -6.1210    -8.3703     0.3313 H       
  66 H66           -4.6280    -7.6276    -0.2912 H       
  67 H67           -5.6929   -10.3864    -1.0473 H       
  68 H68           -5.7811    -8.9261    -2.0612 H       
  69 H69           -4.1999    -9.6437    -1.6698 H       
  70 H70           -5.9185   -12.3440     5.2952 H       
  71 H71           -4.5227   -11.5468     6.0745 H       
  72 H72           -7.1071   -11.3864     7.0601 H       
  73 H73           -5.8806   -10.1058     7.3164 H       
  74 H74           -8.0635   -10.2437     5.1642 H       
  75 H75           -7.6528    -8.8739     6.2485 H       
  76 H76           -5.5944    -8.4235     5.0827 H       
  77 H77           -6.6809    -8.8810     3.7336 H       
  78 H78           -5.7311   -10.6014     2.3954 H       
  79 H79            2.8166     3.2032     3.4774 H       
@<TRIPOS>BOND
   1    1    2 1
   2    1   41 1
   3    1   43 1
   4    1   44 1
   5    2    3 1
   6    2   45 1
   7    2   46 1
   8    3    4 am
   9    3   47 1
  10    4    5 1
  11    4   42 2
  12    5    6 1
  13    5   48 1
  14    5   49 1
  15    6    7 ar
  16    6    8 ar
  17    7   11 ar
  18    7   50 1
  19    8    9 ar
  20    8   51 1
  21    9   10 ar
  22    9   52 1
  23   10   11 ar
  24   10   20 1
  25   11   12 1
  26   12   13 3
  27   13   14 1
  28   14   15 1
  29   14   19 1
  30   14   18 1
  31   15   16 1
  32   15   53 1
  33   15   54 1
  34   16   17 1
  35   16   55 1
  36   16   56 1
  37   17   18 1
  38   17   57 1
  39   17   58 1
  40   18   59 1
  41   18   60 1
  42   19   61 1
  43   20   21 1
  44   21   22 ar
  45   21   26 ar
  46   22   23 ar
  47   22   62 1
  48   23   24 ar
  49   23   63 1
  50   24   25 ar
  51   24   27 1
  52   25   26 ar
  53   25   29 1
  54   26   64 1
  55   27   28 1
  56   28   29 2
  57   28   35 1
  58   29   30 1
  59   30   31 2
  60   30   32 1
  61   32   33 1
  62   33   34 1
  63   33   65 1
  64   33   66 1
  65   34   67 1
  66   34   68 1
  67   34   69 1
  68   35   36 1
  69   35   40 1
  70   35   39 1
  71   36   37 1
  72   36   70 1
  73   36   71 1
  74   37   38 1
  75   37   72 1
  76   37   73 1
  77   38   39 1
  78   38   74 1
  79   38   75 1
  80   39   76 1
  81   39   77 1
  82   40   78 1
  83   41   79 1

#	End of record

