#	Name: ASD01208906
#	Creating user name:	WinNT
#	Creation time:	15. 06. 2019 19:10

#	Modifying user name:	WinNT
#	Modification time:	15. 06. 2019 19:10

#	Program:	/corina/corina34_cracker 3.40 0067  02.08.2006

@<TRIPOS>MOLECULE
ASD01208906
  56   59    0    0    0
SMALL
NO_CHARGES


@<TRIPOS>ATOM
   1 C1            -0.3174     1.7805     1.0051 C.2     
   2 C2            -0.2271     0.4166     0.4425 C.ar    
   3 C3             1.0163    -0.2017     0.3023 C.ar    
   4 C4             1.0965    -1.4796    -0.2253 C.ar    
   5 C5            -0.0569    -2.1452    -0.6148 C.ar    
   6 C6            -1.2950    -1.5343    -0.4777 C.ar    
   7 C7            -1.3850    -0.2586     0.0554 C.ar    
   8 O8             0.6920     2.3652     1.3464 O.2     
   9 N9            -1.5186     2.3778     1.1344 N.am    
  10 O10           -2.4215    -2.1903    -0.8616 O.3     
  11 C11           -2.9887    -1.8440    -2.0461 C.ar    
  12 C12           -4.1604    -2.4644    -2.4607 C.ar    
  13 C13           -4.7389    -2.1157    -3.6620 C.ar    
  14 C14           -4.1461    -1.1371    -4.4623 C.ar    
  15 C15           -2.9687    -0.5155    -4.0418 C.ar    
  16 C16           -2.3988    -0.8662    -2.8371 C.ar    
  17 O17           -4.3018     0.1619    -6.6193 O.3     
  18 C18           -4.7630    -0.7607    -5.7512 C.2     
  19 N19           -5.8619    -1.2627    -6.2647 N.2     
  20 N20           -6.0973    -0.6986    -7.3968 N.2     
  21 C21           -5.1663     0.1782    -7.6490 C.2     
  22 C22           -5.0754     1.0522    -8.8733 C.3     
  23 O23            2.3069    -2.0824    -0.3621 O.3     
  24 C24            3.5908    -4.1299    -0.3675 C.3     
  25 C25            2.3099    -3.4326    -0.8302 C.3     
  26 C26            2.2475    -3.4427    -2.3588 C.3     
  27 O27            4.7202    -3.5121    -0.9879 O.3     
  28 C28            5.9740    -4.0914    -0.6212 C.3     
  29 S29           -3.0587     4.5239     1.8787 S.3     
  30 C30           -1.6032     3.6547     1.6611 C.2     
  31 N31           -0.5864     4.3606     2.0599 N.2     
  32 C32           -0.8348     5.5555     2.5362 C.2     
  33 C33           -2.1608     5.8873     2.5414 C.2     
  34 C34           -2.7200     7.1225     3.0021 C.1     
  35 N35           -3.1636     8.1023     3.3676 N.1     
  36 H36            1.9147     0.3159     0.6046 H       
  37 H37            0.0093    -3.1416    -1.0262 H       
  38 H38           -2.3495     0.2144     0.1662 H       
  39 H39           -2.3238     1.9128     0.8583 H       
  40 H40           -4.6184    -3.2212    -1.8411 H       
  41 H41           -5.6495    -2.5990    -3.9840 H       
  42 H42           -2.5070     0.2416    -4.6583 H       
  43 H43           -1.4901    -0.3831    -2.5094 H       
  44 H44           -4.5005     0.5389    -9.6442 H       
  45 H45           -6.0781     1.2607    -9.2462 H       
  46 H46           -4.5816     1.9890    -8.6151 H       
  47 H47            3.6797    -4.0451     0.7156 H       
  48 H48            3.5530    -5.1826    -0.6476 H       
  49 H49            1.4442    -3.9586    -0.4277 H       
  50 H50            2.2498    -4.4725    -2.7158 H       
  51 H51            1.3350    -2.9459    -2.6885 H       
  52 H52            3.1132    -2.9166    -2.7613 H       
  53 H53            6.1123    -4.0058     0.4566 H       
  54 H54            5.9856    -5.1433    -0.9066 H       
  55 H55            6.7804    -3.5669    -1.1338 H       
  56 H56           -0.0610     6.2192     2.8928 H       
@<TRIPOS>BOND
   1    1    2 1
   2    1    8 2
   3    1    9 am
   4    2    3 ar
   5    2    7 ar
   6    3    4 ar
   7    3   36 1
   8    4    5 ar
   9    4   23 1
  10    5    6 ar
  11    5   37 1
  12    6    7 ar
  13    6   10 1
  14    7   38 1
  15    9   30 1
  16    9   39 1
  17   10   11 1
  18   11   12 ar
  19   11   16 ar
  20   12   13 ar
  21   12   40 1
  22   13   14 ar
  23   13   41 1
  24   14   15 ar
  25   14   18 1
  26   15   16 ar
  27   15   42 1
  28   16   43 1
  29   17   18 1
  30   17   21 1
  31   18   19 2
  32   19   20 1
  33   20   21 2
  34   21   22 1
  35   22   44 1
  36   22   45 1
  37   22   46 1
  38   23   25 1
  39   24   25 1
  40   24   27 1
  41   24   47 1
  42   24   48 1
  43   25   26 1
  44   25   49 1
  45   26   50 1
  46   26   51 1
  47   26   52 1
  48   27   28 1
  49   28   53 1
  50   28   54 1
  51   28   55 1
  52   29   30 1
  53   29   33 1
  54   30   31 2
  55   31   32 1
  56   32   33 2
  57   32   56 1
  58   33   34 1
  59   34   35 3

#	End of record

