#	Name: ASD01817061
#	Creating user name:	WinNT
#	Creation time:	15. 06. 2019 19:36

#	Modifying user name:	WinNT
#	Modification time:	15. 06. 2019 19:36

#	Program:	/corina/corina34_cracker 3.40 0067  02.08.2006

@<TRIPOS>MOLECULE
ASD01817061
  57   61    0    0    0
SMALL
NO_CHARGES


@<TRIPOS>ATOM
   1 C1            -0.0168     1.3857     0.0097 C.ar    
   2 C2             0.0021    -0.0041     0.0020 C.ar    
   3 C3             1.1985    -0.6908    -0.0131 C.ar    
   4 C4             2.4008     0.0090    -0.0208 C.ar    
   5 C5             2.3830     1.4151    -0.0131 C.ar    
   6 C6             1.1633     2.0979     0.0022 C.ar    
   7 N7             3.7216    -0.3803    -0.0347 N.pl3   
   8 C8             4.5323     0.7236    -0.0360 C.2     
   9 C9             3.7859     1.8386    -0.0234 C.2     
  10 C10            4.1899    -1.7684    -0.0456 C.3     
  11 C11            4.2202    -2.2772    -1.4638 C.ar    
  12 C12            5.3591    -2.1323    -2.2325 C.ar    
  13 N13            5.3982    -2.5731    -3.4742 N.ar    
  14 C14            4.3536    -3.1696    -4.0334 C.ar    
  15 C15            3.1723    -3.3485    -3.3157 C.ar    
  16 C16            3.1058    -2.9011    -2.0084 C.ar    
  17 C17            4.4433    -3.6496    -5.4340 C.2     
  18 C18            3.3948    -4.2081    -6.1920 C.2     
  19 N19            3.8637    -4.5063    -7.3743 N.2     
  20 N20            5.2178    -4.1535    -7.4184 N.pl3   
  21 C21            5.5552    -3.6255    -6.2258 C.2     
  22 C22            6.1126    -4.3239    -8.5658 C.3     
  23 F23           -1.1624    -0.6890     0.0099 F       
  24 F24            1.1413     3.4487     0.0101 F       
  25 S25            4.3799     3.4975    -0.0203 S.o2    
  26 O26            3.6929     4.1137     1.0602 O.2     
  27 O27            5.7944     3.3632    -0.0078 O.2     
  28 C28            3.8194     4.1819    -1.6040 C.3     
  29 C29            4.2720     5.6146    -1.7204 C.2     
  30 O30            4.9097     6.1239    -0.8233 O.2     
  31 N31            3.9679     6.3300    -2.8214 N.am    
  32 C32            4.3869     7.6563    -2.9291 C.2     
  33 C33            5.1357     8.3942    -1.9742 C.2     
  34 C34            5.2814     9.6119    -2.5443 C.2     
  35 O35            4.6591     9.5567    -3.7307 O.3     
  36 N36            4.1738     8.4676    -3.9317 N.2     
  37 C37            6.0020    10.7995    -1.9598 C.3     
  38 H38           -0.9608     1.9101     0.0170 H       
  39 H39            1.2017    -1.7708    -0.0185 H       
  40 H40            5.6120     0.7002    -0.0459 H       
  41 H41            5.1925    -1.8170     0.3793 H       
  42 H42            3.5138    -2.3846     0.5471 H       
  43 H43            6.2290    -1.6511    -1.8104 H       
  44 H44            2.3224    -3.8341    -3.7722 H       
  45 H45            2.2041    -3.0261    -1.4273 H       
  46 H46            2.3807    -4.3629    -5.8543 H       
  47 H47            6.5305    -3.2566    -5.9446 H       
  48 H48            6.0798    -3.4297    -9.1882 H       
  49 H49            7.1311    -4.4832    -8.2119 H       
  50 H50            5.7925    -5.1859    -9.1513 H       
  51 H51            4.2434     3.5994    -2.4219 H       
  52 H52            2.7314     4.1394    -1.6535 H       
  53 H53            3.4579     5.9227    -3.5389 H       
  54 H54            5.5031     8.0604    -1.0150 H       
  55 H55            7.0490    10.7739    -2.2618 H       
  56 H56            5.5415    11.7184    -2.3225 H       
  57 H57            5.9365    10.7650    -0.8723 H       
@<TRIPOS>BOND
   1    1    2 ar
   2    1    6 ar
   3    1   38 1
   4    2    3 ar
   5    2   23 1
   6    3    4 ar
   7    3   39 1
   8    4    5 ar
   9    4    7 1
  10    5    6 ar
  11    5    9 1
  12    6   24 1
  13    7    8 1
  14    7   10 1
  15    8    9 2
  16    8   40 1
  17    9   25 1
  18   10   11 1
  19   10   41 1
  20   10   42 1
  21   11   12 ar
  22   11   16 ar
  23   12   13 ar
  24   12   43 1
  25   13   14 ar
  26   14   15 ar
  27   14   17 1
  28   15   16 ar
  29   15   44 1
  30   16   45 1
  31   17   18 1
  32   17   21 2
  33   18   19 2
  34   18   46 1
  35   19   20 1
  36   20   21 1
  37   20   22 1
  38   21   47 1
  39   22   48 1
  40   22   49 1
  41   22   50 1
  42   25   26 2
  43   25   27 2
  44   25   28 1
  45   28   29 1
  46   28   51 1
  47   28   52 1
  48   29   30 2
  49   29   31 am
  50   31   32 1
  51   31   53 1
  52   32   33 1
  53   32   36 2
  54   33   34 2
  55   33   54 1
  56   34   35 1
  57   34   37 1
  58   35   36 1
  59   37   55 1
  60   37   56 1
  61   37   57 1

#	End of record

