#	Name: ASD01917100
#	Creating user name:	WinNT
#	Creation time:	15. 06. 2019 20:08

#	Modifying user name:	WinNT
#	Modification time:	15. 06. 2019 20:08

#	Program:	/corina/corina34_cracker 3.40 0067  02.08.2006

@<TRIPOS>MOLECULE
ASD01917100
  38   40    0    0    0
SMALL
NO_CHARGES


@<TRIPOS>ATOM
   1 C1            -0.0663     1.4719    -0.1214 C.ar    
   2 C2            -0.0189    -0.0055    -0.0551 C.2     
   3 N3            -0.9975    -0.7941     0.3363 N.2     
   4 C4            -0.6028    -2.0704     0.2681 C.2     
   5 N5             0.6373    -2.1114    -0.1693 N.2     
   6 N6             1.0362    -0.7834    -0.3917 N.pl3   
   7 C7             2.3397    -0.3294    -0.8825 C.3     
   8 C8             2.3259    -0.2975    -2.3890 C.2     
   9 O9             3.4206     0.0902    -3.0622 O.3     
  10 O10            1.3294    -0.6207    -2.9911 O.2     
  11 C11           -1.4296    -3.2490     0.6280 C.ar    
  12 C12            0.8401     2.1653    -0.9235 C.ar    
  13 C13           -0.9022    -4.5337     0.5133 C.ar    
  14 C14           -1.6742    -5.6267     0.8494 C.ar    
  15 C15           -2.9720    -5.4484     1.3006 C.ar    
  16 C16           -3.5004    -4.1728     1.4157 C.ar    
  17 C17           -2.7334    -3.0739     1.0872 C.ar    
  18 C18            0.7940     3.5434    -0.9837 C.ar    
  19 C19           -0.1500     4.2406    -0.2498 C.ar    
  20 C20           -1.0570     3.5564     0.5522 C.ar    
  21 C21           -1.0213     2.1747     0.6137 C.ar    
  22 F22           -0.1900     5.5896    -0.3123 F       
  23 O23           -1.9826     4.2451     1.2716 O.3     
  24 C24           -2.8828     3.4781     2.0738 C.3     
  25 F25           -3.7245    -6.5214     1.6287 F       
  26 H26            2.5439     0.6705    -0.4997 H       
  27 H27            3.1154    -1.0147    -0.5407 H       
  28 H28            3.3638     0.0944    -4.0275 H       
  29 H29            1.5779     1.6240    -1.4970 H       
  30 H30            0.1092    -4.6736     0.1614 H       
  31 H31           -1.2663    -6.6228     0.7605 H       
  32 H32           -4.5126    -4.0382     1.7674 H       
  33 H33           -3.1461    -2.0800     1.1772 H       
  34 H34            1.4966     4.0791    -1.6049 H       
  35 H35           -1.7251     1.6421     1.2361 H       
  36 H36           -3.4516     2.8016     1.4359 H       
  37 H37           -2.3163     2.8993     2.8033 H       
  38 H38           -3.5670     4.1484     2.5940 H       
@<TRIPOS>BOND
   1    1    2 1
   2    1   12 ar
   3    1   21 ar
   4    2    3 2
   5    2    6 1
   6    3    4 1
   7    4    5 2
   8    4   11 1
   9    5    6 1
  10    6    7 1
  11    7    8 1
  12    7   26 1
  13    7   27 1
  14    8    9 1
  15    8   10 2
  16    9   28 1
  17   11   13 ar
  18   11   17 ar
  19   12   18 ar
  20   12   29 1
  21   13   14 ar
  22   13   30 1
  23   14   15 ar
  24   14   31 1
  25   15   16 ar
  26   15   25 1
  27   16   17 ar
  28   16   32 1
  29   17   33 1
  30   18   19 ar
  31   18   34 1
  32   19   20 ar
  33   19   22 1
  34   20   21 ar
  35   20   23 1
  36   21   35 1
  37   23   24 1
  38   24   36 1
  39   24   37 1
  40   24   38 1

#	End of record

