#	Name: ASD03091610
#	Creating user name:	WinNT
#	Creation time:	15. 06. 2019 20:31

#	Modifying user name:	WinNT
#	Modification time:	15. 06. 2019 20:31

#	Program:	/corina/corina34_cracker 3.40 0067  02.08.2006

@<TRIPOS>MOLECULE
ASD03091610
  21   23    0    0    0
SMALL
NO_CHARGES


@<TRIPOS>ATOM
   1 O1            -0.0174     1.4352     0.0099 O.3     
   2 C2             0.0021    -0.0041     0.0020 C.3     
   3 O3             1.2407    -0.3286    -0.6556 O.3     
   4 C4             2.0710     0.7272    -0.4126 C.ar    
   5 C5             1.2950     1.8186    -0.0005 C.ar    
   6 C6             3.4401     0.8520    -0.5090 C.ar    
   7 C7             4.0623     2.0641    -0.1958 C.ar    
   8 C8             3.2923     3.1586     0.2178 C.ar    
   9 C9             1.8864     3.0063     0.3072 C.ar    
  10 C10            4.0715     4.2925     0.4926 C.2     
  11 C11            5.3902     4.1439     0.3172 C.2     
  12 S12            5.7632     2.5165    -0.2231 S.3     
  13 C13            6.3862     5.1963     0.5452 C.2     
  14 O14            6.0322     6.2973     0.9208 O.2     
  15 O15            7.6946     4.9427     0.3384 O.3     
  16 H16           -0.0035    -0.3924     1.0205 H       
  17 H17           -0.8446    -0.3951    -0.5623 H       
  18 H18            4.0354     0.0091    -0.8277 H       
  19 H19            1.2775     3.8403     0.6234 H       
  20 H20            3.6361     5.2238     0.8235 H       
  21 H21            8.3134     5.6675     0.5020 H       
@<TRIPOS>BOND
   1    1    2 1
   2    1    5 1
   3    2    3 1
   4    2   16 1
   5    2   17 1
   6    3    4 1
   7    4    5 ar
   8    4    6 ar
   9    5    9 ar
  10    6    7 ar
  11    6   18 1
  12    7    8 ar
  13    7   12 1
  14    8    9 ar
  15    8   10 1
  16    9   19 1
  17   10   11 2
  18   10   20 1
  19   11   12 1
  20   11   13 1
  21   13   14 2
  22   13   15 1
  23   15   21 1

#	End of record

