#	Name: ASD05060020
#	Creating user name:	WinNT
#	Creation time:	15. 06. 2019 20:56

#	Modifying user name:	WinNT
#	Modification time:	15. 06. 2019 20:56

#	Program:	/corina/corina34_cracker 3.40 0067  02.08.2006

@<TRIPOS>MOLECULE
ASD05060020
 128  127    0    0    0
SMALL
NO_CHARGES


@<TRIPOS>ATOM
   1 C1             0.0728     1.2941    -0.4750 C.2     
   2 O2             0.1126     0.0879    -0.5949 O.2     
   3 N3             2.4723     1.2067    -0.1015 N.3     
   4 C4             1.3514     2.0912    -0.4470 C.3     
   5 C5             1.5964     2.7107    -1.8244 C.3     
   6 O6             2.7444     3.5599    -1.7673 O.3     
   7 C7            -3.4851     2.0270    -0.8840 C.2     
   8 O8            -3.2706     3.1862    -1.1692 O.2     
   9 N9            -1.1152     1.9222    -0.3723 N.am    
  10 C10           -2.3585     1.1479    -0.4055 C.3     
  11 C11           -2.6756     0.6319     0.9995 C.3     
  12 C12           -1.5937    -0.3582     1.4354 C.3     
  13 C13           -1.8419    -0.7790     2.8853 C.3     
  14 C14           -1.6374    -1.5919     0.5317 C.3     
  15 C15           -7.1357     1.8461    -0.9392 C.2     
  16 O16           -7.1525     0.8501    -0.2475 O.2     
  17 N17           -4.7310     1.5251    -0.9951 N.am    
  18 C18           -5.8262     2.3797    -1.4602 C.3     
  19 C19           -5.8516     2.3888    -2.9900 C.3     
  20 C20           -4.5741     3.0451    -3.5174 C.3     
  21 C21           -4.5995     3.0542    -5.0471 C.3     
  22 C22           -3.3220     3.7105    -5.5745 C.3     
  23 N23           -3.3464     3.7192    -7.0433 N.3     
  24 C24          -10.6801     2.3969    -1.6443 C.2     
  25 O25          -10.4379     3.0766    -2.6191 O.2     
  26 N26           -8.2883     2.4758    -1.2420 N.am    
  27 C27           -9.5613     1.9571    -0.7355 C.3     
  28 C28           -9.8074     2.4975     0.6746 C.3     
  29 C29           -9.8598     4.0260     0.6330 C.3     
  30 C30          -10.2291     4.5615     2.0179 C.3     
  31 C31           -8.6715     2.0510     1.5972 C.3     
  32 C32          -13.5156     3.8705    -1.6333 C.2     
  33 O33          -12.9823     4.3336    -0.6474 O.2     
  34 N34          -11.9498     2.0347    -1.3739 N.am    
  35 C35          -13.0492     2.5513    -2.1929 C.3     
  36 C36          -14.2084     1.5529    -2.1790 C.3     
  37 C37          -13.7827     0.2794    -2.8632 C.2     
  38 O38          -12.6431     0.1494    -3.2429 O.2     
  39 O39          -14.6697    -0.7105    -3.0507 O.3     
  40 C40          -16.4135     6.0532    -2.0818 C.2     
  41 O41          -16.9994     5.2306    -2.7532 O.2     
  42 N42          -14.5255     4.5357    -2.2285 N.am    
  43 C43          -14.9790     5.8181    -1.6845 C.3     
  44 C44          -14.1050     6.9450    -2.2388 C.3     
  45 C45          -18.7237     8.8863    -2.0823 C.2     
  46 O46          -17.8473     9.6727    -1.7920 O.2     
  47 N47          -17.0454     7.1777    -1.6909 N.am    
  48 C48          -18.4400     7.4062    -2.0771 C.3     
  49 C49          -19.3665     6.7128    -1.0763 C.3     
  50 C50          -19.1662     5.1983    -1.1605 C.3     
  51 C51          -19.9993     4.5126    -0.0758 C.3     
  52 C52          -19.6121     4.7007    -2.5369 C.3     
  53 C53          -20.5928    11.2210    -1.0224 C.2     
  54 O54          -20.6203    10.4194    -0.1187 O.2     
  55 N55          -19.9513     9.3360    -2.4096 N.am    
  56 C56          -20.2271    10.7748    -2.4146 C.3     
  57 C57          -21.3891    11.0680    -3.3659 C.3     
  58 C58          -20.9788    10.7358    -4.7774 C.2     
  59 O59          -19.8707    10.3083    -4.9997 O.2     
  60 O60          -21.8443    10.9147    -5.7876 O.3     
  61 O61          -20.8881    12.5090    -0.7863 O.3     
  62 H62            2.3659     0.8354     0.8306 H       
  63 H63            2.5687     0.4641    -0.7778 H       
  64 H64            1.2700     2.8825     0.2981 H       
  65 H65            1.7661     1.9188    -2.5539 H       
  66 H66            0.7257     3.2962    -2.1195 H       
  67 H67            2.9595     3.9874    -2.6076 H       
  68 H68           -1.1471     2.8869    -0.2764 H       
  69 H69           -2.2426     0.3037    -1.0851 H       
  70 H70           -2.7038     1.4695     1.6964 H       
  71 H71           -3.6442     0.1321     0.9929 H       
  72 H72           -0.6150     0.1153     1.3569 H       
  73 H73           -2.8206    -1.2524     2.9638 H       
  74 H74           -1.0711    -1.4844     3.1959 H       
  75 H75           -1.8108     0.0999     3.5292 H       
  76 H76           -1.4606    -1.2921    -0.5013 H       
  77 H77           -0.8666    -2.2973     0.8423 H       
  78 H78           -2.6161    -2.0654     0.6101 H       
  79 H79           -4.9025     0.5981    -0.7670 H       
  80 H80           -5.6758     3.3950    -1.0933 H       
  81 H81           -5.9128     1.3648    -3.3584 H       
  82 H82           -6.7186     2.9517    -3.3356 H       
  83 H83           -4.5129     4.0691    -3.1489 H       
  84 H84           -3.7071     2.4822    -3.1717 H       
  85 H85           -4.6607     2.0302    -5.4156 H       
  86 H86           -5.4665     3.6171    -5.3928 H       
  87 H87           -3.2608     4.7345    -5.2061 H       
  88 H88           -2.4550     3.1476    -5.2289 H       
  89 H89           -2.5126     4.1479    -7.4162 H       
  90 H90           -3.4677     2.7865    -7.4085 H       
  91 H91           -8.2748     3.2725    -1.7952 H       
  92 H92           -9.5239     0.8682    -0.7059 H       
  93 H93          -10.7546     2.1115     1.0514 H       
  94 H94           -8.8844     4.4152     0.3412 H       
  95 H95          -10.6095     4.3443    -0.0913 H       
  96 H96          -10.2664     5.6504     1.9883 H       
  97 H97          -11.2045     4.1722     2.3097 H       
  98 H98           -9.4794     4.2432     2.7423 H       
  99 H99           -7.7243     2.4370     1.2204 H       
 100 H100          -8.8468     2.4360     2.6018 H       
 101 H101          -8.6341     0.9621     1.6268 H       
 102 H102         -12.1358     1.4321    -0.6369 H       
 103 H103         -12.7038     2.6928    -3.2171 H       
 104 H104         -14.4883     1.3355    -1.1482 H       
 105 H105         -15.0622     1.9800    -2.7050 H       
 106 H106         -14.3501    -1.5082    -3.4942 H       
 107 H107         -14.9520     4.1653    -3.0170 H       
 108 H108         -14.9014     5.7995    -0.5974 H       
 109 H109         -13.0674     6.7749    -1.9515 H       
 110 H110         -14.1826     6.9636    -3.3259 H       
 111 H111         -14.4424     7.8991    -1.8341 H       
 112 H112         -16.5768     7.8357    -1.1539 H       
 113 H113         -18.6123     6.9998    -3.0737 H       
 114 H114         -19.1332     7.0547    -0.0680 H       
 115 H115         -20.4027     6.9559    -1.3117 H       
 116 H116         -18.1124     4.9625    -1.0127 H       
 117 H117         -21.0532     4.7485    -0.2236 H       
 118 H118         -19.8566     3.4337    -0.1358 H       
 119 H119         -19.6817     4.8672     0.9048 H       
 120 H120         -19.0185     5.1892    -3.3097 H       
 121 H121         -19.4693     3.6217    -2.5969 H       
 122 H122         -20.6659     4.9365    -2.6847 H       
 123 H123         -20.6523     8.7070    -2.6418 H       
 124 H124         -19.3401    11.3136    -2.7476 H       
 125 H125         -22.2502    10.4614    -3.0855 H       
 126 H126         -21.6525    12.1238    -3.3030 H       
 127 H127         -21.5357    10.6876    -6.6755 H       
 128 H128         -21.1167    12.7475     0.1225 H       
@<TRIPOS>BOND
   1    1    2 2
   2    1    4 1
   3    1    9 am
   4    3    4 1
   5    3   62 1
   6    3   63 1
   7    4    5 1
   8    4   64 1
   9    5    6 1
  10    5   65 1
  11    5   66 1
  12    6   67 1
  13    7    8 2
  14    7   10 1
  15    7   17 am
  16    9   10 1
  17    9   68 1
  18   10   11 1
  19   10   69 1
  20   11   12 1
  21   11   70 1
  22   11   71 1
  23   12   13 1
  24   12   14 1
  25   12   72 1
  26   13   73 1
  27   13   74 1
  28   13   75 1
  29   14   76 1
  30   14   77 1
  31   14   78 1
  32   15   16 2
  33   15   18 1
  34   15   26 am
  35   17   18 1
  36   17   79 1
  37   18   19 1
  38   18   80 1
  39   19   20 1
  40   19   81 1
  41   19   82 1
  42   20   21 1
  43   20   83 1
  44   20   84 1
  45   21   22 1
  46   21   85 1
  47   21   86 1
  48   22   23 1
  49   22   87 1
  50   22   88 1
  51   23   89 1
  52   23   90 1
  53   24   25 2
  54   24   27 1
  55   24   34 am
  56   26   27 1
  57   26   91 1
  58   27   28 1
  59   27   92 1
  60   28   29 1
  61   28   31 1
  62   28   93 1
  63   29   30 1
  64   29   94 1
  65   29   95 1
  66   30   96 1
  67   30   97 1
  68   30   98 1
  69   31   99 1
  70   31  100 1
  71   31  101 1
  72   32   33 2
  73   32   35 1
  74   32   42 am
  75   34   35 1
  76   34  102 1
  77   35   36 1
  78   35  103 1
  79   36   37 1
  80   36  104 1
  81   36  105 1
  82   37   38 2
  83   37   39 1
  84   39  106 1
  85   40   41 2
  86   40   43 1
  87   40   47 am
  88   42   43 1
  89   42  107 1
  90   43   44 1
  91   43  108 1
  92   44  109 1
  93   44  110 1
  94   44  111 1
  95   45   46 2
  96   45   48 1
  97   45   55 am
  98   47   48 1
  99   47  112 1
 100   48   49 1
 101   48  113 1
 102   49   50 1
 103   49  114 1
 104   49  115 1
 105   50   51 1
 106   50   52 1
 107   50  116 1
 108   51  117 1
 109   51  118 1
 110   51  119 1
 111   52  120 1
 112   52  121 1
 113   52  122 1
 114   53   54 2
 115   53   56 1
 116   53   61 1
 117   55   56 1
 118   55  123 1
 119   56   57 1
 120   56  124 1
 121   57   58 1
 122   57  125 1
 123   57  126 1
 124   58   59 2
 125   58   60 1
 126   60  127 1
 127   61  128 1

#	End of record

