#	Name: ASD03700007
#	Creating user name:	WinNT
#	Creation time:	15. 06. 2019 20:43

#	Modifying user name:	WinNT
#	Modification time:	15. 06. 2019 20:43

#	Program:	/corina/corina34_cracker 3.40 0067  02.08.2006

@<TRIPOS>MOLECULE
ASD03700007
  42   45    0    0    0
SMALL
NO_CHARGES


@<TRIPOS>ATOM
   1 C1            -0.0167     1.3767     0.0096 C.ar    
   2 C2             0.0021    -0.0041     0.0020 C.ar    
   3 C3             1.2075    -0.6823    -0.0127 C.ar    
   4 C4             2.4024     0.0161    -0.0199 C.ar    
   5 C5             2.3995     1.3952    -0.0124 C.ar    
   6 C6             1.1866     2.0880     0.0019 C.ar    
   7 C7             1.1756     3.5626     0.0095 C.2     
   8 N8             0.0471     4.2030     0.0233 N.2     
   9 N9             0.0366     5.6039     0.0304 N.am    
  10 C10           -1.1355     6.2690     0.0447 C.2     
  11 C11           -1.1467     7.7760     0.0524 C.3     
  12 O12           -2.1815     5.6546     0.0514 O.2     
  13 N13           -2.5314     8.2539     0.0678 N.pl3   
  14 C14           -4.5609     8.9553    -0.5376 C.ar    
  15 C15           -3.2905     8.5144     1.1798 C.2     
  16 N16           -4.4833     8.9266     0.8148 N.2     
  17 C17           -5.3524     9.2324    -2.7792 C.ar    
  18 C18           -4.1200     8.8253    -3.2704 C.ar    
  19 C19           -3.1057     8.4694    -2.4060 C.ar    
  20 C20           -3.3156     8.5325    -1.0358 C.ar    
  21 C21           -5.5760     9.3073    -1.4336 C.ar    
  22 C22           -2.8381     8.3559     2.5699 C.2     
  23 O23           -1.7445     7.6792     2.9743 O.3     
  24 C24           -1.6465     7.7486     4.3105 C.2     
  25 C25           -2.6807     8.4743     4.7837 C.2     
  26 C26           -3.4479     8.8726     3.6741 C.2     
  27 Cl27          -1.5303     2.2266     0.0214 Cl      
  28 H28           -0.9265    -0.5556     0.0079 H       
  29 H29            1.2163    -1.7622    -0.0182 H       
  30 H30            3.3396    -0.5204    -0.0310 H       
  31 H31            3.3330     1.9383    -0.0174 H       
  32 H32            2.1068     4.1096     0.0035 H       
  33 H33            0.8730     6.0952     0.0251 H       
  34 H34           -0.6273     8.1386     0.9394 H       
  35 H35           -0.6439     8.1476    -0.8404 H       
  36 H36           -6.1376     9.5082    -3.4675 H       
  37 H37           -3.9593     8.7710    -4.3370 H       
  38 H38           -2.1523     8.1426    -2.7941 H       
  39 H39           -6.5348     9.6374    -1.0622 H       
  40 H40           -0.8684     7.2977     4.9086 H       
  41 H41           -2.8799     8.7085     5.8190 H       
  42 H42           -4.3473     9.4702     3.6934 H       
@<TRIPOS>BOND
   1    1    2 ar
   2    1    6 ar
   3    1   27 1
   4    2    3 ar
   5    2   28 1
   6    3    4 ar
   7    3   29 1
   8    4    5 ar
   9    4   30 1
  10    5    6 ar
  11    5   31 1
  12    6    7 1
  13    7    8 2
  14    7   32 1
  15    8    9 1
  16    9   10 am
  17    9   33 1
  18   10   11 1
  19   10   12 2
  20   11   13 1
  21   11   34 1
  22   11   35 1
  23   13   15 1
  24   13   20 1
  25   14   16 1
  26   14   21 ar
  27   14   20 ar
  28   15   16 2
  29   15   22 1
  30   17   18 ar
  31   17   21 ar
  32   17   36 1
  33   18   19 ar
  34   18   37 1
  35   19   20 ar
  36   19   38 1
  37   21   39 1
  38   22   23 1
  39   22   26 2
  40   23   24 1
  41   24   25 2
  42   24   40 1
  43   25   26 1
  44   25   41 1
  45   26   42 1

#	End of record

