#	Name: ASD07300989
#	Creating user name:	WinNT
#	Creation time:	15. 06. 2019 21:10

#	Modifying user name:	WinNT
#	Modification time:	15. 06. 2019 21:10

#	Program:	/corina/corina34_cracker 3.40 0067  02.08.2006

@<TRIPOS>MOLECULE
ASD07300989
  26   27    0    0    0
SMALL
NO_CHARGES


@<TRIPOS>ATOM
   1 C1            -0.0169     1.4677     0.0592 C.2     
   2 C2             0.0021    -0.0041     0.0008 C.2     
   3 C3             1.2725    -0.6340    -0.0643 C.2     
   4 C4             2.3712     0.1569    -0.0681 C.2     
   5 N5             2.2571     1.5074    -0.0109 N.pl3   
   6 N6             1.1311     2.1171     0.0483 N.2     
   7 C7            -1.2899     2.1983     0.1223 C.2     
   8 O8            -1.2919     3.4102     0.1701 O.2     
   9 C9             3.4274     2.2735    -0.0176 C.ar    
  10 C10            3.3530     3.6576    -0.1138 C.ar    
  11 C11            4.5102     4.4108    -0.1195 C.ar    
  12 C12            5.7425     3.7890    -0.0297 C.ar    
  13 C13            5.8201     2.4118     0.0662 C.ar    
  14 C14            4.6663     1.6526     0.0778 C.ar    
  15 C15            4.4306     5.9120    -0.2243 C.3     
  16 F16            4.3545     6.4657     1.0582 F       
  17 F17            5.5715     6.3953    -0.8739 F       
  18 F18            3.2918     6.2688    -0.9545 F       
  19 O19           -1.0310    -0.6545     0.0085 O.2     
  20 H20            1.3597    -1.7095    -0.1089 H       
  21 H21            3.3516    -0.2934    -0.1169 H       
  22 H22           -2.2240     1.6562     0.1262 H       
  23 H23            2.3912     4.1437    -0.1843 H       
  24 H24            6.6461     4.3805    -0.0348 H       
  25 H25            6.7838     1.9294     0.1362 H       
  26 H26            4.7274     0.5773     0.1572 H       
@<TRIPOS>BOND
   1    1    2 1
   2    1    6 2
   3    1    7 1
   4    2    3 1
   5    2   19 2
   6    3    4 2
   7    3   20 1
   8    4    5 1
   9    4   21 1
  10    5    6 1
  11    5    9 1
  12    7    8 2
  13    7   22 1
  14    9   10 ar
  15    9   14 ar
  16   10   11 ar
  17   10   23 1
  18   11   12 ar
  19   11   15 1
  20   12   13 ar
  21   12   24 1
  22   13   14 ar
  23   13   25 1
  24   14   26 1
  25   15   16 1
  26   15   17 1
  27   15   18 1

#	End of record

