#	Name: ASD01911566
#	Creating user name:	WinNT
#	Creation time:	15. 06. 2019 19:58

#	Modifying user name:	WinNT
#	Modification time:	15. 06. 2019 19:58

#	Program:	/corina/corina34_cracker 3.40 0067  02.08.2006

@<TRIPOS>MOLECULE
ASD01911566
  43   45    0    0    0
SMALL
NO_CHARGES


@<TRIPOS>ATOM
   1 N1            -0.0096     1.2558    -0.4765 N.am    
   2 C2             0.0021    -0.0041     0.0020 C.2     
   3 C3            -1.2508    -0.7543     0.1205 C.2     
   4 C4            -1.3862    -2.1135     0.0310 C.2     
   5 S5            -2.8471    -0.0659     0.4110 S.3     
   6 C6            -3.5481    -1.6813     0.3771 C.2     
   7 N7            -2.6014    -2.5626     0.1691 N.2     
   8 C8            -4.9363    -1.9846     0.5542 C.1     
   9 C9            -6.0745    -2.2333     0.6993 C.1     
  10 C10           -7.4627    -2.5366     0.8764 C.ar    
  11 C11           -7.9040    -3.8627     0.8289 C.ar    
  12 C12           -9.2421    -4.1468     1.0008 C.ar    
  13 C13          -10.1481    -3.1233     1.2194 C.ar    
  14 C14           -9.7192    -1.8086     1.2677 C.ar    
  15 C15           -8.3830    -1.5089     1.1033 C.ar    
  16 O16            1.0535    -0.5186     0.3357 O.2     
  17 C17           -9.7198    -5.5752     0.9500 C.3     
  18 C18           -1.2456     1.8411    -1.0137 C.3     
  19 C19           -0.9684     2.3690    -2.4248 C.3     
  20 C20            0.2170     3.3359    -2.3797 C.3     
  21 C21            1.4628     2.5957    -1.8875 C.3     
  22 C22            1.2118     2.0723    -0.4652 C.3     
  23 C23            0.4750     3.8918    -3.7816 C.3     
  24 H24           -0.5446    -2.7679    -0.1422 H       
  25 H25           -7.1984    -4.6622     0.6577 H       
  26 H26          -11.1951    -3.3520     1.3526 H       
  27 H27          -10.4320    -1.0154     1.4387 H       
  28 H28           -8.0497    -0.4823     1.1413 H       
  29 H29           -9.6866    -6.0052     1.9511 H       
  30 H30          -10.7434    -5.6029     0.5764 H       
  31 H31           -9.0748    -6.1506     0.2859 H       
  32 H32           -2.0232     1.0784    -1.0551 H       
  33 H33           -1.5696     2.6618    -0.3737 H       
  34 H34           -0.7325     1.5348    -3.0855 H       
  35 H35           -1.8497     2.8910    -2.7976 H       
  36 H36           -0.0098     4.1570    -1.6997 H       
  37 H37            1.6758     1.7593    -2.5533 H       
  38 H38            2.3120     3.2790    -1.8779 H       
  39 H39            1.0893     2.9133     0.2173 H       
  40 H40            2.0559     1.4605    -0.1467 H       
  41 H41           -0.4118     4.4201    -4.1318 H       
  42 H42            1.3193     4.5805    -3.7497 H       
  43 H43            0.7013     3.0709    -4.4620 H       
@<TRIPOS>BOND
   1    1    2 am
   2    1   18 1
   3    1   22 1
   4    2    3 1
   5    2   16 2
   6    3    4 2
   7    3    5 1
   8    4    7 1
   9    4   24 1
  10    5    6 1
  11    6    7 2
  12    6    8 1
  13    8    9 3
  14    9   10 1
  15   10   11 ar
  16   10   15 ar
  17   11   12 ar
  18   11   25 1
  19   12   13 ar
  20   12   17 1
  21   13   14 ar
  22   13   26 1
  23   14   15 ar
  24   14   27 1
  25   15   28 1
  26   17   29 1
  27   17   30 1
  28   17   31 1
  29   18   19 1
  30   18   32 1
  31   18   33 1
  32   19   20 1
  33   19   34 1
  34   19   35 1
  35   20   21 1
  36   20   23 1
  37   20   36 1
  38   21   22 1
  39   21   37 1
  40   21   38 1
  41   22   39 1
  42   22   40 1
  43   23   41 1
  44   23   42 1
  45   23   43 1

#	End of record

