#	Name: ASD01940502
#	Creating user name:	WinNT
#	Creation time:	15. 06. 2019 20:12

#	Modifying user name:	WinNT
#	Modification time:	15. 06. 2019 20:12

#	Program:	/corina/corina34_cracker 3.40 0067  02.08.2006

@<TRIPOS>MOLECULE
ASD01940502
  41   42    0    0    0
SMALL
NO_CHARGES


@<TRIPOS>ATOM
   1 N1            -0.7684     1.2245    -1.0207 N.pl3   
   2 C2            -1.0945     1.0925    -2.3747 C.ar    
   3 C3            -2.1011     0.2158    -2.7671 C.ar    
   4 C4            -2.4202     0.0882    -4.1060 C.ar    
   5 C5            -1.7393     0.8311    -5.0544 C.ar    
   6 C6            -0.7385     1.7030    -4.6664 C.ar    
   7 C7            -0.4186     1.8400    -3.3291 C.ar    
   8 I8            -2.2251     0.6338    -7.0827 I       
   9 F9            -2.7652    -0.5100    -1.8411 F       
  10 C10            0.3330     1.9945    -0.6395 C.ar    
  11 C11            0.1872     3.3601    -0.4281 C.ar    
  12 C12            1.2784     4.1222    -0.0511 C.ar    
  13 C13            2.5167     3.5260     0.1162 C.ar    
  14 C14            2.6660     2.1628    -0.0939 C.ar    
  15 C15            1.5732     1.3952    -0.4658 C.ar    
  16 N16            1.7298    -0.0605    -0.6839 N.pl3   
  17 O17            2.0581    -0.4804    -1.7791 O.2     
  18 O18            1.5304    -0.8385     0.2318 O.2     
  19 O19            3.8822     1.5791     0.0702 O.3     
  20 C20            4.9625     2.4293     0.4601 C.3     
  21 F21            1.1356     5.4499     0.1537 F       
  22 C22           -1.1597     4.0111    -0.6102 C.3     
  23 O23           -0.9839     5.4064    -0.8639 O.3     
  24 C24           -2.1605     6.1887    -0.6502 C.3     
  25 O25           -1.8351     3.4074    -1.7154 O.3     
  26 C26           -3.2357     3.6864    -1.7633 C.3     
  27 H27           -1.3094     0.7846    -0.3464 H       
  28 H28           -3.2013    -0.5919    -4.4122 H       
  29 H29           -0.2092     2.2811    -5.4094 H       
  30 H30            0.3600     2.5249    -3.0272 H       
  31 H31            3.3674     4.1228     0.4103 H       
  32 H32            5.1079     3.2016    -0.2952 H       
  33 H33            4.7302     2.8963     1.4172 H       
  34 H34            5.8736     1.8385     0.5557 H       
  35 H35           -1.7528     3.8782     0.2946 H       
  36 H36           -2.4273     6.1627     0.4063 H       
  37 H37           -1.9716     7.2189    -0.9520 H       
  38 H38           -2.9802     5.7812    -1.2421 H       
  39 H39           -3.6353     3.7158    -0.7496 H       
  40 H40           -3.3979     4.6502    -2.2459 H       
  41 H41           -3.7424     2.9059    -2.3311 H       
@<TRIPOS>BOND
   1    1    2 1
   2    1   10 1
   3    1   27 1
   4    2    3 ar
   5    2    7 ar
   6    3    4 ar
   7    3    9 1
   8    4    5 ar
   9    4   28 1
  10    5    6 ar
  11    5    8 1
  12    6    7 ar
  13    6   29 1
  14    7   30 1
  15   10   11 ar
  16   10   15 ar
  17   11   12 ar
  18   11   22 1
  19   12   13 ar
  20   12   21 1
  21   13   14 ar
  22   13   31 1
  23   14   15 ar
  24   14   19 1
  25   15   16 1
  26   16   17 2
  27   16   18 2
  28   19   20 1
  29   20   32 1
  30   20   33 1
  31   20   34 1
  32   22   23 1
  33   22   25 1
  34   22   35 1
  35   23   24 1
  36   24   36 1
  37   24   37 1
  38   24   38 1
  39   25   26 1
  40   26   39 1
  41   26   40 1
  42   26   41 1

#	End of record

