#	Name: ASD00840646
#	Creating user name:	WinNT
#	Creation time:	15. 06. 2019 18:39

#	Modifying user name:	WinNT
#	Modification time:	15. 06. 2019 18:39

#	Program:	/corina/corina34_cracker 3.40 0067  02.08.2006

@<TRIPOS>MOLECULE
ASD00840646
  95  100    0    0    0
SMALL
NO_CHARGES


@<TRIPOS>ATOM
   1 N1             0.9731     1.4230    -0.8285 N.ar    
   2 C2             1.2509     0.1327    -0.9120 C.ar    
   3 C3             1.1955    -0.6776     0.2151 C.ar    
   4 C4             0.8451    -0.1170     1.4307 C.ar    
   5 C5             0.5610     1.2412     1.4762 C.ar    
   6 C6             0.6360     1.9860     0.3164 C.ar    
   7 C7             1.5124    -2.1475     0.1151 C.3     
   8 C8             1.2572    -2.8366     1.4387 C.2     
   9 C9             0.6865    -2.7983    -0.9963 C.3     
  10 C10           -0.7757    -2.5139    -0.7679 C.2     
  11 N11           -1.7023    -3.0495    -1.5870 N.am    
  12 O12           -1.1185    -1.8031     0.1530 O.2     
  13 C13           -3.1201    -2.6892    -1.4503 C.3     
  14 C14           -3.9440    -3.9732    -1.3112 C.3     
  15 C15           -3.6417    -4.8990    -2.4917 C.3     
  16 C16           -2.1579    -5.2736    -2.4815 C.3     
  17 C17           -1.3131    -4.0000    -2.6376 C.3     
  18 N18           -4.4548    -6.1172    -2.3791 N.3     
  19 C19           -4.2798    -6.9781    -3.5571 C.3     
  20 C20           -5.0790    -8.2692    -3.3655 C.3     
  21 N21           -6.4968    -7.9392    -3.1639 N.3     
  22 C22           -6.6718    -7.0784    -1.9858 C.3     
  23 C23           -5.8726    -5.7873    -2.1775 C.3     
  24 C24           -7.3099    -9.1575    -3.0512 C.3     
  25 O25            0.1937    -2.9154     2.0162 O.2     
  26 N26            2.4294    -3.3451     1.8532 N.am    
  27 C27            2.9901    -2.3558    -0.1273 C.ar    
  28 C28            3.4656    -3.0829     0.9614 C.ar    
  29 C29            3.8286    -1.9760    -1.1445 C.ar    
  30 C30            5.1840    -2.3207    -1.0945 C.ar    
  31 C31            5.6692    -3.0514    -0.0032 C.ar    
  32 C32            4.8162    -3.4282     1.0119 C.ar    
  33 F33            6.9760    -3.3891     0.0544 F       
  34 C34            2.3454    -5.8895     2.8990 C.ar    
  35 C35            1.0912    -6.3156     2.4859 C.ar    
  36 C36            3.3805    -6.7974     3.0174 C.ar    
  37 C37            3.1696    -8.1310     2.7247 C.ar    
  38 C38            1.9168    -8.5622     2.3111 C.ar    
  39 C39            0.8769    -7.6536     2.1919 C.ar    
  40 O40            1.7099    -9.8742     2.0237 O.3     
  41 O41            0.0735    -5.4224     2.3700 O.3     
  42 C42            2.8264   -10.7542     2.1691 C.3     
  43 C43           -1.1905    -5.9313     1.9396 C.3     
  44 C44           -2.2038    -4.7871     1.8693 C.3     
  45 C45            6.0676    -1.9295    -2.1513 C.1     
  46 N46            6.7685    -1.6191    -2.9897 N.1     
  47 O47            1.5927    -0.4049    -2.1098 O.3     
  48 C48            2.0536    -0.2866    -4.4793 C.3     
  49 C49            1.5231     0.4538    -3.2499 C.3     
  50 S50            2.6204    -4.1882     3.2657 S.o2    
  51 O51            3.9913    -4.0708     3.6209 O.2     
  52 O52            1.5589    -3.7852     4.1202 O.2     
  53 H53            0.7935    -0.7223     2.3237 H       
  54 H54            0.2840     1.7099     2.4089 H       
  55 H55            0.4163     3.0430     0.3464 H       
  56 H56            0.9897    -2.3905    -1.9606 H       
  57 H57            0.8526    -3.8756    -0.9891 H       
  58 H58           -3.2560    -2.0700    -0.5636 H       
  59 H59           -3.4447    -2.1408    -2.3347 H       
  60 H60           -3.6819    -4.4744    -0.3794 H       
  61 H61           -5.0055    -3.7256    -1.3055 H       
  62 H62           -3.8808    -4.3880    -3.4244 H       
  63 H63           -1.9126    -5.7626    -1.5387 H       
  64 H64           -1.9481    -5.9515    -3.3089 H       
  65 H65           -1.4915    -3.5612    -3.6192 H       
  66 H66           -0.2567    -4.2471    -2.5320 H       
  67 H67           -4.6382    -6.4569    -4.4449 H       
  68 H68           -3.2235    -7.2187    -3.6779 H       
  69 H69           -4.9739    -8.8967    -4.2505 H       
  70 H70           -4.7025    -8.8039    -2.4934 H       
  71 H71           -7.7281    -6.8377    -1.8650 H       
  72 H72           -6.3134    -7.5995    -1.0981 H       
  73 H73           -5.9777    -5.1597    -1.2924 H       
  74 H74           -6.2491    -5.2526    -3.0495 H       
  75 H75           -6.9643    -9.7478    -2.2025 H       
  76 H76           -8.3546    -8.8845    -2.9026 H       
  77 H77           -7.2140    -9.7441    -3.9649 H       
  78 H78            3.4436    -1.4128    -1.9817 H       
  79 H79            5.1957    -3.9920     1.8513 H       
  80 H80            4.3560    -6.4638     3.3391 H       
  81 H81            3.9803    -8.8385     2.8174 H       
  82 H82           -0.0988    -7.9872     1.8706 H       
  83 H83            3.6308   -10.4328     1.5075 H       
  84 H84            3.1745   -10.7319     3.2017 H       
  85 H85            2.5255   -11.7690     1.9088 H       
  86 H86           -1.0836    -6.3831     0.9534 H       
  87 H87           -1.5397    -6.6829     2.6476 H       
  88 H88           -3.1680    -5.1753     1.5410 H       
  89 H89           -2.3107    -4.3353     2.8554 H       
  90 H90           -1.8546    -4.0355     1.1612 H       
  91 H91            2.0825     0.3949    -5.3294 H       
  92 H92            3.0586    -0.6560    -4.2753 H       
  93 H93            1.3975    -1.1262    -4.7088 H       
  94 H94            0.4874     0.7471    -3.4212 H       
  95 H95            2.1279     1.3431    -3.0724 H       
@<TRIPOS>BOND
   1    1    2 ar
   2    1    6 ar
   3    2    3 ar
   4    2   47 1
   5    3    4 ar
   6    3    7 1
   7    4    5 ar
   8    4   53 1
   9    5    6 ar
  10    5   54 1
  11    6   55 1
  12    7    8 1
  13    7    9 1
  14    7   27 1
  15    8   25 2
  16    8   26 am
  17    9   10 1
  18    9   56 1
  19    9   57 1
  20   10   11 am
  21   10   12 2
  22   11   13 1
  23   11   17 1
  24   13   14 1
  25   13   58 1
  26   13   59 1
  27   14   15 1
  28   14   60 1
  29   14   61 1
  30   15   16 1
  31   15   18 1
  32   15   62 1
  33   16   17 1
  34   16   63 1
  35   16   64 1
  36   17   65 1
  37   17   66 1
  38   18   19 1
  39   18   23 1
  40   19   20 1
  41   19   67 1
  42   19   68 1
  43   20   21 1
  44   20   69 1
  45   20   70 1
  46   21   22 1
  47   21   24 1
  48   22   23 1
  49   22   71 1
  50   22   72 1
  51   23   73 1
  52   23   74 1
  53   24   75 1
  54   24   76 1
  55   24   77 1
  56   26   50 am
  57   26   28 1
  58   27   28 ar
  59   27   29 ar
  60   28   32 ar
  61   29   30 ar
  62   29   78 1
  63   30   31 ar
  64   30   45 1
  65   31   32 ar
  66   31   33 1
  67   32   79 1
  68   34   35 ar
  69   34   36 ar
  70   34   50 1
  71   35   41 1
  72   35   39 ar
  73   36   37 ar
  74   36   80 1
  75   37   38 ar
  76   37   81 1
  77   38   39 ar
  78   38   40 1
  79   39   82 1
  80   40   42 1
  81   41   43 1
  82   42   83 1
  83   42   84 1
  84   42   85 1
  85   43   44 1
  86   43   86 1
  87   43   87 1
  88   44   88 1
  89   44   89 1
  90   44   90 1
  91   45   46 3
  92   47   49 1
  93   48   49 1
  94   48   91 1
  95   48   92 1
  96   48   93 1
  97   49   94 1
  98   49   95 1
  99   50   51 2
 100   50   52 2

#	End of record

