#	Name: ASD01813641
#	Creating user name:	WinNT
#	Creation time:	15. 06. 2019 19:30

#	Modifying user name:	WinNT
#	Modification time:	15. 06. 2019 19:30

#	Program:	/corina/corina34_cracker 3.40 0067  02.08.2006

@<TRIPOS>MOLECULE
ASD01813641
  45   47    0    0    0
SMALL
NO_CHARGES


@<TRIPOS>ATOM
   1 C1            -0.0886     1.1511     1.0086 C.2     
   2 C2            -0.0414    -0.1538     0.7322 C.2     
   3 C3             1.2422    -0.7951     0.4461 C.2     
   4 C4             1.3106    -2.1447     0.3033 C.2     
   5 C5             0.1261    -3.0210     0.5394 C.2     
   6 C6            -0.7785    -2.7934     1.5135 C.2     
   7 N7             2.4907    -2.7845    -0.0776 N.pl3   
   8 C8             2.4826    -4.0083    -0.6226 C.2     
   9 C9             1.3347    -4.7536    -0.8049 C.2     
  10 C10            0.0370    -4.1776    -0.4091 C.2     
  11 O11           -1.0252    -4.6104    -0.8167 O.2     
  12 C12            1.4048    -6.0976    -1.3908 C.2     
  13 O13            0.2777    -6.8170    -1.5644 O.3     
  14 O14            2.4794    -6.5623    -1.7194 O.2     
  15 C15            3.7706    -2.1006     0.1232 C.3     
  16 C16            4.2238    -2.2909     1.5477 C.ar    
  17 C17            5.0140    -3.3721     1.8900 C.ar    
  18 N18            5.4164    -3.5499     3.1322 N.ar    
  19 C19            5.0828    -2.7047     4.0989 C.ar    
  20 C20            4.2882    -1.5930     3.8246 C.ar    
  21 C21            3.8564    -1.3789     2.5276 C.ar    
  22 F22            2.3595    -0.0454     0.3240 F       
  23 C23            5.5589    -2.9450     5.4826 C.ar    
  24 C24            5.1345    -2.1283     6.5272 C.ar    
  25 N25            5.5550    -2.3389     7.7583 N.ar    
  26 C26            6.3885    -3.3238     8.0511 C.ar    
  27 C27            6.8566    -4.1809     7.0614 C.ar    
  28 C28            6.4368    -3.9998     5.7581 C.ar    
  29 O29            6.7922    -3.4994     9.3339 O.3     
  30 H30            0.8207     1.7337     1.0212 H       
  31 H31           -1.0366     1.6254     1.2154 H       
  32 H32           -0.9507    -0.7364     0.7197 H       
  33 H33           -0.6129    -2.0026     2.2301 H       
  34 H34           -1.6684    -3.4020     1.5769 H       
  35 H35            3.4240    -4.4345    -0.9364 H       
  36 H36            0.3741    -7.6968    -1.9540 H       
  37 H37            4.5158    -2.5182    -0.5540 H       
  38 H38            3.6500    -1.0367    -0.0807 H       
  39 H39            5.3053    -4.0811     1.1291 H       
  40 H40            4.0171    -0.9059     4.6125 H       
  41 H41            3.2399    -0.5260     2.2846 H       
  42 H42            4.4543    -1.3139     6.3265 H       
  43 H43            7.5371    -4.9820     7.3097 H       
  44 H44            6.7843    -4.6506     4.9694 H       
  45 H45            6.2234    -4.0886     9.8481 H       
@<TRIPOS>BOND
   1    1    2 2
   2    1   30 1
   3    1   31 1
   4    2    3 1
   5    2   32 1
   6    3    4 2
   7    3   22 1
   8    4    5 1
   9    4    7 1
  10    5    6 2
  11    5   10 1
  12    6   33 1
  13    6   34 1
  14    7    8 1
  15    7   15 1
  16    8    9 2
  17    8   35 1
  18    9   10 1
  19    9   12 1
  20   10   11 2
  21   12   13 1
  22   12   14 2
  23   13   36 1
  24   15   16 1
  25   15   37 1
  26   15   38 1
  27   16   17 ar
  28   16   21 ar
  29   17   18 ar
  30   17   39 1
  31   18   19 ar
  32   19   20 ar
  33   19   23 1
  34   20   21 ar
  35   20   40 1
  36   21   41 1
  37   23   24 ar
  38   23   28 ar
  39   24   25 ar
  40   24   42 1
  41   25   26 ar
  42   26   27 ar
  43   26   29 1
  44   27   28 ar
  45   27   43 1
  46   28   44 1
  47   29   45 1

#	End of record

