#	Name: ASD01412052
#	Creating user name:	WinNT
#	Creation time:	15. 06. 2019 19:19

#	Modifying user name:	WinNT
#	Modification time:	15. 06. 2019 19:19

#	Program:	/corina/corina34_cracker 3.40 0067  02.08.2006

@<TRIPOS>MOLECULE
ASD01412052
  57   60    0    0    0
SMALL
NO_CHARGES


@<TRIPOS>ATOM
   1 C1            -0.0146     1.4509    -0.0726 C.ar    
   2 C2             0.0178     0.0537    -0.0504 C.ar    
   3 C3            -1.1558    -0.6761    -0.0098 C.ar    
   4 C4            -2.3823    -0.0208     0.0089 C.ar    
   5 C5            -2.4125     1.3852    -0.0134 C.ar    
   6 C6            -1.2227     2.1157    -0.0487 C.ar    
   7 N7            -3.5583    -0.7409     0.0484 N.pl3   
   8 C8            -4.7644    -0.1601     0.0670 C.2     
   9 C9            -4.9201     1.2122     0.0482 C.2     
  10 C10           -3.7196     2.0638     0.0069 C.2     
  11 O11           -3.8040     3.2796    -0.0107 O.2     
  12 C12           -3.4841    -2.2039     0.0706 C.3     
  13 C13           -3.4243    -2.6896     1.5202 C.3     
  14 O14            1.1477     2.1563    -0.1121 O.3     
  15 O15            1.2121    -0.5925    -0.0694 O.3     
  16 C16            1.1774    -2.0209    -0.0451 C.3     
  17 C17            1.0415     3.5812    -0.1329 C.3     
  18 C18           -6.2616     1.8123     0.0687 C.2     
  19 C19           -6.6987     2.6059     1.2372 C.ar    
  20 O20           -7.0123     1.6560    -0.8757 O.2     
  21 C21           -7.9237     3.2752     1.2116 C.ar    
  22 C22           -8.3255     4.0138     2.3051 C.ar    
  23 C23           -7.5172     4.0927     3.4254 C.ar    
  24 C24           -6.3017     3.4321     3.4572 C.ar    
  25 C25           -5.8909     2.6846     2.3732 C.ar    
  26 C26           -7.9625     4.9020     4.6162 C.3     
  27 C27           -3.3480    -4.1945     1.5430 C.ar    
  28 C28           -2.1178    -4.8246     1.5242 C.ar    
  29 C29           -2.0478    -6.2050     1.5451 C.ar    
  30 C30           -3.2081    -6.9553     1.5852 C.ar    
  31 C31           -4.4384    -6.3252     1.6049 C.ar    
  32 C32           -4.5082    -4.9447     1.5884 C.ar    
  33 H33           -1.1201    -1.7553     0.0070 H       
  34 H34           -1.2487     3.1952    -0.0657 H       
  35 H35           -5.6446    -0.7851     0.0973 H       
  36 H36           -4.3665    -2.6198    -0.4158 H       
  37 H37           -2.5893    -2.5304    -0.4593 H       
  38 H38           -2.5419    -2.2737     2.0066 H       
  39 H39           -4.3191    -2.3631     2.0500 H       
  40 H40            2.1956    -2.4095    -0.0640 H       
  41 H41            0.6771    -2.3568     0.8632 H       
  42 H42            0.6330    -2.3860    -0.9160 H       
  43 H43            0.5236     3.9200     0.7644 H       
  44 H44            2.0390     4.0195    -0.1640 H       
  45 H45            0.4808     3.8908    -1.0148 H       
  46 H46           -8.5552     3.2150     0.3375 H       
  47 H47           -9.2728     4.5321     2.2866 H       
  48 H48           -5.6753     3.4984     4.3345 H       
  49 H49           -4.9422     2.1692     2.3994 H       
  50 H50           -8.5317     4.2668     5.2949 H       
  51 H51           -7.0887     5.2964     5.1347 H       
  52 H52           -8.5892     5.7281     4.2802 H       
  53 H53           -1.2113    -4.2384     1.4929 H       
  54 H54           -1.0867    -6.6973     1.5297 H       
  55 H55           -3.1535    -8.0338     1.6008 H       
  56 H56           -5.3449    -6.9114     1.6358 H       
  57 H57           -5.4693    -4.4524     1.6075 H       
@<TRIPOS>BOND
   1    1    2 ar
   2    1   14 1
   3    1    6 ar
   4    2    3 ar
   5    2   15 1
   6    3    4 ar
   7    3   33 1
   8    4    5 ar
   9    4    7 1
  10    5    6 ar
  11    5   10 1
  12    6   34 1
  13    7    8 1
  14    7   12 1
  15    8    9 2
  16    8   35 1
  17    9   10 1
  18    9   18 1
  19   10   11 2
  20   12   13 1
  21   12   36 1
  22   12   37 1
  23   13   27 1
  24   13   38 1
  25   13   39 1
  26   14   17 1
  27   15   16 1
  28   16   40 1
  29   16   41 1
  30   16   42 1
  31   17   43 1
  32   17   44 1
  33   17   45 1
  34   18   19 1
  35   18   20 2
  36   19   21 ar
  37   19   25 ar
  38   21   22 ar
  39   21   46 1
  40   22   23 ar
  41   22   47 1
  42   23   24 ar
  43   23   26 1
  44   24   25 ar
  45   24   48 1
  46   25   49 1
  47   26   50 1
  48   26   51 1
  49   26   52 1
  50   27   28 ar
  51   27   32 ar
  52   28   29 ar
  53   28   53 1
  54   29   30 ar
  55   29   54 1
  56   30   31 ar
  57   30   55 1
  58   31   32 ar
  59   31   56 1
  60   32   57 1

#	End of record

