#	Name: ASD03092411
#	Creating user name:	WinNT
#	Creation time:	15. 06. 2019 20:32

#	Modifying user name:	WinNT
#	Modification time:	15. 06. 2019 20:32

#	Program:	/corina/corina34_cracker 3.40 0067  02.08.2006

@<TRIPOS>MOLECULE
ASD03092411
  55   58    0    0    0
SMALL
NO_CHARGES


@<TRIPOS>ATOM
   1 O1             0.4896     0.3781     0.3538 O.3     
   2 N2             0.6631    -0.8158     0.3319 N.2     
   3 C3             1.9214    -1.1299     0.2405 C.2     
   4 C4             2.6405     0.1528     0.2002 C.2     
   5 C5             1.6257     1.0751     0.2793 C.2     
   6 C6             4.0918     0.3898     0.1001 C.2     
   7 O7             4.8589    -0.5518     0.0387 O.2     
   8 N8             4.5688     1.6501     0.0767 N.am    
   9 C9             2.5165    -2.5134     0.1877 C.3     
  10 C10            6.0113     1.8857    -0.0228 C.3     
  11 S11            6.7271     5.7578    -0.7207 S.3     
  12 C12            6.6113     5.3516     0.9357 C.2     
  13 N13            6.3789     4.0816     1.0729 N.2     
  14 C14            6.2788     3.3688    -0.0298 C.2     
  15 C15            6.4358     4.0781    -1.1654 C.2     
  16 C16            7.3650     3.8593    -3.4720 C.ar    
  17 C17            6.3744     3.5414    -2.5409 C.ar    
  18 C18            5.3223     2.7051    -2.9324 C.ar    
  19 C19            5.3117     2.2288    -4.2317 C.ar    
  20 C20            6.3309     2.5905    -5.0938 C.ar    
  21 N21            7.3104     3.3806    -4.6974 N.ar    
  22 C22            6.3228     2.0733    -6.5092 C.3     
  23 N23            6.7461     6.2484     1.9812 N.3     
  24 C24            7.0031     7.6066     1.4805 C.3     
  25 C25            7.2045     8.5526     2.6673 C.3     
  26 O26            6.0542     8.4969     3.5154 O.3     
  27 C27            5.7749     7.1887     4.0214 C.3     
  28 C28            5.5591     6.2289     2.8484 C.3     
  29 C29            4.5120     7.2335     4.8839 C.3     
  30 C30            7.3928     9.9819     2.1551 C.3     
  31 H31            1.7268     2.1503     0.2810 H       
  32 H32            3.9569     2.4012     0.1257 H       
  33 H33            2.5880    -2.8388    -0.8502 H       
  34 H34            3.5113    -2.4982     0.6330 H       
  35 H35            1.8808    -3.2038     0.7419 H       
  36 H36            6.5136     1.4300     0.8305 H       
  37 H37            6.3888     1.4441    -0.9450 H       
  38 H38            8.1806     4.5070    -3.1860 H       
  39 H39            4.5392     2.4382    -2.2382 H       
  40 H40            4.5160     1.5810    -4.5688 H       
  41 H41            5.7785     2.7694    -7.1474 H       
  42 H42            7.3480     1.9780    -6.8671 H       
  43 H43            5.8362     1.0983    -6.5370 H       
  44 H44            7.9006     7.6026     0.8619 H       
  45 H45            6.1528     7.9428     0.8872 H       
  46 H46            8.0868     8.2478     3.2301 H       
  47 H47            6.6156     6.8443     4.6236 H       
  48 H48            4.6857     6.5431     2.2770 H       
  49 H49            5.4024     5.2193     3.2282 H       
  50 H50            3.6717     7.5763     4.2802 H       
  51 H51            4.2996     6.2363     5.2693 H       
  52 H52            4.6649     7.9200     5.7167 H       
  53 H53            6.5091    10.2862     1.5941 H       
  54 H54            7.5361    10.6549     3.0004 H       
  55 H55            8.2673    10.0229     1.5057 H       
@<TRIPOS>BOND
   1    1    2 1
   2    1    5 1
   3    2    3 2
   4    3    4 1
   5    3    9 1
   6    4    5 2
   7    4    6 1
   8    5   31 1
   9    6    7 2
  10    6    8 am
  11    8   10 1
  12    8   32 1
  13    9   33 1
  14    9   34 1
  15    9   35 1
  16   10   14 1
  17   10   36 1
  18   10   37 1
  19   11   12 1
  20   11   15 1
  21   12   13 2
  22   12   23 1
  23   13   14 1
  24   14   15 2
  25   15   17 1
  26   16   17 ar
  27   16   21 ar
  28   16   38 1
  29   17   18 ar
  30   18   19 ar
  31   18   39 1
  32   19   20 ar
  33   19   40 1
  34   20   21 ar
  35   20   22 1
  36   22   41 1
  37   22   42 1
  38   22   43 1
  39   23   24 1
  40   23   28 1
  41   24   25 1
  42   24   44 1
  43   24   45 1
  44   25   26 1
  45   25   30 1
  46   25   46 1
  47   26   27 1
  48   27   28 1
  49   27   29 1
  50   27   47 1
  51   28   48 1
  52   28   49 1
  53   29   50 1
  54   29   51 1
  55   29   52 1
  56   30   53 1
  57   30   54 1
  58   30   55 1

#	End of record

