#	Name: ASD02198378
#	Creating user name:	WinNT
#	Creation time:	15. 06. 2019 20:19

#	Modifying user name:	WinNT
#	Modification time:	15. 06. 2019 20:19

#	Program:	/corina/corina34_cracker 3.40 0067  02.08.2006

@<TRIPOS>MOLECULE
ASD02198378
  29   31    0    0    0
SMALL
NO_CHARGES


@<TRIPOS>ATOM
   1 C1            -0.1415     1.6111     0.3872 C.2     
   2 C2            -0.2045     0.2779     0.3737 C.2     
   3 C3             1.1352     2.1353     0.2762 C.2     
   4 C4             2.1080     1.2290     0.1727 C.2     
   5 S5             1.4158    -0.3874     0.2136 S.3     
   6 S6             3.8247     1.5949     0.0185 S.o2    
   7 N7             4.4485     1.6739     1.5505 N.am    
   8 C8             4.3776     0.5631     2.3902 C.ar    
   9 C9             4.1658     0.7314     3.7764 C.ar    
  10 C10            4.0975    -0.4147     4.6056 C.ar    
  11 C11            4.2408    -1.6924     4.0414 C.ar    
  12 C12            4.4446    -1.8243     2.7012 C.ar    
  13 C13            4.5078    -0.7076     1.8732 C.ar    
  14 N14            4.0308     1.9483     4.3100 N.ar    
  15 C15            3.8344     2.1109     5.5958 C.ar    
  16 C16            3.7573     1.0270     6.4680 C.ar    
  17 C17            3.8862    -0.2447     5.9874 C.ar    
  18 O18            4.4221     0.4637    -0.6002 O.2     
  19 O19            3.9084     2.9084    -0.5171 O.2     
  20 Br20          -1.7926    -0.7399     0.5075 Br      
  21 H21           -1.0198     2.2335     0.4735 H       
  22 H22            1.3285     3.1979     0.2733 H       
  23 H23            4.8633     2.4929     1.8636 H       
  24 H24            4.1899    -2.5695     4.6695 H       
  25 H25            4.5544    -2.8102     2.2742 H       
  26 H26            4.6700    -0.8381     0.8135 H       
  27 H27            3.7300     3.1112     5.9895 H       
  28 H28            3.5953     1.1924     7.5229 H       
  29 H29            3.8287    -1.0965     6.6489 H       
@<TRIPOS>BOND
   1    1    2 2
   2    1    3 1
   3    1   21 1
   4    2   20 1
   5    2    5 1
   6    3    4 2
   7    3   22 1
   8    4    5 1
   9    4    6 1
  10    6    7 am
  11    6   18 2
  12    6   19 2
  13    7    8 1
  14    7   23 1
  15    8    9 ar
  16    8   13 ar
  17    9   10 ar
  18    9   14 ar
  19   10   11 ar
  20   10   17 ar
  21   11   12 ar
  22   11   24 1
  23   12   13 ar
  24   12   25 1
  25   13   26 1
  26   14   15 ar
  27   15   16 ar
  28   15   27 1
  29   16   17 ar
  30   16   28 1
  31   17   29 1

#	End of record

