#	Name: ASD03910106
#	Creating user name:	WinNT
#	Creation time:	15. 06. 2019 20:47

#	Modifying user name:	WinNT
#	Modification time:	15. 06. 2019 20:47

#	Program:	/corina/corina34_cracker 3.40 0067  02.08.2006

@<TRIPOS>MOLECULE
ASD03910106
  64   65    0    0    0
SMALL
NO_CHARGES


@<TRIPOS>ATOM
   1 C1            -0.0173     1.4248     0.0099 C.3     
   2 O2             0.0021    -0.0041     0.0020 O.3     
   3 C3            -1.1961    -0.6353     0.0101 C.ar    
   4 C4            -1.2501    -2.0393     0.0030 C.ar    
   5 C5            -2.4842    -2.6837     0.0114 C.ar    
   6 C6            -3.6590    -1.9294     0.0266 C.ar    
   7 C7            -3.5918    -0.5288     0.0335 C.ar    
   8 C8            -2.3715     0.1061     0.0310 C.ar    
   9 C9            -4.9647    -2.6028     0.0350 C.2     
  10 O10           -5.9850    -1.9472     0.0483 O.2     
  11 C11           -0.0040    -2.8275    -0.0136 C.2     
  12 O12            1.0719    -2.2630    -0.0212 O.2     
  13 O13           -0.0585    -4.1738    -0.0203 O.3     
  14 O14            7.0572    11.6209    -0.0029 O.3     
  15 C15            8.2554    12.2521    -0.0110 C.ar    
  16 C16            8.3094    13.6561    -0.0039 C.ar    
  17 C17            9.5435    14.3005    -0.0123 C.ar    
  18 C18           10.7183    13.5462    -0.0275 C.ar    
  19 C19           10.6511    12.1456    -0.0344 C.ar    
  20 C20            9.4309    11.5107    -0.0204 C.ar    
  21 C21           12.0240    14.2196    -0.0369 C.2     
  22 O22           13.0443    13.5640    -0.0501 O.2     
  23 C23            7.0634    14.4443     0.0117 C.2     
  24 O24            5.9875    13.8798     0.0185 O.2     
  25 O25            7.1178    15.7906     0.0184 O.3     
  26 C26            1.4181     1.9544    -0.0010 C.3     
  27 C27            1.3973     3.4842     0.0074 C.3     
  28 C28            2.8327     4.0138    -0.0034 C.3     
  29 C29            2.8120     5.5436     0.0050 C.3     
  30 C30            4.2474     6.0732    -0.0059 C.3     
  31 C31            5.6620     8.1326    -0.0083 C.3     
  32 C32            4.2266     7.6030     0.0025 C.3     
  33 C33            7.0766    10.1920    -0.0108 C.3     
  34 C34            5.6412     9.6624     0.0001 C.3     
  35 H35           -0.5445     1.7859    -0.8732 H       
  36 H36           -0.5275     1.7763     0.9067 H       
  37 H37           -2.5325    -3.7626     0.0057 H       
  38 H38           -4.5013     0.0535     0.0453 H       
  39 H39           -2.3266     1.1851     0.0412 H       
  40 H40           -5.0160    -3.6815     0.0293 H       
  41 H41            0.7846    -4.6473    -0.0312 H       
  42 H42            9.5918    15.3794    -0.0073 H       
  43 H43           11.5606    11.5633    -0.0462 H       
  44 H44            9.3861    10.4316    -0.0210 H       
  45 H45           12.0753    15.2983    -0.0319 H       
  46 H46            6.2747    16.2641     0.0287 H       
  47 H47            1.9453     1.5933     0.8821 H       
  48 H48            1.9283     1.6028    -0.8978 H       
  49 H49            0.8701     3.8453    -0.8756 H       
  50 H50            0.8871     3.8357     0.9042 H       
  51 H51            3.3599     3.6527     0.8796 H       
  52 H52            3.3429     3.6623    -0.9002 H       
  53 H53            2.2848     5.9047    -0.8781 H       
  54 H54            2.3018     5.8951     0.9018 H       
  55 H55            4.7745     5.7121     0.8772 H       
  56 H56            4.7575     5.7217    -0.9027 H       
  57 H57            6.1892     7.7715     0.8747 H       
  58 H58            6.1722     7.7811    -0.9051 H       
  59 H59            3.6994     7.9641    -0.8805 H       
  60 H60            3.7164     7.9546     0.8993 H       
  61 H61            7.5868     9.8405    -0.9076 H       
  62 H62            7.6038     9.8310     0.8723 H       
  63 H63            5.1141    10.0235    -0.8830 H       
  64 H64            5.1310    10.0140     0.8969 H       
@<TRIPOS>BOND
   1    1    2 1
   2    1   26 1
   3    1   35 1
   4    1   36 1
   5    2    3 1
   6    3    4 ar
   7    3    8 ar
   8    4    5 ar
   9    4   11 1
  10    5    6 ar
  11    5   37 1
  12    6    7 ar
  13    6    9 1
  14    7    8 ar
  15    7   38 1
  16    8   39 1
  17    9   10 2
  18    9   40 1
  19   11   12 2
  20   11   13 1
  21   13   41 1
  22   14   15 1
  23   14   33 1
  24   15   16 ar
  25   15   20 ar
  26   16   17 ar
  27   16   23 1
  28   17   18 ar
  29   17   42 1
  30   18   19 ar
  31   18   21 1
  32   19   20 ar
  33   19   43 1
  34   20   44 1
  35   21   22 2
  36   21   45 1
  37   23   24 2
  38   23   25 1
  39   25   46 1
  40   26   27 1
  41   26   47 1
  42   26   48 1
  43   27   28 1
  44   27   49 1
  45   27   50 1
  46   28   29 1
  47   28   51 1
  48   28   52 1
  49   29   30 1
  50   29   53 1
  51   29   54 1
  52   30   32 1
  53   30   55 1
  54   30   56 1
  55   31   32 1
  56   31   34 1
  57   31   57 1
  58   31   58 1
  59   32   59 1
  60   32   60 1
  61   33   34 1
  62   33   61 1
  63   33   62 1
  64   34   63 1
  65   34   64 1

#	End of record

