#	Name: ASD01901102
#	Creating user name:	WinNT
#	Creation time:	15. 06. 2019 19:53

#	Modifying user name:	WinNT
#	Modification time:	15. 06. 2019 19:53

#	Program:	/corina/corina34_cracker 3.40 0067  02.08.2006

@<TRIPOS>MOLECULE
ASD01901102
  37   39    0    0    0
SMALL
NO_CHARGES


@<TRIPOS>ATOM
   1 C1            -0.0184     1.5028     0.0103 C.2     
   2 C2             0.0021    -0.0041     0.0020 C.3     
   3 C3             2.4725     1.5850    -0.0130 C.ar    
   4 C4             1.2453     2.2555     0.0023 C.ar    
   5 C5             1.2403     3.6588     0.0094 C.ar    
   6 C6             2.4551     4.3180     0.0009 C.ar    
   7 C7             3.6277     3.5799    -0.0142 C.ar    
   8 N8             3.6028     2.2592    -0.0206 N.ar    
   9 Cl9            5.1552     4.4048    -0.0255 Cl      
  10 O10           -1.3386    -0.4987     0.0122 O.3     
  11 C11           -2.7819    -2.4024     0.0157 C.ar    
  12 C12           -1.4983    -1.8477     0.0064 C.ar    
  13 C13           -0.3900    -2.6789    -0.0091 C.ar    
  14 C14           -0.5538    -4.0514    -0.0158 C.ar    
  15 C15           -1.8225    -4.6030    -0.0066 C.ar    
  16 C16           -2.9355    -3.7865     0.0093 C.ar    
  17 C17           -3.9744    -1.5206     0.0384 C.ar    
  18 C18           -5.0081    -1.7184    -0.8751 C.ar    
  19 C19           -6.1155    -0.8952    -0.8491 C.ar    
  20 C20           -6.2005     0.1248     0.0815 C.ar    
  21 C21           -5.1773     0.3260     0.9903 C.ar    
  22 C22           -4.0679    -0.4947     0.9771 C.ar    
  23 O23           -1.0766     2.0947     0.0185 O.2     
  24 H24            0.5123    -0.3556    -0.8948 H       
  25 H25            0.5293    -0.3651     0.8851 H       
  26 H26            2.4929     0.5052    -0.0142 H       
  27 H27            0.3113     4.2094     0.0209 H       
  28 H28            2.4900     5.3975     0.0056 H       
  29 H29            0.6029    -2.2541    -0.0163 H       
  30 H30            0.3125    -4.6961    -0.0286 H       
  31 H31           -1.9426    -5.6763    -0.0120 H       
  32 H32           -3.9244    -4.2206     0.0167 H       
  33 H33           -4.9425    -2.5142    -1.6023 H       
  34 H34           -6.9170    -1.0474    -1.5568 H       
  35 H35           -7.0690     0.7666     0.0982 H       
  36 H36           -5.2488     1.1241     1.7144 H       
  37 H37           -3.2717    -0.3397     1.6903 H       
@<TRIPOS>BOND
   1    1    2 1
   2    1    4 1
   3    1   23 2
   4    2   10 1
   5    2   24 1
   6    2   25 1
   7    3    4 ar
   8    3    8 ar
   9    3   26 1
  10    4    5 ar
  11    5    6 ar
  12    5   27 1
  13    6    7 ar
  14    6   28 1
  15    7    8 ar
  16    7    9 1
  17   10   12 1
  18   11   12 ar
  19   11   16 ar
  20   11   17 1
  21   12   13 ar
  22   13   14 ar
  23   13   29 1
  24   14   15 ar
  25   14   30 1
  26   15   16 ar
  27   15   31 1
  28   16   32 1
  29   17   18 ar
  30   17   22 ar
  31   18   19 ar
  32   18   33 1
  33   19   20 ar
  34   19   34 1
  35   20   21 ar
  36   20   35 1
  37   21   22 ar
  38   21   36 1
  39   22   37 1

#	End of record

