#	Name: ASD01911439
#	Creating user name:	WinNT
#	Creation time:	15. 06. 2019 19:57

#	Modifying user name:	WinNT
#	Modification time:	15. 06. 2019 19:57

#	Program:	/corina/corina34_cracker 3.40 0067  02.08.2006

@<TRIPOS>MOLECULE
ASD01911439
  37   38    0    0    0
SMALL
NO_CHARGES


@<TRIPOS>ATOM
   1 N1            -0.0169     1.3965     0.0097 N.2     
   2 N2             0.0021    -0.0041     0.0020 N.pl3   
   3 C3             1.2284     1.8226     0.0001 C.2     
   4 C4             2.0722     0.6950    -0.0140 C.2     
   5 C5             1.2909    -0.4070    -0.0125 C.2     
   6 C6             1.7727    -1.8348    -0.0240 C.3     
   7 C7             1.6661     3.2408     0.0031 C.ar    
   8 C8            -1.1724    -0.8798     0.0090 C.3     
   9 C9            -1.5888    -1.1729    -1.4094 C.2     
  10 O10           -2.6491    -1.9606    -1.6484 O.3     
  11 O11           -0.9682    -0.6990    -2.3314 O.2     
  12 C12            0.7209     4.2640     0.0177 C.ar    
  13 C13            3.0240     3.5534    -0.0028 C.ar    
  14 C14            3.4254     4.8738     0.0005 C.ar    
  15 C15            2.4825     5.8860     0.0097 C.ar    
  16 C16            1.1336     5.5813     0.0209 C.ar    
  17 C17            2.0685    -2.2848     1.4081 C.3     
  18 C18            0.1122     6.6894     0.0303 C.3     
  19 C19           -0.2457     7.0654    -1.4089 C.3     
  20 H20            3.1521     0.7088    -0.0246 H       
  21 H21            1.0023    -2.4748    -0.4541 H       
  22 H22            2.6809    -1.9070    -0.6224 H       
  23 H23           -0.9267    -1.8130     0.5158 H       
  24 H24           -1.9906    -0.3861     0.5332 H       
  25 H25           -2.8778    -2.1198    -2.5744 H       
  26 H26           -0.3327     4.0271     0.0261 H       
  27 H27            3.7609     2.7640    -0.0096 H       
  28 H28            4.4776     5.1173    -0.0037 H       
  29 H29            2.8010     6.9180     0.0126 H       
  30 H30            2.4170    -3.3176     1.3998 H       
  31 H31            2.8389    -1.6448     1.8383 H       
  32 H32            1.1603    -2.2127     2.0065 H       
  33 H33           -0.7840     6.3530     0.5516 H       
  34 H34            0.5247     7.5594     0.5413 H       
  35 H35           -0.9844     7.8668    -1.4021 H       
  36 H36            0.6506     7.4018    -1.9301 H       
  37 H37           -0.6581     6.1954    -1.9199 H       
@<TRIPOS>BOND
   1    1    2 1
   2    1    3 2
   3    2    8 1
   4    2    5 1
   5    3    4 1
   6    3    7 1
   7    4    5 2
   8    4   20 1
   9    5    6 1
  10    6   17 1
  11    6   21 1
  12    6   22 1
  13    7   12 ar
  14    7   13 ar
  15    8    9 1
  16    8   23 1
  17    8   24 1
  18    9   10 1
  19    9   11 2
  20   10   25 1
  21   12   16 ar
  22   12   26 1
  23   13   14 ar
  24   13   27 1
  25   14   15 ar
  26   14   28 1
  27   15   16 ar
  28   15   29 1
  29   16   18 1
  30   17   30 1
  31   17   31 1
  32   17   32 1
  33   18   19 1
  34   18   33 1
  35   18   34 1
  36   19   35 1
  37   19   36 1
  38   19   37 1

#	End of record

