#	Name: ASD03092130
#	Creating user name:	WinNT
#	Creation time:	15. 06. 2019 20:32

#	Modifying user name:	WinNT
#	Modification time:	15. 06. 2019 20:32

#	Program:	/corina/corina34_cracker 3.40 0067  02.08.2006

@<TRIPOS>MOLECULE
ASD03092130
  53   55    0    0    0
SMALL
NO_CHARGES


@<TRIPOS>ATOM
   1 N1             0.2744     0.8997    -0.3998 N.pl3   
   2 C2             0.0714    -0.3560     0.0909 C.2     
   3 C3            -1.2697    -0.4992     0.3066 C.2     
   4 C4            -1.8930     0.6993    -0.0626 C.2     
   5 N5            -0.9707     1.5363    -0.4785 N.2     
   6 N6            -3.2666     0.9626     0.0057 N.pl3   
   7 C7            -3.7478     2.2420    -0.2823 C.ar    
   8 C8            -5.0275     2.4043    -0.7951 C.ar    
   9 C9            -5.5013     3.6755    -1.0791 C.ar    
  10 C10           -4.6962     4.7825    -0.8504 C.ar    
  11 C11           -2.9479     3.3549    -0.0504 C.ar    
  12 C12            1.1125    -1.3761     0.3433 C.ar    
  13 C13            1.5660     1.4819    -0.7725 C.3     
  14 C14            2.3477    -1.3206    -0.3123 C.ar    
  15 C15            3.2897    -2.2925    -0.0472 C.ar    
  16 N16            3.0387    -3.2635     0.8102 N.ar    
  17 C17            1.8878    -3.3529     1.4495 C.ar    
  18 C18            0.8918    -2.4202     1.2487 C.ar    
  19 C19            1.6611    -4.4858     2.4170 C.3     
  20 C20           -3.4222     4.6193    -0.3398 C.ar    
  21 C21            4.6238    -2.2450    -0.7466 C.3     
  22 C22            1.8021     1.2784    -2.2469 C.2     
  23 N23            2.9345     1.7352    -2.8174 N.am    
  24 O24            0.9730     0.7037    -2.9201 O.2     
  25 C25            3.1640     1.5373    -4.2508 C.3     
  26 C26            3.9360     2.4294    -2.0042 C.3     
  27 O27           -6.7535     3.8377    -1.5816 O.3     
  28 C28           -7.1762     5.1760    -1.8507 C.3     
  29 F29           -6.3164     5.7568    -2.7892 F       
  30 F30           -8.4794     5.1601    -2.3593 F       
  31 F31           -7.1466     5.9213    -0.6672 F       
  32 H32           -1.7616    -1.3796     0.6931 H       
  33 H33           -3.8840     0.2565     0.2530 H       
  34 H34           -5.6526     1.5416    -0.9727 H       
  35 H35           -5.0655     5.7728    -1.0721 H       
  36 H36           -1.9537     3.2304     0.3526 H       
  37 H37            1.5617     2.5488    -0.5491 H       
  38 H38            2.3606     0.9954    -0.2068 H       
  39 H39            2.5599    -0.5289    -1.0156 H       
  40 H40           -0.0477    -2.4996     1.7754 H       
  41 H41            1.9853    -4.1836     3.4128 H       
  42 H42            0.6006    -4.7366     2.4408 H       
  43 H43            2.2333    -5.3567     2.0973 H       
  44 H44           -2.7978     5.4826    -0.1628 H       
  45 H45            5.3246    -1.6580    -0.1529 H       
  46 H46            5.0079    -3.2581    -0.8655 H       
  47 H47            4.5037    -1.7845    -1.7272 H       
  48 H48            2.3167     1.0060    -4.6844 H       
  49 H49            3.2735     2.5061    -4.7383 H       
  50 H50            4.0724     0.9527    -4.3960 H       
  51 H51            4.6456     1.7048    -1.6049 H       
  52 H52            4.4659     3.1548    -2.6216 H       
  53 H53            3.4415     2.9453    -1.1811 H       
@<TRIPOS>BOND
   1    1    2 1
   2    1   13 1
   3    1    5 1
   4    2    3 2
   5    2   12 1
   6    3    4 1
   7    3   32 1
   8    4    5 2
   9    4    6 1
  10    6    7 1
  11    6   33 1
  12    7    8 ar
  13    7   11 ar
  14    8    9 ar
  15    8   34 1
  16    9   10 ar
  17    9   27 1
  18   10   20 ar
  19   10   35 1
  20   11   20 ar
  21   11   36 1
  22   12   14 ar
  23   12   18 ar
  24   13   22 1
  25   13   37 1
  26   13   38 1
  27   14   15 ar
  28   14   39 1
  29   15   16 ar
  30   15   21 1
  31   16   17 ar
  32   17   18 ar
  33   17   19 1
  34   18   40 1
  35   19   41 1
  36   19   42 1
  37   19   43 1
  38   20   44 1
  39   21   45 1
  40   21   46 1
  41   21   47 1
  42   22   23 am
  43   22   24 2
  44   23   25 1
  45   23   26 1
  46   25   48 1
  47   25   49 1
  48   25   50 1
  49   26   51 1
  50   26   52 1
  51   26   53 1
  52   27   28 1
  53   28   29 1
  54   28   30 1
  55   28   31 1

#	End of record

