#	Name: ASD01816341
#	Creating user name:	WinNT
#	Creation time:	15. 06. 2019 19:35

#	Modifying user name:	WinNT
#	Modification time:	15. 06. 2019 19:35

#	Program:	/corina/corina34_cracker 3.40 0067  02.08.2006

@<TRIPOS>MOLECULE
ASD01816341
  52   57    0    0    0
SMALL
NO_CHARGES


@<TRIPOS>ATOM
   1 C1            -0.0167     1.3813     0.0096 C.ar    
   2 C2             0.0021    -0.0041     0.0020 C.ar    
   3 C3             1.1983    -0.6909    -0.0126 C.ar    
   4 C4             2.4015     0.0060    -0.0203 C.ar    
   5 C5             2.3790     1.4106    -0.0130 C.ar    
   6 C6             1.1663     2.0916     0.0022 C.ar    
   7 N7             3.6053    -0.6771    -0.0345 N.pl3   
   8 C8             4.7971    -0.0584    -0.0420 C.2     
   9 C9             4.9000     1.3104    -0.0365 C.2     
  10 C10            3.6670     2.1303    -0.0214 C.2     
  11 C11            5.9971     2.2731    -0.0420 C.2     
  12 N12            5.4244     3.4961    -0.0315 N.am    
  13 N13            4.0322     3.3798    -0.0192 N.2     
  14 O14            7.1911     2.0232    -0.0532 O.2     
  15 C15            3.5779    -2.1418    -0.0411 C.3     
  16 C16            3.5555    -2.6374    -1.4641 C.ar    
  17 C17            4.7433    -2.8867    -2.1267 C.ar    
  18 C18            4.7261    -3.3405    -3.4311 C.ar    
  19 C19            3.5144    -3.5468    -4.0768 C.ar    
  20 C20            2.3234    -3.2961    -3.4088 C.ar    
  21 C21            2.3471    -2.8473    -2.1027 C.ar    
  22 N22            3.4936    -4.0069    -5.4008 N.pl3   
  23 C23            2.3888    -4.2482    -6.1423 C.2     
  24 C24            2.7955    -4.6776    -7.3594 C.2     
  25 C25            4.1945    -4.6999    -7.3630 C.2     
  26 N26            4.6138    -4.2925    -6.1921 N.2     
  27 C27            6.1214     4.7001    -0.0326 C.ar    
  28 N28            5.4448     5.8383    -0.0215 N.ar    
  29 C29            6.0762     7.0004    -0.0222 C.ar    
  30 C30            7.4623     7.0166    -0.0348 C.ar    
  31 C31            8.1386     5.8065    -0.0463 C.ar    
  32 N32            7.4453     4.6802    -0.0394 N.ar    
  33 C33            8.2173     8.3209    -0.0366 C.3     
  34 F34            8.4630     8.7192     1.2818 F       
  35 F35            9.4334     8.1548    -0.7079 F       
  36 F36            7.4563     9.2993    -0.6853 F       
  37 H37           -0.9602     1.9068     0.0169 H       
  38 H38           -0.9289    -0.5516     0.0079 H       
  39 H39            1.2004    -1.7709    -0.0177 H       
  40 H40            1.1506     3.1715     0.0074 H       
  41 H41            5.6983    -0.6535    -0.0523 H       
  42 H42            4.4655    -2.5241     0.4629 H       
  43 H43            2.6860    -2.4909     0.4793 H       
  44 H44            5.6855    -2.7260    -1.6238 H       
  45 H45            5.6541    -3.5343    -3.9483 H       
  46 H46            1.3794    -3.4553    -3.9086 H       
  47 H47            1.4210    -2.6521    -1.5825 H       
  48 H48            1.3656    -4.1215    -5.8206 H       
  49 H49            2.1535    -4.9542    -8.1826 H       
  50 H50            4.8206    -4.9976    -8.1911 H       
  51 H51            5.5187     7.9254    -0.0135 H       
  52 H52            9.2183     5.7838    -0.0566 H       
@<TRIPOS>BOND
   1    1    2 ar
   2    1    6 ar
   3    1   37 1
   4    2    3 ar
   5    2   38 1
   6    3    4 ar
   7    3   39 1
   8    4    5 ar
   9    4    7 1
  10    5    6 ar
  11    5   10 1
  12    6   40 1
  13    7    8 1
  14    7   15 1
  15    8    9 2
  16    8   41 1
  17    9   10 1
  18    9   11 1
  19   10   13 2
  20   11   12 am
  21   11   14 2
  22   12   13 1
  23   12   27 1
  24   15   16 1
  25   15   42 1
  26   15   43 1
  27   16   17 ar
  28   16   21 ar
  29   17   18 ar
  30   17   44 1
  31   18   19 ar
  32   18   45 1
  33   19   20 ar
  34   19   22 1
  35   20   21 ar
  36   20   46 1
  37   21   47 1
  38   22   23 1
  39   22   26 1
  40   23   24 2
  41   23   48 1
  42   24   25 1
  43   24   49 1
  44   25   26 2
  45   25   50 1
  46   27   28 ar
  47   27   32 ar
  48   28   29 ar
  49   29   30 ar
  50   29   51 1
  51   30   31 ar
  52   30   33 1
  53   31   32 ar
  54   31   52 1
  55   33   34 1
  56   33   35 1
  57   33   36 1

#	End of record

