#	Name: ASD01200077
#	Creating user name:	WinNT
#	Creation time:	15. 06. 2019 19:08

#	Modifying user name:	WinNT
#	Modification time:	15. 06. 2019 19:08

#	Program:	/corina/corina34_cracker 3.40 0067  02.08.2006

@<TRIPOS>MOLECULE
ASD01200077
  36   38    0    0    0
SMALL
NO_CHARGES


@<TRIPOS>ATOM
   1 C1             0.4763     1.4882    -1.4636 C.2     
   2 C2             0.3527     0.1666    -0.8132 C.ar    
   3 C3             1.4596    -0.6790    -0.7299 C.ar    
   4 C4             1.3362    -1.9156    -0.1191 C.ar    
   5 C5             0.1137    -2.3116     0.4079 C.ar    
   6 C6            -0.9836    -1.4748     0.3260 C.ar    
   7 C7            -0.8702    -0.2376    -0.2750 C.ar    
   8 O8             1.5435     1.8401    -1.9271 O.2     
   9 N9            -0.5957     2.3007    -1.5477 N.am    
  10 S10            0.9568     4.1657    -2.8454 S.3     
  11 C11           -0.4796     3.5425    -2.1589 C.2     
  12 N12           -1.4448     4.3977    -2.2922 N.2     
  13 C13           -1.1574     5.5329    -2.9012 C.2     
  14 C14            0.1109     5.6421    -3.3016 C.2     
  15 C15           -2.1789     6.6178    -3.1263 C.3     
  16 O16            2.4115    -2.7423    -0.0357 O.3     
  17 C17            3.2271    -2.6215     1.0449 C.ar    
  18 C18            2.8928    -1.7524     2.0734 C.ar    
  19 C19            3.7224    -1.6310     3.1712 C.ar    
  20 C20            4.8873    -2.3759     3.2453 C.ar    
  21 C21            5.2222    -3.2436     2.2197 C.ar    
  22 C22            4.3916    -3.3714     1.1232 C.ar    
  23 F23            5.6981    -2.2554     4.3192 F       
  24 H24            2.4094    -0.3702    -1.1407 H       
  25 H25            0.0200    -3.2769     0.8831 H       
  26 H26           -1.9315    -1.7883     0.7378 H       
  27 H27           -1.7283     0.4156    -0.3329 H       
  28 H28           -1.4483     2.0182    -1.1813 H       
  29 H29            0.5433     6.4880    -3.8152 H       
  30 H30           -2.1760     7.3013    -2.2773 H       
  31 H31           -1.9320     7.1663    -4.0353 H       
  32 H32           -3.1675     6.1703    -3.2291 H       
  33 H33            1.9847    -1.1708     2.0155 H       
  34 H34            3.4625    -0.9545     3.9720 H       
  35 H35            6.1313    -3.8237     2.2787 H       
  36 H36            4.6509    -4.0516     0.3254 H       
@<TRIPOS>BOND
   1    1    2 1
   2    1    8 2
   3    1    9 am
   4    2    3 ar
   5    2    7 ar
   6    3    4 ar
   7    3   24 1
   8    4    5 ar
   9    4   16 1
  10    5    6 ar
  11    5   25 1
  12    6    7 ar
  13    6   26 1
  14    7   27 1
  15    9   11 1
  16    9   28 1
  17   10   11 1
  18   10   14 1
  19   11   12 2
  20   12   13 1
  21   13   14 2
  22   13   15 1
  23   14   29 1
  24   15   30 1
  25   15   31 1
  26   15   32 1
  27   16   17 1
  28   17   18 ar
  29   17   22 ar
  30   18   19 ar
  31   18   33 1
  32   19   20 ar
  33   19   34 1
  34   20   21 ar
  35   20   23 1
  36   21   22 ar
  37   21   35 1
  38   22   36 1

#	End of record

