#	Name: ASD01040024
#	Creating user name:	WinNT
#	Creation time:	15. 06. 2019 18:58

#	Modifying user name:	WinNT
#	Modification time:	15. 06. 2019 18:58

#	Program:	/corina/corina34_cracker 3.40 0067  02.08.2006

@<TRIPOS>MOLECULE
ASD01040024
  58   62    0    0    0
SMALL
NO_CHARGES


@<TRIPOS>ATOM
   1 C1             0.0054    -2.4750    -3.4106 C.3     
   2 C2            -0.2758    -1.8807    -2.0546 C.ar    
   3 C3            -0.5800    -2.7019    -0.9909 C.ar    
   4 C4            -0.8389    -2.1552     0.2597 C.ar    
   5 O5            -1.1380    -2.9691     1.3057 O.3     
   6 C6            -0.7925    -0.7796     0.4443 C.ar    
   7 C7            -0.4891     0.0500    -0.6137 C.ar    
   8 C8            -0.2227    -0.4956    -1.8725 C.ar    
   9 C9             0.1082     0.3866    -3.0054 C.2     
  10 C10           -0.7661     1.2320    -3.5729 C.2     
  11 C11           -2.1643     1.3820    -3.1330 C.ar    
  12 C12           -2.5419     2.4842    -2.3612 C.ar    
  13 C13           -3.8510     2.6201    -1.9520 C.ar    
  14 C14           -4.7941     1.6640    -2.3054 C.ar    
  15 O15           -6.0835     1.8025    -1.9001 O.3     
  16 C16           -4.4236     0.5667    -3.0724 C.ar    
  17 C17           -3.1185     0.4251    -3.4911 C.ar    
  18 C18           -2.7192    -0.7622    -4.3288 C.3     
  19 C19           -0.1424     2.0303    -4.7376 C.3     
  20 S20            0.9554     0.6987    -5.4322 S.o     
  21 O21            2.0120     1.2943    -6.1726 O.2     
  22 C22            1.5010     0.4467    -3.6681 C.3     
  23 C23            1.9303     1.9133    -3.3188 C.3     
  24 C24            0.9329     2.8761    -3.9724 C.3     
  25 S25            0.1192     3.8746    -2.6952 S.o2    
  26 O26           -0.9562     4.6175    -3.2529 O.2     
  27 O27           -0.0529     3.1178    -1.5049 O.2     
  28 O28            1.1511     4.9297    -2.3233 O.3     
  29 C29            1.2930     5.9146    -3.2489 C.ar    
  30 C30            0.5122     7.0587    -3.1714 C.ar    
  31 C31            0.6583     8.0584    -4.1136 C.ar    
  32 C32            1.5818     7.9194    -5.1332 C.ar    
  33 C33            2.3609     6.7799    -5.2128 C.ar    
  34 C34            2.2230     5.7801    -4.2696 C.ar    
  35 H35           -0.9351    -2.6468    -3.9341 H       
  36 H36            0.6222    -1.7865    -3.9882 H       
  37 H37            0.5324    -3.4215    -3.2903 H       
  38 H38           -0.6176    -3.7723    -1.1297 H       
  39 H39           -0.3664    -3.2604     1.8105 H       
  40 H40           -0.9949    -0.3592     1.4183 H       
  41 H41           -0.4533     1.1197    -0.4692 H       
  42 H42           -1.8091     3.2281    -2.0855 H       
  43 H43           -4.1437     3.4714    -1.3552 H       
  44 H44           -6.6396     2.2952    -2.5191 H       
  45 H45           -5.1605    -0.1745    -3.3445 H       
  46 H46           -2.5099    -1.6117    -3.6786 H       
  47 H47           -3.5321    -1.0169    -5.0089 H       
  48 H48           -1.8270    -0.5170    -4.9048 H       
  49 H49           -0.8185     2.5433    -5.4216 H       
  50 H50            2.1988    -0.3641    -3.4590 H       
  51 H51            1.9219     2.0513    -2.2376 H       
  52 H52            2.9310     2.1056    -3.7056 H       
  53 H53            1.4560     3.5291    -4.6710 H       
  54 H54           -0.2096     7.1675    -2.3754 H       
  55 H55            0.0504     8.9490    -4.0539 H       
  56 H56            1.6945     8.7021    -5.8688 H       
  57 H57            3.0811     6.6734    -6.0106 H       
  58 H58            2.8352     4.8924    -4.3294 H       
@<TRIPOS>BOND
   1    1    2 1
   2    1   35 1
   3    1   36 1
   4    1   37 1
   5    2    3 ar
   6    2    8 ar
   7    3    4 ar
   8    3   38 1
   9    4    5 1
  10    4    6 ar
  11    5   39 1
  12    6    7 ar
  13    6   40 1
  14    7    8 ar
  15    7   41 1
  16    8    9 1
  17    9   10 2
  18    9   22 1
  19   10   11 1
  20   10   19 1
  21   11   12 ar
  22   11   17 ar
  23   12   13 ar
  24   12   42 1
  25   13   14 ar
  26   13   43 1
  27   14   15 1
  28   14   16 ar
  29   15   44 1
  30   16   17 ar
  31   16   45 1
  32   17   18 1
  33   18   46 1
  34   18   47 1
  35   18   48 1
  36   19   20 1
  37   19   49 1
  38   19   24 1
  39   20   21 2
  40   20   22 1
  41   22   23 1
  42   22   50 1
  43   23   24 1
  44   23   51 1
  45   23   52 1
  46   24   25 1
  47   24   53 1
  48   25   26 2
  49   25   27 2
  50   25   28 1
  51   28   29 1
  52   29   30 ar
  53   29   34 ar
  54   30   31 ar
  55   30   54 1
  56   31   32 ar
  57   31   55 1
  58   32   33 ar
  59   32   56 1
  60   33   34 ar
  61   33   57 1
  62   34   58 1

#	End of record

