#	Name: ASD01720040
#	Creating user name:	WinNT
#	Creation time:	15. 06. 2019 19:23

#	Modifying user name:	WinNT
#	Modification time:	15. 06. 2019 19:23

#	Program:	/corina/corina34_cracker 3.40 0067  02.08.2006

@<TRIPOS>MOLECULE
ASD01720040
  66   68    0    0    0
SMALL
NO_CHARGES


@<TRIPOS>ATOM
   1 C1             0.0969     1.6223     0.0748 C.3     
   2 C2             0.1667     0.0944     0.0242 C.3     
   3 C3             0.8730    -0.4213     1.2812 C.3     
   4 C4             2.2676     0.2050     1.3668 C.3     
   5 C5             2.1368     1.7298     1.3785 C.3     
   6 N6             1.4556     2.1733     0.1555 N.3     
   7 C7             1.4365     3.5550     0.0715 C.ar    
   8 C8             2.6363     4.2627     0.1295 C.ar    
   9 C9             2.6186     5.6284     0.0461 C.ar    
  10 C10            1.3818     6.2756    -0.0962 C.ar    
  11 C11            0.2119     5.5021    -0.1477 C.ar    
  12 N12            0.2783     4.1841    -0.0683 N.ar    
  13 C13           -1.2500    -0.4800    -0.0376 C.3     
  14 C14           -1.1788    -1.9753    -0.2110 C.2     
  15 O15           -0.1050    -2.5252    -0.2782 O.2     
  16 O16           -2.3082    -2.6963    -0.2908 O.3     
  17 O17           -0.9910     6.1088    -0.2848 O.3     
  18 C18            1.3124     7.7431    -0.1895 C.2     
  19 O19            0.2352     8.2944    -0.3127 O.2     
  20 N20            2.4424     8.4758    -0.1384 N.am    
  21 C21            2.3734     9.9362    -0.2312 C.3     
  22 C22            2.1043    10.5233     1.1558 C.3     
  23 C23            3.7015    10.4767    -0.7649 C.3     
  24 C24            3.6294    12.0019    -0.8618 C.3     
  25 C25            3.3603    12.5889     0.5252 C.3     
  26 C26            2.0322    12.0485     1.0589 C.3     
  27 C27           -2.1424     5.2637    -0.3305 C.3     
  28 C28           -3.3803     6.1091    -0.4848 C.2     
  29 C29           -4.4439     5.8507     0.2351 C.2     
  30 C30           -4.4872     4.6170     1.0995 C.3     
  31 C31           -5.6241     6.7871     0.1987 C.3     
  32 H32           -0.3927     1.9935    -0.8255 H       
  33 H33           -0.4728     1.9310     0.9514 H       
  34 H34            0.7245    -0.2153    -0.8595 H       
  35 H35            0.2949    -0.1452     2.1630 H       
  36 H36            0.9635    -1.5063     1.2289 H       
  37 H37            2.7592    -0.1251     2.2819 H       
  38 H38            2.8584    -0.1029     0.5041 H       
  39 H39            1.5576     2.0379     2.2489 H       
  40 H40            3.1288     2.1790     1.4249 H       
  41 H41            3.5731     3.7367     0.2398 H       
  42 H42            3.5365     6.1958     0.0893 H       
  43 H43           -1.7776    -0.2462     0.8871 H       
  44 H44           -1.7834    -0.0414    -0.8810 H       
  45 H45           -2.2119    -3.6520    -0.4018 H       
  46 H46            3.3015     8.0361    -0.0401 H       
  47 H47            1.5675    10.2195    -0.9082 H       
  48 H48            1.1581    10.1382     1.5360 H       
  49 H49            2.9102    10.2399     1.8329 H       
  50 H50            4.5074    10.1933    -0.0878 H       
  51 H51            3.8932    10.0584    -1.7530 H       
  52 H52            4.5756    12.3869    -1.2420 H       
  53 H53            2.8235    12.2852    -1.5389 H       
  54 H54            4.1662    12.3056     1.2022 H       
  55 H55            3.3090    13.6755     0.4561 H       
  56 H56            1.2263    12.3318     0.3818 H       
  57 H57            1.8405    12.4667     2.0470 H       
  58 H58           -2.0597     4.5825    -1.1774 H       
  59 H59           -2.2079     4.6886     0.5932 H       
  60 H60           -3.3907     6.9280    -1.1888 H       
  61 H61           -3.5942     4.0177     0.9223 H       
  62 H62           -4.5260     4.9097     2.1487 H       
  63 H63           -5.3727     4.0314     0.8527 H       
  64 H64           -6.3081     6.4790    -0.5920 H       
  65 H65           -6.1408     6.7578     1.1580 H       
  66 H66           -5.2769     7.8018     0.0039 H       
@<TRIPOS>BOND
   1    1    2 1
   2    1    6 1
   3    1   32 1
   4    1   33 1
   5    2    3 1
   6    2   13 1
   7    2   34 1
   8    3    4 1
   9    3   35 1
  10    3   36 1
  11    4    5 1
  12    4   37 1
  13    4   38 1
  14    5    6 1
  15    5   39 1
  16    5   40 1
  17    6    7 1
  18    7    8 ar
  19    7   12 ar
  20    8    9 ar
  21    8   41 1
  22    9   10 ar
  23    9   42 1
  24   10   11 ar
  25   10   18 1
  26   11   12 ar
  27   11   17 1
  28   13   14 1
  29   13   43 1
  30   13   44 1
  31   14   15 2
  32   14   16 1
  33   16   45 1
  34   17   27 1
  35   18   19 2
  36   18   20 am
  37   20   21 1
  38   20   46 1
  39   21   23 1
  40   21   22 1
  41   21   47 1
  42   22   26 1
  43   22   48 1
  44   22   49 1
  45   23   24 1
  46   23   50 1
  47   23   51 1
  48   24   25 1
  49   24   52 1
  50   24   53 1
  51   25   26 1
  52   25   54 1
  53   25   55 1
  54   26   56 1
  55   26   57 1
  56   27   28 1
  57   27   58 1
  58   27   59 1
  59   28   29 2
  60   28   60 1
  61   29   30 1
  62   29   31 1
  63   30   61 1
  64   30   62 1
  65   30   63 1
  66   31   64 1
  67   31   65 1
  68   31   66 1

#	End of record

