#	Name: ASD01810209
#	Creating user name:	WinNT
#	Creation time:	15. 06. 2019 19:24

#	Modifying user name:	WinNT
#	Modification time:	15. 06. 2019 19:24

#	Program:	/corina/corina34_cracker 3.40 0067  02.08.2006

@<TRIPOS>MOLECULE
ASD01810209
  60   64    0    0    0
SMALL
NO_CHARGES


@<TRIPOS>ATOM
   1 C1             0.1038     1.4771     0.3905 C.ar    
   2 C2             0.0850     0.0899     0.3824 C.ar    
   3 C3             1.2535    -0.6295     0.2404 C.ar    
   4 C4             2.4697     0.0388     0.1031 C.ar    
   5 C5             2.4840     1.4435     0.1118 C.ar    
   6 C6             1.2942     2.1570     0.2563 C.ar    
   7 N7             3.6451    -0.6678    -0.0386 N.pl3   
   8 C8             4.8373    -0.0734    -0.1723 C.2     
   9 C9             4.9780     1.2999    -0.1780 C.2     
  10 C10            3.7768     2.1382    -0.0343 C.2     
  11 O11            3.8478     3.3547    -0.0335 O.2     
  12 C12            6.3048     1.9145    -0.3261 C.2     
  13 O13            6.4292     3.2568    -0.3302 O.3     
  14 O14            7.2900     1.2124    -0.4448 O.2     
  15 C15            3.5871    -2.1316    -0.0427 C.3     
  16 C16            3.4445    -2.6248    -1.4595 C.ar    
  17 C17            4.5665    -2.7659    -2.2561 C.ar    
  18 C18            4.4419    -3.2176    -3.5543 C.ar    
  19 C19            3.1828    -3.5316    -4.0622 C.ar    
  20 C20            2.0559    -3.3875    -3.2551 C.ar    
  21 C21            2.1928    -2.9400    -1.9568 C.ar    
  22 C22            3.0425    -4.0171    -5.4570 C.ar    
  23 C23            1.7815    -4.3345    -5.9741 C.ar    
  24 C24            1.7000    -4.7827    -7.2778 C.ar    
  25 C25            2.8655    -4.9032    -8.0291 C.ar    
  26 N26            4.0440    -4.5942    -7.5091 N.ar    
  27 C27            4.1628    -4.1578    -6.2712 C.ar    
  28 N28            2.7920    -5.3538    -9.3412 N.3     
  29 F29            1.2196    -1.9801     0.2348 F       
  30 C30            4.1262    -5.4087    -9.9547 C.3     
  31 C31            4.0114    -5.9835   -11.3686 C.3     
  32 N32            3.1035    -5.1447   -12.1634 N.3     
  33 C33            1.7693    -5.0898   -11.5498 C.3     
  34 C34            1.8841    -4.5149   -10.1360 C.3     
  35 C35            3.0257    -5.6211   -13.5508 C.3     
  36 H36           -0.8198     2.0265     0.4981 H       
  37 H37           -0.8544    -0.4323     0.4888 H       
  38 H38            1.3061     3.2370     0.2626 H       
  39 H39            5.7183    -0.6888    -0.2788 H       
  40 H40            7.3219     3.6146    -0.4302 H       
  41 H41            4.5030    -2.5327     0.3912 H       
  42 H42            2.7311    -2.4629     0.5452 H       
  43 H43            5.5418    -2.5219    -1.8616 H       
  44 H44            5.3186    -3.3271    -4.1755 H       
  45 H45            1.0777    -3.6295    -3.6437 H       
  46 H46            1.3202    -2.8280    -1.3304 H       
  47 H47            0.8935    -4.2317    -5.3681 H       
  48 H48            0.7431    -5.0370    -7.7093 H       
  49 H49            5.1404    -3.9154    -5.8816 H       
  50 H50            4.5456    -4.4038   -10.0037 H       
  51 H51            4.7764    -6.0456    -9.3549 H       
  52 H52            4.9959    -5.9982   -11.8362 H       
  53 H53            3.6175    -6.9985   -11.3175 H       
  54 H54            1.1191    -4.4529   -12.1496 H       
  55 H55            1.3499    -6.0947   -11.5009 H       
  56 H56            0.8996    -4.5003    -9.6684 H       
  57 H57            2.2780    -3.4999   -10.1870 H       
  58 H58            2.6549    -6.6460   -13.5627 H       
  59 H59            2.3473    -4.9827   -14.1167 H       
  60 H60            4.0172    -5.5882   -14.0024 H       
@<TRIPOS>BOND
   1    1    2 ar
   2    1    6 ar
   3    1   36 1
   4    2    3 ar
   5    2   37 1
   6    3    4 ar
   7    3   29 1
   8    4    5 ar
   9    4    7 1
  10    5    6 ar
  11    5   10 1
  12    6   38 1
  13    7    8 1
  14    7   15 1
  15    8    9 2
  16    8   39 1
  17    9   10 1
  18    9   12 1
  19   10   11 2
  20   12   13 1
  21   12   14 2
  22   13   40 1
  23   15   16 1
  24   15   41 1
  25   15   42 1
  26   16   17 ar
  27   16   21 ar
  28   17   18 ar
  29   17   43 1
  30   18   19 ar
  31   18   44 1
  32   19   20 ar
  33   19   22 1
  34   20   21 ar
  35   20   45 1
  36   21   46 1
  37   22   23 ar
  38   22   27 ar
  39   23   24 ar
  40   23   47 1
  41   24   25 ar
  42   24   48 1
  43   25   26 ar
  44   25   28 1
  45   26   27 ar
  46   27   49 1
  47   28   30 1
  48   28   34 1
  49   30   31 1
  50   30   50 1
  51   30   51 1
  52   31   32 1
  53   31   52 1
  54   31   53 1
  55   32   33 1
  56   32   35 1
  57   33   34 1
  58   33   54 1
  59   33   55 1
  60   34   56 1
  61   34   57 1
  62   35   58 1
  63   35   59 1
  64   35   60 1

#	End of record

