#	Name: ASD01884494
#	Creating user name:	WinNT
#	Creation time:	15. 06. 2019 19:48

#	Modifying user name:	WinNT
#	Modification time:	15. 06. 2019 19:48

#	Program:	/corina/corina34_cracker 3.40 0067  02.08.2006

@<TRIPOS>MOLECULE
ASD01884494
  37   39    0    0    0
SMALL
NO_CHARGES


@<TRIPOS>ATOM
   1 C1            -0.0164     1.3576     0.0095 C.2     
   2 C2             0.0021    -0.0041     0.0020 C.2     
   3 C3             1.2439    -0.6751    -0.0134 C.2     
   4 C4             2.4022     0.0464    -0.0206 C.2     
   5 N5             2.3700     1.4023    -0.0130 N.am    
   6 C6             1.1986     2.0652     0.0017 C.2     
   7 C7             3.6266     2.1553    -0.0205 C.3     
   8 O8             1.1911     3.2857     0.0083 O.2     
   9 C9             4.0445     2.4211    -1.4438 C.ar    
  10 C10            3.6207     3.5701    -2.0852 C.ar    
  11 C11            4.0036     3.8144    -3.3905 C.ar    
  12 C12            4.8112     2.9089    -4.0553 C.ar    
  13 C13            5.2350     1.7592    -3.4129 C.ar    
  14 C14            4.8561     1.5187    -2.1056 C.ar    
  15 Cl15           5.2921     3.2148    -5.6951 Cl      
  16 C16            1.2895    -2.1586    -0.0214 C.ar    
  17 C17            0.8156    -2.8958     1.0664 C.ar    
  18 C18            1.8022    -2.8538    -1.1191 C.ar    
  19 N19            1.8256    -4.1749    -1.0876 N.ar    
  20 C20            1.3721    -4.8374    -0.0356 C.ar    
  21 N21            0.8738    -4.2155     1.0209 N.ar    
  22 O22            1.4134    -6.1915    -0.0430 O.3     
  23 C23            0.9124    -6.8622     1.1151 C.3     
  24 H24           -0.9563     1.8895     0.0169 H       
  25 H25           -0.9217    -0.5635     0.0082 H       
  26 H26            3.3526    -0.4666    -0.0321 H       
  27 H27            3.4856     3.1027     0.4997 H       
  28 H28            4.4004     1.5758     0.4831 H       
  29 H29            2.9900     4.2767    -1.5663 H       
  30 H30            3.6722     4.7119    -3.8916 H       
  31 H31            5.8654     1.0519    -3.9313 H       
  32 H32            5.1868     0.6212    -1.6040 H       
  33 H33            0.4080    -2.3948     1.9320 H       
  34 H34            2.1737    -2.3196    -1.9811 H       
  35 H35            1.0038    -7.9398     0.9789 H       
  36 H36            1.4874    -6.5564     1.9892 H       
  37 H37           -0.1360    -6.6019     1.2607 H       
@<TRIPOS>BOND
   1    1    2 2
   2    1    6 1
   3    1   24 1
   4    2    3 1
   5    2   25 1
   6    3    4 2
   7    3   16 1
   8    4    5 1
   9    4   26 1
  10    5    6 am
  11    5    7 1
  12    6    8 2
  13    7    9 1
  14    7   27 1
  15    7   28 1
  16    9   10 ar
  17    9   14 ar
  18   10   11 ar
  19   10   29 1
  20   11   12 ar
  21   11   30 1
  22   12   13 ar
  23   12   15 1
  24   13   14 ar
  25   13   31 1
  26   14   32 1
  27   16   17 ar
  28   16   18 ar
  29   17   21 ar
  30   17   33 1
  31   18   19 ar
  32   18   34 1
  33   19   20 ar
  34   20   21 ar
  35   20   22 1
  36   22   23 1
  37   23   35 1
  38   23   36 1
  39   23   37 1

#	End of record

