#	Name: ASD04220042
#	Creating user name:	WinNT
#	Creation time:	15. 06. 2019 20:48

#	Modifying user name:	WinNT
#	Modification time:	15. 06. 2019 20:48

#	Program:	/corina/corina34_cracker 3.40 0067  02.08.2006

@<TRIPOS>MOLECULE
ASD04220042
  55   57    0    0    0
SMALL
NO_CHARGES


@<TRIPOS>ATOM
   1 C1            -0.0168     1.3877     0.0097 C.ar    
   2 C2             0.0021    -0.0041     0.0020 C.ar    
   3 C3             1.2089    -0.6756    -0.0131 C.ar    
   4 C4             2.4042     0.0405    -0.0208 C.ar    
   5 C5             2.3909     1.4393    -0.0131 C.ar    
   6 C6             1.1434     2.0989     0.0024 C.ar    
   7 S7             4.0820    -0.4966    -0.0407 S.3     
   8 C8             4.6292     1.1743    -0.0373 C.2     
   9 N9             3.6285     1.9725    -0.0229 N.2     
  10 C10            6.0730     1.6060    -0.0492 C.3     
  11 O11            6.5426     1.7354     1.2942 O.3     
  12 C12            7.8365     2.1208     1.4617 C.ar    
  13 C13            8.3595     2.2667     2.7469 C.ar    
  14 C14            8.6333     2.3621     0.3590 C.ar    
  15 C15            9.9558     2.7560     0.5382 C.ar    
  16 C16           10.4823     2.9089     1.8286 C.ar    
  17 C17            9.6724     2.6581     2.9296 C.ar    
  18 C18           11.0634     3.0894    -0.3810 C.2     
  19 C19           12.1219     3.4025     0.4157 C.2     
  20 O20           11.7701     3.2934     1.7020 O.3     
  21 C21           11.0297     3.0833    -1.8496 C.2     
  22 O22           10.0072     2.7795    -2.4329 O.2     
  23 O23           12.1326     3.4147    -2.5505 O.3     
  24 C24           12.0266     3.3870    -3.9984 C.3     
  25 C25           10.9427     4.3682    -4.4493 C.3     
  26 C26           13.3675     3.7892    -4.6158 C.3     
  27 C27           11.6579     1.9743    -4.4558 C.3     
  28 O28           -1.1652    -0.7011     0.0099 O.3     
  29 S29           -1.7105    -1.0110    -1.3768 S.o2    
  30 O30           -3.0954    -1.4200    -1.2012 O.co2   
  31 O31           -1.5972     0.2126    -2.1552 O.co2   
  32 O32           -0.8898    -2.0819    -1.9206 O.co2   
  33 O33            7.5715     2.0223     3.8281 O.3     
  34 C34            8.1671     2.1898     5.1162 C.3     
  35 H35           -0.9627     1.9089     0.0170 H       
  36 H36            1.2261    -1.7554    -0.0187 H       
  37 H37            1.1091     3.1784     0.0085 H       
  38 H38            6.6709     0.8601    -0.5729 H       
  39 H39            6.1611     2.5654    -0.5589 H       
  40 H40            8.2319     2.2452    -0.6368 H       
  41 H41           10.0676     2.7731     3.9280 H       
  42 H42           13.0995     3.6953     0.0623 H       
  43 H43           11.2054     5.3747    -4.1234 H       
  44 H44           10.8631     4.3474    -5.5361 H       
  45 H45            9.9875     4.0817    -4.0094 H       
  46 H46           14.1397     3.0902    -4.2946 H       
  47 H47           13.2879     3.7684    -5.7027 H       
  48 H48           13.6302     4.7956    -4.2899 H       
  49 H49           10.7026     1.6877    -4.0160 H       
  50 H50           11.5782     1.9535    -5.5427 H       
  51 H51           12.4300     1.2752    -4.1346 H       
  52 H52            7.4320     1.9637     5.8886 H       
  53 H53            9.0167     1.5140     5.2143 H       
  54 H54            8.5069     3.2194     5.2282 H       
  55 Na55          19.1397    10.3747    10.8886 Du      
@<TRIPOS>BOND
   1    1    2 ar
   2    1    6 ar
   3    1   35 1
   4    2    3 ar
   5    2   28 1
   6    3    4 ar
   7    3   36 1
   8    4    5 ar
   9    4    7 1
  10    5    6 ar
  11    5    9 1
  12    6   37 1
  13    7    8 1
  14    8    9 2
  15    8   10 1
  16   10   11 1
  17   10   38 1
  18   10   39 1
  19   11   12 1
  20   12   13 ar
  21   12   14 ar
  22   13   33 1
  23   13   17 ar
  24   14   15 ar
  25   14   40 1
  26   15   16 ar
  27   15   18 1
  28   16   17 ar
  29   16   20 1
  30   17   41 1
  31   18   19 2
  32   18   21 1
  33   19   20 1
  34   19   42 1
  35   21   22 2
  36   21   23 1
  37   23   24 1
  38   24   25 1
  39   24   26 1
  40   24   27 1
  41   25   43 1
  42   25   44 1
  43   25   45 1
  44   26   46 1
  45   26   47 1
  46   26   48 1
  47   27   49 1
  48   27   50 1
  49   27   51 1
  50   28   29 1
  51   29   30 ar
  52   29   31 ar
  53   29   32 ar
  54   33   34 1
  55   34   52 1
  56   34   53 1
  57   34   54 1

#	End of record

