#	Name: ASD03090007
#	Creating user name:	WinNT
#	Creation time:	15. 06. 2019 20:28

#	Modifying user name:	WinNT
#	Modification time:	15. 06. 2019 20:28

#	Program:	/corina/corina34_cracker 3.40 0067  02.08.2006

@<TRIPOS>MOLECULE
ASD03090007
  48   50    0    0    0
SMALL
NO_CHARGES


@<TRIPOS>ATOM
   1 C1            -0.0179     1.4712     0.0101 C.2     
   2 C2             0.0021    -0.0041     0.0020 C.ar    
   3 C3             1.2230    -0.6922    -0.0133 C.ar    
   4 C4             1.2307    -2.0787    -0.0204 C.ar    
   5 C5             0.0399    -2.7780    -0.0127 C.ar    
   6 C6            -1.1698    -2.1018     0.0024 C.ar    
   7 C7            -1.1955    -0.7227     0.0154 C.ar    
   8 O8             1.0267     2.0934     0.0035 O.2     
   9 N9            -1.1942     2.1291     0.0193 N.am    
  10 O10            2.3925    -0.0045    -0.0217 O.3     
  11 C11            3.5971    -0.7731    -0.0373 C.3     
  12 C12           -1.2140     3.5940     0.0273 C.3     
  13 C13           -2.4507     4.2805     0.6105 C.3     
  14 C14           -2.2104     4.2921    -0.9005 C.3     
  15 C15           -1.7830     5.5943    -1.5271 C.ar    
  16 C16           -2.5632     6.1785    -2.5073 C.ar    
  17 C17           -2.1711     7.3730    -3.0821 C.ar    
  18 C18           -0.9991     7.9834    -2.6764 C.ar    
  19 C19           -0.2194     7.3996    -1.6956 C.ar    
  20 C20           -0.6136     6.2073    -1.1177 C.ar    
  21 S21           -0.4988     9.5053    -3.4100 S.o2    
  22 O22            0.9087     9.5916    -3.2347 O.2     
  23 O23           -1.1285     9.5636    -4.6825 O.2     
  24 N24           -1.1583    10.7256    -2.5055 N.am    
  25 C25           -3.5721     3.3846     1.1406 C.3     
  26 C26           -2.2388     5.5919     1.3696 C.3     
  27 Cl27          -2.6589    -2.9942     0.0119 Cl      
  28 H28            2.1695    -2.6127    -0.0322 H       
  29 H29            0.0513    -3.8579    -0.0190 H       
  30 H30           -2.1401    -0.1994     0.0314 H       
  31 H31           -2.0275     1.6327     0.0205 H       
  32 H32            4.4561    -0.1023    -0.0427 H       
  33 H33            3.6358    -1.4059     0.8494 H       
  34 H34            3.6181    -1.3976    -0.9305 H       
  35 H35           -0.2494     4.0765     0.1845 H       
  36 H36           -2.8511     3.6615    -1.5168 H       
  37 H37           -3.4789     5.7016    -2.8243 H       
  38 H38           -2.7803     7.8291    -3.8485 H       
  39 H39            0.6965     7.8764    -1.3788 H       
  40 H40           -0.0063     5.7531    -0.3487 H       
  41 H41           -0.7031    11.5795    -2.4375 H       
  42 H42           -1.9999    10.5866    -2.0436 H       
  43 H43           -3.6285     3.4765     2.2253 H       
  44 H44           -4.5209     3.6911     0.7002 H       
  45 H45           -3.3657     2.3481     0.8741 H       
  46 H46           -1.2073     5.9213     1.2448 H       
  47 H47           -2.9133     6.3525     0.9763 H       
  48 H48           -2.4448     5.4361     2.4286 H       
@<TRIPOS>BOND
   1    1    2 1
   2    1    8 2
   3    1    9 am
   4    2    3 ar
   5    2    7 ar
   6    3    4 ar
   7    3   10 1
   8    4    5 ar
   9    4   28 1
  10    5    6 ar
  11    5   29 1
  12    6    7 ar
  13    6   27 1
  14    7   30 1
  15    9   12 1
  16    9   31 1
  17   10   11 1
  18   11   32 1
  19   11   33 1
  20   11   34 1
  21   12   13 1
  22   12   14 1
  23   12   35 1
  24   13   14 1
  25   13   25 1
  26   13   26 1
  27   14   15 1
  28   14   36 1
  29   15   16 ar
  30   15   20 ar
  31   16   17 ar
  32   16   37 1
  33   17   18 ar
  34   17   38 1
  35   18   19 ar
  36   18   21 1
  37   19   20 ar
  38   19   39 1
  39   20   40 1
  40   21   22 2
  41   21   23 2
  42   21   24 am
  43   24   41 1
  44   24   42 1
  45   25   43 1
  46   25   44 1
  47   25   45 1
  48   26   46 1
  49   26   47 1
  50   26   48 1

#	End of record

