#	Name: ASD02039363
#	Creating user name:	WinNT
#	Creation time:	15. 06. 2019 20:18

#	Modifying user name:	WinNT
#	Modification time:	15. 06. 2019 20:18

#	Program:	/corina/corina34_cracker 3.40 0067  02.08.2006

@<TRIPOS>MOLECULE
ASD02039363
  51   53    0    0    0
SMALL
NO_CHARGES


@<TRIPOS>ATOM
   1 C1             0.1366     1.1861    -0.3140 C.ar    
   2 C2             0.5194    -0.0919     0.0529 C.ar    
   3 C3            -0.3838    -1.1369    -0.0137 C.ar    
   4 C4            -2.0710     0.3813    -0.8086 C.ar    
   5 C5            -1.1520     1.4281    -0.7438 C.ar    
   6 C6            -3.4557     0.6346    -1.2692 C.2     
   7 C7             1.1282     2.3184    -0.2379 C.3     
   8 N8             1.9437     2.3359    -1.4548 N.am    
   9 C9             1.4494     3.0092    -2.6583 C.3     
  10 C10            3.1488     1.7325    -1.4671 C.2     
  11 C11            3.6013     0.9668    -0.2926 C.2     
  12 C12            4.7345     0.2117    -0.2099 C.2     
  13 N13            2.9697     0.8889     0.9065 N.2     
  14 C14            3.6631     0.1233     1.6986 C.2     
  15 N15            4.7658    -0.3146     1.0370 N.pl3   
  16 O16            3.8628     1.8201    -2.4478 O.2     
  17 C17            5.8024    -1.1985     1.5758 C.3     
  18 C18           -4.5246     0.6723    -0.3455 C.2     
  19 C19            2.4316     4.1086    -3.0675 C.3     
  20 C20            1.3193     1.9927    -3.7944 C.3     
  21 C21           -1.6763    -0.9097    -0.4485 C.ar    
  22 C22           -3.7244     0.8444    -2.6136 C.2     
  23 C23           -5.0462     1.0817    -3.0145 C.2     
  24 N24           -6.0357     1.1043    -2.1026 N.am    
  25 C25           -5.7807     0.9049    -0.7827 C.2     
  26 O26           -5.3006     1.2689    -4.1939 O.2     
  27 C27           -7.4115     1.3538    -2.5399 C.3     
  28 F28           -2.5585    -1.9308    -0.5140 F       
  29 H29            1.5283    -0.2742     0.3924 H       
  30 H30           -0.0788    -2.1322     0.2740 H       
  31 H31           -1.4509     2.4282    -1.0209 H       
  32 H32            0.5938     3.2638    -0.1450 H       
  33 H33            1.7731     2.1788     0.6297 H       
  34 H34            0.4744     3.4512    -2.4528 H       
  35 H35            5.4663     0.0621    -0.9900 H       
  36 H36            3.4050    -0.1218     2.7183 H       
  37 H37            5.5345    -2.2362     1.3769 H       
  38 H38            6.7565    -0.9719     1.0999 H       
  39 H39            5.8875    -1.0450     2.6516 H       
  40 H40           -4.3375     0.5152     0.7065 H       
  41 H41            3.4224     3.6766    -3.2082 H       
  42 H42            2.0985     4.5648    -3.9997 H       
  43 H43            2.4737     4.8675    -2.2862 H       
  44 H44            0.5854     1.2345    -3.5212 H       
  45 H45            0.9951     2.5018    -4.7020 H       
  46 H46            2.2846     1.5177    -3.9692 H       
  47 H47           -2.9264     0.8256    -3.3411 H       
  48 H48           -6.5951     0.9282    -0.0738 H       
  49 H49           -7.8948     0.4061    -2.7775 H       
  50 H50           -7.9617     1.8521    -1.7417 H       
  51 H51           -7.4017     1.9888    -3.4257 H       
@<TRIPOS>BOND
   1    1    2 ar
   2    1    7 1
   3    1    5 ar
   4    2    3 ar
   5    2   29 1
   6    3   21 ar
   7    3   30 1
   8    4    5 ar
   9    4    6 1
  10    4   21 ar
  11    5   31 1
  12    6   18 1
  13    6   22 2
  14    7    8 1
  15    7   32 1
  16    7   33 1
  17    8    9 1
  18    8   10 am
  19    9   20 1
  20    9   19 1
  21    9   34 1
  22   10   11 1
  23   10   16 2
  24   11   12 2
  25   11   13 1
  26   12   15 1
  27   12   35 1
  28   13   14 2
  29   14   15 1
  30   14   36 1
  31   15   17 1
  32   17   37 1
  33   17   38 1
  34   17   39 1
  35   18   25 2
  36   18   40 1
  37   19   41 1
  38   19   42 1
  39   19   43 1
  40   20   44 1
  41   20   45 1
  42   20   46 1
  43   21   28 1
  44   22   23 1
  45   22   47 1
  46   23   24 am
  47   23   26 2
  48   24   25 1
  49   24   27 1
  50   25   48 1
  51   27   49 1
  52   27   50 1
  53   27   51 1

#	End of record

