#	Name: ASD01208721
#	Creating user name:	WinNT
#	Creation time:	15. 06. 2019 19:10

#	Modifying user name:	WinNT
#	Modification time:	15. 06. 2019 19:10

#	Program:	/corina/corina34_cracker 3.40 0067  02.08.2006

@<TRIPOS>MOLECULE
ASD01208721
  58   61    0    0    0
SMALL
NO_CHARGES


@<TRIPOS>ATOM
   1 C1             0.1635     1.3075    -0.1905 C.2     
   2 C2             0.1928    -0.1078     0.2151 C.ar    
   3 C3             1.3809    -0.8477     0.1066 C.ar    
   4 C4             1.3995    -2.1774     0.4907 C.ar    
   5 C5             0.2474    -2.7748     0.9807 C.ar    
   6 C6            -0.9311    -2.0428     1.0884 C.ar    
   7 C7            -0.9612    -0.7188     0.7154 C.ar    
   8 O8             1.1701     1.8378    -0.6206 O.2     
   9 N9            -0.9800     2.0137    -0.0904 N.am    
  10 S10           -2.3841     4.3601    -0.3996 S.3     
  11 C11           -1.0076     3.3487    -0.4730 C.2     
  12 N12            0.0067     4.0092    -0.9373 N.2     
  13 C13           -0.1979     5.2748    -1.2518 C.2     
  14 C14           -1.4441     5.7038    -1.0434 C.2     
  15 C15           -1.9577     7.0950    -1.3118 C.3     
  16 O16            2.5063    -0.2618    -0.3732 O.3     
  17 C17            3.6178    -1.0307    -0.5074 C.ar    
  18 C18            3.7263    -1.9110    -1.5766 C.ar    
  19 C19            4.8526    -2.6927    -1.7162 C.ar    
  20 C20            5.8857    -2.5988    -0.7815 C.ar    
  21 C21            5.7731    -1.7124     0.2915 C.ar    
  22 C22            4.6458    -0.9305     0.4216 C.ar    
  23 O23            8.1627    -3.4481    -0.1046 O.3     
  24 C24            7.0948    -3.4356    -0.9273 C.2     
  25 N25            7.3292    -4.3059    -1.8818 N.2     
  26 N26            8.4796    -4.8485    -1.6880 N.2     
  27 C27            9.0206    -4.3507    -0.6116 C.2     
  28 C28           10.3651    -4.7196    -0.0394 C.3     
  29 O29            0.2696    -4.0788     1.3562 O.3     
  30 C30           -0.9155    -6.1785     1.5210 C.3     
  31 C31           -0.9763    -4.6652     1.7381 C.3     
  32 C32           -1.2463    -4.3724     3.2154 C.3     
  33 O33            0.0557    -6.7474     2.4014 O.3     
  34 C34            0.1921    -8.1646     2.2787 C.3     
  35 H35            2.3114    -2.7502     0.4084 H       
  36 H36           -1.8244    -2.5145     1.4704 H       
  37 H37           -1.8766    -0.1528     0.8050 H       
  38 H38           -1.7838     1.5897     0.2489 H       
  39 H39            0.5805     5.9115    -1.6456 H       
  40 H40           -3.0131     7.1504    -1.0450 H       
  41 H41           -1.3939     7.8119    -0.7150 H       
  42 H42           -1.8376     7.3288    -2.3696 H       
  43 H43            2.9269    -1.9830    -2.2991 H       
  44 H44            4.9360    -3.3774    -2.5472 H       
  45 H45            6.5701    -1.6370     1.0164 H       
  46 H46            4.5597    -0.2417     1.2490 H       
  47 H47           10.2471    -5.5454     0.6622 H       
  48 H48           11.0331    -5.0210    -0.8463 H       
  49 H49           10.7875    -3.8593     0.4797 H       
  50 H50           -1.8928    -6.6148     1.7275 H       
  51 H51           -0.6357    -6.3864     0.4883 H       
  52 H52           -1.7777    -4.2431     1.1317 H       
  53 H53           -0.4450    -4.7945     3.8218 H       
  54 H54           -1.2896    -3.2943     3.3700 H       
  55 H55           -2.1966    -4.8197     3.5067 H       
  56 H56            0.4949    -8.4137     1.2616 H       
  57 H57            0.9477    -8.5189     2.9798 H       
  58 H58           -0.7622    -8.6420     2.5009 H       
@<TRIPOS>BOND
   1    1    2 1
   2    1    8 2
   3    1    9 am
   4    2    3 ar
   5    2    7 ar
   6    3    4 ar
   7    3   16 1
   8    4    5 ar
   9    4   35 1
  10    5    6 ar
  11    5   29 1
  12    6    7 ar
  13    6   36 1
  14    7   37 1
  15    9   11 1
  16    9   38 1
  17   10   11 1
  18   10   14 1
  19   11   12 2
  20   12   13 1
  21   13   14 2
  22   13   39 1
  23   14   15 1
  24   15   40 1
  25   15   41 1
  26   15   42 1
  27   16   17 1
  28   17   18 ar
  29   17   22 ar
  30   18   19 ar
  31   18   43 1
  32   19   20 ar
  33   19   44 1
  34   20   21 ar
  35   20   24 1
  36   21   22 ar
  37   21   45 1
  38   22   46 1
  39   23   24 1
  40   23   27 1
  41   24   25 2
  42   25   26 1
  43   26   27 2
  44   27   28 1
  45   28   47 1
  46   28   48 1
  47   28   49 1
  48   29   31 1
  49   30   31 1
  50   30   33 1
  51   30   50 1
  52   30   51 1
  53   31   32 1
  54   31   52 1
  55   32   53 1
  56   32   54 1
  57   32   55 1
  58   33   34 1
  59   34   56 1
  60   34   57 1
  61   34   58 1

#	End of record

