#	Name: ASD01231328
#	Creating user name:	WinNT
#	Creation time:	15. 06. 2019 19:15

#	Modifying user name:	WinNT
#	Modification time:	15. 06. 2019 19:15

#	Program:	/corina/corina34_cracker 3.40 0067  02.08.2006

@<TRIPOS>MOLECULE
ASD01231328
  36   37    0    0    0
SMALL
NO_CHARGES


@<TRIPOS>ATOM
   1 C1            -0.2308    -0.5160     0.9488 C.3     
   2 C2            -0.9973    -1.6921     0.3404 C.3     
   3 C3            -1.1316    -2.8061     1.3806 C.3     
   4 S4            -2.6478    -1.1391    -0.1699 S.o2    
   5 O5            -3.2976    -2.1467    -0.9326 O.2     
   6 O6            -3.3123    -0.4926     0.9071 O.2     
   7 N7            -2.3587     0.0746    -1.2588 N.am    
   8 C8            -1.6986    -0.2253    -2.5318 C.3     
   9 C9            -2.7491    -0.4468    -3.6407 C.3     
  10 C10           -2.8889     0.9640    -4.2510 C.3     
  11 C11           -1.5650     1.6458    -3.9800 C.ar    
  12 C12           -1.0031     2.7749    -4.5524 C.ar    
  13 C13            0.2374     3.2195    -4.1394 C.ar    
  14 C14            0.9215     2.5360    -3.1514 C.ar    
  15 C15            0.3630     1.4099    -2.5794 C.ar    
  16 C16           -0.8810     0.9625    -2.9922 C.ar    
  17 C17            0.8451     4.4482    -4.7655 C.3     
  18 Cl18           0.3461     5.9078    -3.8320 Cl      
  19 H19            0.7610    -0.8483     1.2555 H       
  20 H20           -0.1351     0.2776     0.2078 H       
  21 H21           -0.7723    -0.1394     1.8167 H       
  22 H22           -0.4558    -2.0687    -0.5274 H       
  23 H23           -1.6731    -2.4295     2.2484 H       
  24 H24           -1.6777    -3.6440     0.9472 H       
  25 H25           -0.1398    -3.1384     1.6872 H       
  26 H26           -2.6263     0.9841    -1.0537 H       
  27 H27           -1.0646    -1.1061    -2.4301 H       
  28 H28           -2.3845    -1.1560    -4.3837 H       
  29 H29           -3.6959    -0.7809    -3.2163 H       
  30 H30           -3.0666     0.8959    -5.3242 H       
  31 H31           -3.7002     1.5071    -3.7662 H       
  32 H32           -1.5368     3.3091    -5.3245 H       
  33 H33            1.8919     2.8821    -2.8275 H       
  34 H34            0.8980     0.8765    -1.8076 H       
  35 H35            1.9317     4.3629    -4.7530 H       
  36 H36            0.4997     4.5400    -5.7953 H       
@<TRIPOS>BOND
   1    1    2 1
   2    1   19 1
   3    1   20 1
   4    1   21 1
   5    2    3 1
   6    2    4 1
   7    2   22 1
   8    3   23 1
   9    3   24 1
  10    3   25 1
  11    4    5 2
  12    4    6 2
  13    4    7 am
  14    7    8 1
  15    7   26 1
  16    8    9 1
  17    8   16 1
  18    8   27 1
  19    9   10 1
  20    9   28 1
  21    9   29 1
  22   10   11 1
  23   10   30 1
  24   10   31 1
  25   11   12 ar
  26   11   16 ar
  27   12   13 ar
  28   12   32 1
  29   13   14 ar
  30   13   17 1
  31   14   15 ar
  32   14   33 1
  33   15   16 ar
  34   15   34 1
  35   17   18 1
  36   17   35 1
  37   17   36 1

#	End of record

