#	Name: ASD01883284
#	Creating user name:	WinNT
#	Creation time:	15. 06. 2019 19:46

#	Modifying user name:	WinNT
#	Modification time:	15. 06. 2019 19:46

#	Program:	/corina/corina34_cracker 3.40 0067  02.08.2006

@<TRIPOS>MOLECULE
ASD01883284
  43   44    0    0    0
SMALL
NO_CHARGES


@<TRIPOS>ATOM
   1 N1             0.0033     1.3065     0.0233 N.am    
   2 C2             0.0152    -0.0394     0.0295 C.2     
   3 C3            -1.2078    -0.7573     0.0355 C.2     
   4 C4            -2.4129    -0.0361     0.0348 C.2     
   5 C5            -2.3592     1.3706     0.0282 C.2     
   6 C6            -1.1619     2.0019     0.0283 C.2     
   7 O7             1.0759    -0.6404     0.0296 O.2     
   8 C8            -1.2138    -2.1893     0.0417 C.1     
   9 N9            -1.2186    -3.3252     0.0465 N.1     
  10 C10            1.2740     2.0355     0.0172 C.3     
  11 C11            1.7132     2.2826    -1.4274 C.3     
  12 C12            3.0404     3.0439    -1.4338 C.3     
  13 C13            3.5422     3.1820    -2.8726 C.3     
  14 C14            2.8335     4.4345    -0.8302 C.3     
  15 C15           -3.7140    -0.7412     0.0404 C.ar    
  16 C16           -4.5689    -0.6195     1.1381 C.ar    
  17 C17           -5.7795    -1.2744     1.1444 C.ar    
  18 C18           -6.1535    -2.0625     0.0505 C.ar    
  19 C19           -5.2962    -2.1836    -1.0485 C.ar    
  20 C20           -4.0884    -1.5233    -1.0545 C.ar    
  21 C21           -7.4477    -2.7639     0.0561 C.2     
  22 C22           -7.9056    -3.5101    -1.1705 C.3     
  23 O23           -8.1453    -2.7413     1.0475 O.2     
  24 H24           -3.2732     1.9460     0.0271 H       
  25 H25           -1.1334     3.0815     0.0231 H       
  26 H26            1.1474     2.9906     0.5269 H       
  27 H27            2.0331     1.4467     0.5321 H       
  28 H28            1.8398     1.3274    -1.9371 H       
  29 H29            0.9541     2.8714    -1.9423 H       
  30 H30            3.7757     2.4972    -0.8434 H       
  31 H31            2.8069     3.7286    -3.4629 H       
  32 H32            4.4877     3.7243    -2.8771 H       
  33 H33            3.6895     2.1913    -3.3026 H       
  34 H34            2.0982     4.9811    -1.4205 H       
  35 H35            2.4760     4.3361     0.1948 H       
  36 H36            3.7790     4.9768    -0.8347 H       
  37 H37           -4.2798    -0.0114     1.9825 H       
  38 H38           -6.4402    -1.1804     1.9935 H       
  39 H39           -5.5835    -2.7919    -1.8934 H       
  40 H40           -3.4264    -1.6166    -1.9027 H       
  41 H41           -7.1998    -3.3405    -1.9836 H       
  42 H42           -7.9559    -4.5763    -0.9496 H       
  43 H43           -8.8924    -3.1533    -1.4656 H       
@<TRIPOS>BOND
   1    1    2 am
   2    1   10 1
   3    1    6 1
   4    2    3 1
   5    2    7 2
   6    3    4 2
   7    3    8 1
   8    4    5 1
   9    4   15 1
  10    5    6 2
  11    5   24 1
  12    6   25 1
  13    8    9 3
  14   10   11 1
  15   10   26 1
  16   10   27 1
  17   11   12 1
  18   11   28 1
  19   11   29 1
  20   12   13 1
  21   12   14 1
  22   12   30 1
  23   13   31 1
  24   13   32 1
  25   13   33 1
  26   14   34 1
  27   14   35 1
  28   14   36 1
  29   15   16 ar
  30   15   20 ar
  31   16   17 ar
  32   16   37 1
  33   17   18 ar
  34   17   38 1
  35   18   19 ar
  36   18   21 1
  37   19   20 ar
  38   19   39 1
  39   20   40 1
  40   21   22 1
  41   21   23 2
  42   22   41 1
  43   22   42 1
  44   22   43 1

#	End of record

