#	Name: ASD04910399
#	Creating user name:	WinNT
#	Creation time:	15. 06. 2019 20:55

#	Modifying user name:	WinNT
#	Modification time:	15. 06. 2019 20:55

#	Program:	/corina/corina34_cracker 3.40 0067  02.08.2006

@<TRIPOS>MOLECULE
ASD04910399
  77   80    0    0    0
SMALL
NO_CHARGES


@<TRIPOS>ATOM
   1 C1             3.3508    -0.5915     6.1237 C.2     
   2 C2             3.1136    -1.8332     5.5245 C.2     
   3 C3             3.7900    -1.8664     4.3526 C.2     
   4 N4             4.4333    -0.6853     4.2153 N.pl3   
   5 N5             4.1414     0.0972     5.3400 N.2     
   6 C6             2.2568    -2.9389     6.0852 C.3     
   7 F7             1.7221    -2.5370     7.3140 F       
   8 F8             1.2161    -3.2202     5.1935 F       
   9 F9             3.0366    -4.0858     6.2686 F       
  10 C10            5.2488    -0.3096     3.1371 C.ar    
  11 C11            5.8512     0.9413     3.1253 C.ar    
  12 C12            5.4579    -1.1911     2.0849 C.ar    
  13 C13            6.2601    -0.8220     1.0240 C.ar    
  14 C14            6.8584     0.4317     1.0092 C.ar    
  15 C15            6.6536     1.3112     2.0648 C.ar    
  16 N16            7.6710     0.8059    -0.0650 N.pl3   
  17 C17            8.2504     2.1506    -0.1115 C.3     
  18 C18            9.5602     2.1593     0.6337 C.ar    
  19 C19            8.4897     2.5528    -1.5682 C.3     
  20 N20           10.5711     1.4450     0.1773 N.ar    
  21 C21           11.7365     1.4181     0.7901 C.ar    
  22 C22           11.9414     2.1541     1.9576 C.ar    
  23 C23           10.8871     2.9222     2.4666 C.ar    
  24 C24            9.6847     2.9207     1.7821 C.ar    
  25 C25           13.2494     2.1231     2.6459 C.2     
  26 O26           13.4167     2.7682     3.6624 O.2     
  27 N27           14.2563     1.3795     2.1462 N.am    
  28 C28           15.5525     1.3487     2.8283 C.3     
  29 C29           16.5113     0.4365     2.0605 C.3     
  30 C30           17.8446     0.4049     2.7621 C.2     
  31 C31            7.1749     2.4608    -2.3453 C.3     
  32 O32           18.8475    -0.3357     2.2645 O.3     
  33 O33           18.0110     1.0461     3.7726 O.2     
  34 C34            7.4142     2.8629    -3.8019 C.3     
  35 C35            7.9386     4.2993    -3.8549 C.3     
  36 C36            9.2534     4.3913    -3.0779 C.3     
  37 C37            9.0140     3.9891    -1.6212 C.3     
  38 C38           20.1036    -0.3186     2.9926 C.3     
  39 C39           19.8763    -0.8366     4.4142 C.3     
  40 C40           21.1185    -1.2145     2.2796 C.3     
  41 C41           20.6398     1.1132     3.0511 C.3     
  42 H42            2.9473    -0.2570     7.0679 H       
  43 H43            3.8121    -2.6888     3.6530 H       
  44 H44            5.6916     1.6251     3.9458 H       
  45 H45            4.9930    -2.1659     2.0967 H       
  46 H46            6.4230    -1.5078     0.2058 H       
  47 H47            7.1183     2.2860     2.0534 H       
  48 H48            7.8512     0.1752    -0.7796 H       
  49 H49            7.5636     2.8584     0.3527 H       
  50 H50            9.2233     1.8815    -2.0146 H       
  51 H51           12.5404     0.8210     0.3856 H       
  52 H52           11.0106     3.5040     3.3681 H       
  53 H53            8.8494     3.5013     2.1451 H       
  54 H54           14.1228     0.8646     1.3350 H       
  55 H55           15.9651     2.3567     2.8700 H       
  56 H56           15.4212     0.9677     3.8410 H       
  57 H57           16.0987    -0.5715     2.0188 H       
  58 H58           16.6426     0.8175     1.0478 H       
  59 H59            6.8014     1.4375    -2.3075 H       
  60 H60            6.4413     3.1321    -1.8988 H       
  61 H61            8.1479     2.1916    -4.2483 H       
  62 H62            6.4776     2.7974    -4.3555 H       
  63 H63            8.1091     4.5858    -4.8927 H       
  64 H64            7.2050     4.9706    -3.4085 H       
  65 H65            9.9870     3.7200    -3.5243 H       
  66 H66            9.6269     5.4146    -3.1156 H       
  67 H67            8.2804     4.6604    -1.1748 H       
  68 H68            9.9507     4.0546    -1.0676 H       
  69 H69           19.4943    -1.8566     4.3725 H       
  70 H70           20.8193    -0.8238     4.9607 H       
  71 H71           19.1532    -0.1984     4.9221 H       
  72 H72           21.2805    -0.8455     1.2668 H       
  73 H73           22.0615    -1.2017     2.8261 H       
  74 H74           20.7366    -2.2345     2.2379 H       
  75 H75           19.9168     1.7514     3.5590 H       
  76 H76           21.5828     1.1260     3.5976 H       
  77 H77           20.8018     1.4822     2.0383 H       
@<TRIPOS>BOND
   1    1    2 1
   2    1    5 2
   3    1   42 1
   4    2    3 2
   5    2    6 1
   6    3    4 1
   7    3   43 1
   8    4    5 1
   9    4   10 1
  10    6    7 1
  11    6    8 1
  12    6    9 1
  13   10   11 ar
  14   10   12 ar
  15   11   15 ar
  16   11   44 1
  17   12   13 ar
  18   12   45 1
  19   13   14 ar
  20   13   46 1
  21   14   15 ar
  22   14   16 1
  23   15   47 1
  24   16   17 1
  25   16   48 1
  26   17   18 1
  27   17   19 1
  28   17   49 1
  29   18   20 ar
  30   18   24 ar
  31   19   31 1
  32   19   37 1
  33   19   50 1
  34   20   21 ar
  35   21   22 ar
  36   21   51 1
  37   22   23 ar
  38   22   25 1
  39   23   24 ar
  40   23   52 1
  41   24   53 1
  42   25   26 2
  43   25   27 am
  44   27   28 1
  45   27   54 1
  46   28   29 1
  47   28   55 1
  48   28   56 1
  49   29   30 1
  50   29   57 1
  51   29   58 1
  52   30   32 1
  53   30   33 2
  54   31   34 1
  55   31   59 1
  56   31   60 1
  57   32   38 1
  58   34   35 1
  59   34   61 1
  60   34   62 1
  61   35   36 1
  62   35   63 1
  63   35   64 1
  64   36   37 1
  65   36   65 1
  66   36   66 1
  67   37   67 1
  68   37   68 1
  69   38   39 1
  70   38   40 1
  71   38   41 1
  72   39   69 1
  73   39   70 1
  74   39   71 1
  75   40   72 1
  76   40   73 1
  77   40   74 1
  78   41   75 1
  79   41   76 1
  80   41   77 1

#	End of record

