#	Name: ASD06170024
#	Creating user name:	WinNT
#	Creation time:	15. 06. 2019 21:05

#	Modifying user name:	WinNT
#	Modification time:	15. 06. 2019 21:05

#	Program:	/corina/corina34_cracker 3.40 0067  02.08.2006

@<TRIPOS>MOLECULE
ASD06170024
  65   70    0    0    0
SMALL
NO_CHARGES


@<TRIPOS>ATOM
   1 N1             0.9794     0.5886    -0.2367 N.pl3   
   2 N2             0.8342    -0.5378    -1.0517 N.am    
   3 C3             2.0566    -0.9728    -1.4180 C.2     
   4 C4             3.0353    -0.0685    -0.7985 C.2     
   5 C5             2.3023     0.8750    -0.0813 C.2     
   6 C6             4.4950    -0.1446    -0.9117 C.2     
   7 O7             5.1890     0.7339    -0.4345 O.2     
   8 N8             5.0684    -1.1875    -1.5442 N.am    
   9 C9            -0.3815    -1.1192    -1.4258 C.ar    
  10 C10           -0.6100    -1.4618    -2.7523 C.ar    
  11 C11           -1.8116    -2.0358    -3.1185 C.ar    
  12 C12           -2.7868    -2.2690    -2.1662 C.ar    
  13 C13           -2.5626    -1.9287    -0.8448 C.ar    
  14 C14           -1.3607    -1.3605    -0.4708 C.ar    
  15 O15            2.3025    -1.9315    -2.1262 O.2     
  16 C16            6.4559    -1.3297    -1.5379 C.ar    
  17 C17            7.2600    -0.2184    -1.3105 C.ar    
  18 C18            8.6346    -0.3707    -1.3059 C.ar    
  19 C19            9.1623    -1.6400    -1.5307 C.ar    
  20 C20            8.2994    -2.7017    -1.7502 C.ar    
  21 N21            6.9924    -2.5218    -1.7429 N.ar    
  22 O22           10.5079    -1.8348    -1.5352 O.3     
  23 N23           12.4365    -1.9603     2.1082 N.ar    
  24 C24           11.1272    -1.8859     2.0566 C.ar    
  25 C25           10.4433    -1.8416     0.8485 C.ar    
  26 C26           11.1489    -1.8762    -0.3415 C.ar    
  27 C27           12.5585    -1.9564    -0.2741 C.ar    
  28 C28           13.3412    -1.9950    -1.4372 C.ar    
  29 C29           14.6964    -2.0718    -1.3394 C.ar    
  30 C30           15.3220    -2.1133    -0.0900 C.ar    
  31 C31           14.5814    -2.0771     1.0698 C.ar    
  32 C32           13.1816    -1.9974     0.9971 C.ar    
  33 O33           16.6763    -2.1908    -0.0196 O.3     
  34 C34           17.3894    -2.2255    -1.2574 C.3     
  35 O35            4.2643     3.3092     1.5095 O.3     
  36 N36            4.1202     2.3578     0.7775 N.2     
  37 C37            2.8625     1.9923     0.7098 C.2     
  38 C38            2.1451     2.8895     1.5517 C.2     
  39 C39            3.1009     3.7136     2.0382 C.2     
  40 C40            2.8973     4.8636     2.9906 C.3     
  41 C41           -0.1237     1.3493     0.3554 C.3     
  42 H42            4.5161    -1.8391    -2.0039 H       
  43 H43            0.1510    -1.2793    -3.4966 H       
  44 H44           -1.9899    -2.3024    -4.1497 H       
  45 H45           -3.7258    -2.7177    -2.4552 H       
  46 H46           -3.3266    -2.1115    -0.1036 H       
  47 H47           -1.1842    -1.0997     0.5622 H       
  48 H48            6.8168     0.7516    -1.1401 H       
  49 H49            9.2838     0.4748    -1.1324 H       
  50 H50            8.7013    -3.6887    -1.9255 H       
  51 H51           10.5661    -1.8583     2.9790 H       
  52 H52            9.3650    -1.7811     0.8378 H       
  53 H53           12.8696    -1.9643    -2.4083 H       
  54 H54           15.2956    -2.1013    -2.2375 H       
  55 H55           15.0744    -2.1100     2.0302 H       
  56 H56           17.0757    -3.0964    -1.8331 H       
  57 H57           17.1769    -1.3193    -1.8247 H       
  58 H58           18.4593    -2.2874    -1.0588 H       
  59 H59            1.0844     2.9079     1.7542 H       
  60 H60            3.8565     5.3380     3.1978 H       
  61 H61            2.2213     5.5916     2.5421 H       
  62 H62            2.4668     4.4930     3.9209 H       
  63 H63           -1.0729     0.9567    -0.0095 H       
  64 H64           -0.0862     1.2585     1.4410 H       
  65 H65           -0.0329     2.3988     0.0753 H       
@<TRIPOS>BOND
   1    1    2 1
   2    1    5 1
   3    1   41 1
   4    2    3 am
   5    2    9 1
   6    3    4 1
   7    3   15 2
   8    4    5 2
   9    4    6 1
  10    5   37 1
  11    6    7 2
  12    6    8 am
  13    8   16 1
  14    8   42 1
  15    9   10 ar
  16    9   14 ar
  17   10   11 ar
  18   10   43 1
  19   11   12 ar
  20   11   44 1
  21   12   13 ar
  22   12   45 1
  23   13   14 ar
  24   13   46 1
  25   14   47 1
  26   16   17 ar
  27   16   21 ar
  28   17   18 ar
  29   17   48 1
  30   18   19 ar
  31   18   49 1
  32   19   20 ar
  33   19   22 1
  34   20   21 ar
  35   20   50 1
  36   22   26 1
  37   23   24 ar
  38   23   32 ar
  39   24   25 ar
  40   24   51 1
  41   25   26 ar
  42   25   52 1
  43   26   27 ar
  44   27   28 ar
  45   27   32 ar
  46   28   29 ar
  47   28   53 1
  48   29   30 ar
  49   29   54 1
  50   30   31 ar
  51   30   33 1
  52   31   32 ar
  53   31   55 1
  54   33   34 1
  55   34   56 1
  56   34   57 1
  57   34   58 1
  58   35   36 1
  59   35   39 1
  60   36   37 2
  61   37   38 1
  62   38   39 2
  63   38   59 1
  64   39   40 1
  65   40   60 1
  66   40   61 1
  67   40   62 1
  68   41   63 1
  69   41   64 1
  70   41   65 1

#	End of record

