#	Name: ASD00740002
#	Creating user name:	WinNT
#	Creation time:	15. 06. 2019 18:37

#	Modifying user name:	WinNT
#	Modification time:	15. 06. 2019 18:37

#	Program:	/corina/corina34_cracker 3.40 0067  02.08.2006

@<TRIPOS>MOLECULE
ASD00740002
  49   51    0    0    0
SMALL
NO_CHARGES


@<TRIPOS>ATOM
   1 N1            -0.0162     1.3436     0.0094 N.am    
   2 C2            -0.1421     0.0017     0.0226 C.2     
   3 N3            -1.3617    -0.5595     0.1415 N.am    
   4 C4            -1.4920    -1.9479     0.1551 C.2     
   5 N5            -2.6544    -2.6465     0.2685 N.pl3   
   6 N6            -2.3382    -4.0108     0.2378 N.2     
   7 C7            -1.0412    -4.1319     0.1114 C.2     
   8 C8            -0.4805    -2.8528     0.0514 C.2     
   9 C9            -0.2810    -5.4310     0.0380 C.3     
  10 C10            0.4313    -5.6810     1.3688 C.3     
  11 C11           -1.2554    -6.5769    -0.2422 C.3     
  12 C12            0.7528    -5.3540    -1.0873 C.3     
  13 O13            0.8445    -0.7024    -0.0728 O.2     
  14 C14           -3.9384    -2.0989     0.3940 C.ar    
  15 C15            1.2557     1.9269    -0.0002 C.ar    
  16 C16            1.4743     3.1081    -0.6969 C.ar    
  17 C17            2.7308     3.6813    -0.7044 C.ar    
  18 C18            3.7708     3.0799    -0.0196 C.ar    
  19 C19            3.5564     1.9037     0.6751 C.ar    
  20 C20            2.3007     1.3287     0.6917 C.ar    
  21 C21           -4.1250    -0.9208     1.1053 C.ar    
  22 C22           -5.3906    -0.3802     1.2301 C.ar    
  23 C23           -6.4740    -1.0091     0.6482 C.ar    
  24 C24           -6.2940    -2.1883    -0.0650 C.ar    
  25 C25           -5.0232    -2.7301    -0.1971 C.ar    
  26 N26           -7.3899    -2.8244    -0.6525 N.pl3   
  27 H27           -0.8073     1.9049     0.0026 H       
  28 H28           -2.1488     0.0023     0.2175 H       
  29 H29            0.5697    -2.6233    -0.0522 H       
  30 H30           -0.3052    -5.7359     2.1704 H       
  31 H31            0.9811    -6.6207     1.3156 H       
  32 H32            1.1254    -4.8647     1.5683 H       
  33 H33           -1.7628    -6.3987    -1.1903 H       
  34 H34           -0.7055    -7.5165    -0.2953 H       
  35 H35           -1.9919    -6.6318     0.5595 H       
  36 H36            1.4469    -4.5376    -0.8877 H       
  37 H37            1.3027    -6.2936    -1.1404 H       
  38 H38            0.2454    -5.1758    -2.0353 H       
  39 H39            0.6626     3.5778    -1.2325 H       
  40 H40            2.9014     4.5999    -1.2461 H       
  41 H41            4.7527     3.5297    -0.0276 H       
  42 H42            4.3707     1.4364     1.2090 H       
  43 H43            2.1339     0.4100     1.2344 H       
  44 H44           -3.2801    -0.4268     1.5618 H       
  45 H45           -5.5330     0.5359     1.7842 H       
  46 H46           -7.4620    -0.5843     0.7478 H       
  47 H47           -4.8804    -3.6461    -0.7511 H       
  48 H48           -8.2774    -2.4432    -0.5629 H       
  49 H49           -7.2636    -3.6474    -1.1501 H       
@<TRIPOS>BOND
   1    1    2 am
   2    1   15 1
   3    1   27 1
   4    2    3 am
   5    2   13 2
   6    3    4 1
   7    3   28 1
   8    4    5 1
   9    4    8 2
  10    5    6 1
  11    5   14 1
  12    6    7 2
  13    7    8 1
  14    7    9 1
  15    8   29 1
  16    9   10 1
  17    9   11 1
  18    9   12 1
  19   10   30 1
  20   10   31 1
  21   10   32 1
  22   11   33 1
  23   11   34 1
  24   11   35 1
  25   12   36 1
  26   12   37 1
  27   12   38 1
  28   14   21 ar
  29   14   25 ar
  30   15   16 ar
  31   15   20 ar
  32   16   17 ar
  33   16   39 1
  34   17   18 ar
  35   17   40 1
  36   18   19 ar
  37   18   41 1
  38   19   20 ar
  39   19   42 1
  40   20   43 1
  41   21   22 ar
  42   21   44 1
  43   22   23 ar
  44   22   45 1
  45   23   24 ar
  46   23   46 1
  47   24   25 ar
  48   24   26 1
  49   25   47 1
  50   26   48 1
  51   26   49 1

#	End of record

