#	Name: ASD00510012
#	Creating user name:	WinNT
#	Creation time:	15. 06. 2019 18:36

#	Modifying user name:	WinNT
#	Modification time:	15. 06. 2019 18:36

#	Program:	/corina/corina34_cracker 3.40 0067  02.08.2006

@<TRIPOS>MOLECULE
ASD00510012
  44   47    0    0    0
SMALL
NO_CHARGES


@<TRIPOS>ATOM
   1 C1            -0.0553     1.4613    -0.0824 C.ar    
   2 C2            -0.1226     0.2201     0.5608 C.ar    
   3 C3             0.9893    -0.2864     1.1663 C.ar    
   4 C4             2.1921     0.4151     1.1541 C.ar    
   5 C5             2.2919     1.6253     0.5373 C.ar    
   6 C6             1.1661     2.1771    -0.0972 C.ar    
   7 C7             1.2316     3.4241    -0.7447 C.ar    
   8 C8             0.1372     3.9497    -1.3556 C.ar    
   9 C9            -1.0876     3.2838    -1.3683 C.ar    
  10 C10           -1.2217     2.0390    -0.7494 C.ar    
  11 N11           -2.4114     1.3806    -0.7630 N.2     
  12 N12           -3.4311     1.9033    -1.3555 N.2     
  13 O13           -2.1546     3.8463    -1.9901 O.3     
  14 S14            2.7511     4.3160    -0.7634 S.o2    
  15 O15            2.8510     4.9650     0.4968 O.2     
  16 O16            3.7369     3.4190    -1.2560 O.2     
  17 O17            2.6139     5.4178    -1.8045 O.3     
  18 C18           -4.6236     1.2434    -1.3692 C.ar    
  19 C19           -7.0448    -0.1388    -1.3742 C.ar    
  20 C20           -5.9158    -0.6814    -0.7304 C.ar    
  21 C21           -4.7398    -0.0059    -0.7304 C.ar    
  22 C22           -5.7232     1.8118    -2.0107 C.ar    
  23 C23           -6.9500     1.1202    -2.0179 C.ar    
  24 C24           -8.0806     1.6549    -2.6580 C.ar    
  25 C25           -9.2509     0.9589    -2.6521 C.ar    
  26 C26           -9.3445    -0.2787    -2.0194 C.ar    
  27 C27           -8.2689    -0.8271    -1.3892 C.ar    
  28 O28           -5.6127     3.0179    -2.6208 O.3     
  29 N29            3.5797     2.3558     0.5358 N.pl3   
  30 O30            4.5023     1.9624    -0.1553 O.2     
  31 O31            3.7166     3.3503     1.2256 O.2     
  32 H32           -1.0499    -0.3333     0.5778 H       
  33 H33            0.9362    -1.2443     1.6623 H       
  34 H34            3.0588    -0.0066     1.6413 H       
  35 H35            0.2185     4.9094    -1.8441 H       
  36 H36           -2.2373     3.6068    -2.9234 H       
  37 H37            3.4007     5.9725    -1.8961 H       
  38 H38           -5.9855    -1.6407    -0.2392 H       
  39 H39           -3.8807    -0.4322    -0.2339 H       
  40 H40           -8.0218     2.6135    -3.1520 H       
  41 H41          -10.1187     1.3721    -3.1445 H       
  42 H42          -10.2842    -0.8110    -2.0284 H       
  43 H43           -8.3570    -1.7873    -0.9027 H       
  44 H44           -5.3495     2.9661    -3.5498 H       
@<TRIPOS>BOND
   1    1    2 ar
   2    1    6 ar
   3    1   10 ar
   4    2    3 ar
   5    2   32 1
   6    3    4 ar
   7    3   33 1
   8    4    5 ar
   9    4   34 1
  10    5    6 ar
  11    5   29 1
  12    6    7 ar
  13    7    8 ar
  14    7   14 1
  15    8    9 ar
  16    8   35 1
  17    9   10 ar
  18    9   13 1
  19   10   11 1
  20   11   12 2
  21   12   18 1
  22   13   36 1
  23   14   15 2
  24   14   16 2
  25   14   17 1
  26   17   37 1
  27   18   22 ar
  28   18   21 ar
  29   19   20 ar
  30   19   23 ar
  31   19   27 ar
  32   20   21 ar
  33   20   38 1
  34   21   39 1
  35   22   23 ar
  36   22   28 1
  37   23   24 ar
  38   24   25 ar
  39   24   40 1
  40   25   26 ar
  41   25   41 1
  42   26   27 ar
  43   26   42 1
  44   27   43 1
  45   28   44 1
  46   29   30 2
  47   29   31 2

#	End of record

