#	Name: ASD03092155
#	Creating user name:	WinNT
#	Creation time:	15. 06. 2019 20:32

#	Modifying user name:	WinNT
#	Modification time:	15. 06. 2019 20:32

#	Program:	/corina/corina34_cracker 3.40 0067  02.08.2006

@<TRIPOS>MOLECULE
ASD03092155
  53   55    0    0    0
SMALL
NO_CHARGES


@<TRIPOS>ATOM
   1 N1            -0.0559     1.2459    -0.2926 N.pl3   
   2 C2            -0.2389    -0.0084     0.2094 C.2     
   3 C3            -1.5836    -0.1992     0.3540 C.2     
   4 C4            -2.2297     0.9685    -0.0710 C.2     
   5 N5            -1.3175     1.8332    -0.4511 N.2     
   6 N6            -3.6137     1.1804    -0.0824 N.pl3   
   7 C7            -4.1258     2.4366    -0.4215 C.ar    
   8 C8            -5.3998     2.5447    -0.9635 C.ar    
   9 C9            -5.9042     3.7885    -1.2976 C.ar    
  10 C10           -5.1381     4.9258    -1.0913 C.ar    
  11 C11           -3.3631     3.5785    -0.2112 C.ar    
  12 C12            0.8239    -0.9838     0.5372 C.ar    
  13 C13            1.2319     1.8708    -0.6046 C.3     
  14 C14            2.0916    -0.8896    -0.0476 C.ar    
  15 C15            3.0531    -1.8206     0.2866 C.ar    
  16 N16            2.7898    -2.7888     1.1434 N.ar    
  17 C17            1.6081    -2.9138     1.7174 C.ar    
  18 C18            0.5910    -2.0232     1.4454 C.ar    
  19 C19           -3.8680     4.8183    -0.5514 C.ar    
  20 F20           -7.1432     3.8953    -1.8255 F       
  21 C21            1.5311     1.7051    -2.0959 C.3     
  22 C22            1.3687    -4.0417     2.6877 C.3     
  23 O23            0.0275    -3.9732     3.1761 O.3     
  24 C24            2.8671     2.3264    -2.4123 C.2     
  25 N25            3.3407     2.3000    -3.6738 N.am    
  26 O26            3.5161     2.8500    -1.5317 O.2     
  27 C27            4.6396     2.9040    -3.9814 C.3     
  28 C28            2.5568     1.6675    -4.7376 C.3     
  29 C29           -0.3048    -5.0038     4.1086 C.3     
  30 F30           -5.6318     6.1402    -1.4180 F       
  31 H31           -2.0631    -1.0912     0.7290 H       
  32 H32           -4.2172     0.4559     0.1449 H       
  33 H33           -5.9958     1.6586    -1.1243 H       
  34 H34           -2.3739     3.4964     0.2143 H       
  35 H35            1.1902     2.9317    -0.3581 H       
  36 H36            2.0187     1.3927    -0.0210 H       
  37 H37            2.3139    -0.1002    -0.7502 H       
  38 H38            4.0346    -1.7563    -0.1594 H       
  39 H39           -0.3736    -2.1314     1.9190 H       
  40 H40           -3.2728     5.7053    -0.3922 H       
  41 H41            1.5552     0.6445    -2.3461 H       
  42 H42            0.7537     2.1985    -2.6794 H       
  43 H43            1.5230    -4.9949     2.1820 H       
  44 H44            2.0642    -3.9565     3.5226 H       
  45 H45            5.4169     2.4106    -3.3979 H       
  46 H46            4.8527     2.7860    -5.0438 H       
  47 H47            4.6154     3.9646    -3.7313 H       
  48 H48            1.8996     2.4078    -5.1938 H       
  49 H49            3.2298     1.2638    -5.4940 H       
  50 H50            1.9576     0.8603    -4.3163 H       
  51 H51           -0.1852    -5.9770     3.6324 H       
  52 H52            0.3560    -4.9386     4.9730 H       
  53 H53           -1.3387    -4.8820     4.4316 H       
@<TRIPOS>BOND
   1    1    2 1
   2    1   13 1
   3    1    5 1
   4    2    3 2
   5    2   12 1
   6    3    4 1
   7    3   31 1
   8    4    5 2
   9    4    6 1
  10    6    7 1
  11    6   32 1
  12    7    8 ar
  13    7   11 ar
  14    8    9 ar
  15    8   33 1
  16    9   10 ar
  17    9   20 1
  18   10   19 ar
  19   10   30 1
  20   11   19 ar
  21   11   34 1
  22   12   14 ar
  23   12   18 ar
  24   13   21 1
  25   13   35 1
  26   13   36 1
  27   14   15 ar
  28   14   37 1
  29   15   16 ar
  30   15   38 1
  31   16   17 ar
  32   17   18 ar
  33   17   22 1
  34   18   39 1
  35   19   40 1
  36   21   24 1
  37   21   41 1
  38   21   42 1
  39   22   23 1
  40   22   43 1
  41   22   44 1
  42   23   29 1
  43   24   25 am
  44   24   26 2
  45   25   27 1
  46   25   28 1
  47   27   45 1
  48   27   46 1
  49   27   47 1
  50   28   48 1
  51   28   49 1
  52   28   50 1
  53   29   51 1
  54   29   52 1
  55   29   53 1

#	End of record

