#	Name: ASD04880119
#	Creating user name:	WinNT
#	Creation time:	15. 06. 2019 20:52

#	Modifying user name:	WinNT
#	Modification time:	15. 06. 2019 20:52

#	Program:	/corina/corina34_cracker 3.40 0067  02.08.2006

@<TRIPOS>MOLECULE
ASD04880119
  55   57    0    0    0
SMALL
NO_CHARGES


@<TRIPOS>ATOM
   1 C1            -0.0144     1.2121     0.0087 C.2     
   2 O2             0.0263    -0.0033     0.0299 O.2     
   3 N3             1.1287     1.9238    -0.0469 N.am    
   4 N4             1.2161     3.3074    -0.1874 N.2     
   5 C5             2.4227     3.7586    -0.2146 C.2     
   6 C6             3.3951     2.6084    -0.0812 C.3     
   7 C7             2.4884     1.3674     0.0372 C.3     
   8 C8             4.2854     2.5118    -1.3218 C.3     
   9 C9             4.2458     2.7684     1.1804 C.3     
  10 C10            2.7974     5.1774    -0.3546 C.ar    
  11 C11            1.8060     6.1557    -0.4705 C.ar    
  12 C12            2.1628     7.4843    -0.6016 C.ar    
  13 C13            3.5085     7.8461    -0.6179 C.ar    
  14 C14            4.4927     6.8756    -0.5034 C.ar    
  15 C15            4.1442     5.5481    -0.3660 C.ar    
  16 O16            3.8575     9.1536    -0.7470 O.3     
  17 C17            5.2544     9.4544    -0.7562 C.3     
  18 O18            1.2007     8.4387    -0.7151 O.3     
  19 C19           -0.1579     7.9964    -0.6912 C.3     
  20 C20           -1.3151     1.9070     0.0378 C.ar    
  21 C21           -2.5070     1.1745    -0.0465 C.ar    
  22 C22           -3.7253     1.8351    -0.0180 C.ar    
  23 C23           -3.7658     3.2110     0.0931 C.ar    
  24 C24           -2.5882     3.9432     0.1766 C.ar    
  25 C25           -1.3653     3.2981     0.1553 C.ar    
  26 O26           -2.6384     5.2978     0.2853 O.3     
  27 C27           -3.9344     5.8993     0.3074 C.3     
  28 O28           -2.4684    -0.1779    -0.1561 O.3     
  29 C29           -3.7225    -0.8582    -0.2374 C.3     
  30 H30            2.6404     0.8692     0.9948 H       
  31 H31            2.6730     0.6793    -0.7878 H       
  32 H32            4.8665     3.4282    -1.4243 H       
  33 H33            4.9611     1.6627    -1.2188 H       
  34 H34            3.6628     2.3755    -2.2061 H       
  35 H35            3.5954     2.8124     2.0540 H       
  36 H36            4.9217     1.9182     1.2730 H       
  37 H37            4.8264     3.6884     1.1129 H       
  38 H38            0.7634     5.8740    -0.4581 H       
  39 H39            5.5343     7.1605    -0.5172 H       
  40 H40            4.9125     4.7950    -0.2717 H       
  41 H41            5.7038     9.1223     0.1797 H       
  42 H42            5.7312     8.9403    -1.5907 H       
  43 H43            5.3938    10.5300    -0.8646 H       
  44 H44           -0.8215     8.8554    -0.7901 H       
  45 H45           -0.3302     7.3071    -1.5177 H       
  46 H46           -0.3583     7.4893     0.2526 H       
  47 H47           -4.6449     1.2726    -0.0831 H       
  48 H48           -4.7179     3.7204     0.1148 H       
  49 H49           -0.4510     3.8688     0.2248 H       
  50 H50           -4.4619     5.6598    -0.6159 H       
  51 H51           -4.4983     5.5162     1.1579 H       
  52 H52           -3.8316     6.9807     0.3971 H       
  53 H53           -3.5491    -1.9310    -0.3215 H       
  54 H54           -4.3057    -0.6536     0.6605 H       
  55 H55           -4.2693    -0.5088    -1.1132 H       
@<TRIPOS>BOND
   1    1    2 2
   2    1    3 am
   3    1   20 1
   4    3    4 1
   5    3    7 1
   6    4    5 2
   7    5    6 1
   8    5   10 1
   9    6    7 1
  10    6    8 1
  11    6    9 1
  12    7   30 1
  13    7   31 1
  14    8   32 1
  15    8   33 1
  16    8   34 1
  17    9   35 1
  18    9   36 1
  19    9   37 1
  20   10   11 ar
  21   10   15 ar
  22   11   12 ar
  23   11   38 1
  24   12   13 ar
  25   12   18 1
  26   13   14 ar
  27   13   16 1
  28   14   15 ar
  29   14   39 1
  30   15   40 1
  31   16   17 1
  32   17   41 1
  33   17   42 1
  34   17   43 1
  35   18   19 1
  36   19   44 1
  37   19   45 1
  38   19   46 1
  39   20   21 ar
  40   20   25 ar
  41   21   22 ar
  42   21   28 1
  43   22   23 ar
  44   22   47 1
  45   23   24 ar
  46   23   48 1
  47   24   25 ar
  48   24   26 1
  49   25   49 1
  50   26   27 1
  51   27   50 1
  52   27   51 1
  53   27   52 1
  54   28   29 1
  55   29   53 1
  56   29   54 1
  57   29   55 1

#	End of record

