#	Name: ASD01941036
#	Creating user name:	WinNT
#	Creation time:	15. 06. 2019 20:13

#	Modifying user name:	WinNT
#	Modification time:	15. 06. 2019 20:13

#	Program:	/corina/corina34_cracker 3.40 0067  02.08.2006

@<TRIPOS>MOLECULE
ASD01941036
  61   65    0    0    0
SMALL
NO_CHARGES


@<TRIPOS>ATOM
   1 N1             0.2343     1.0405    -0.5015 N.am    
   2 C2             0.2028    -0.2964    -0.3902 C.2     
   3 N3            -0.9339    -1.0103    -0.4744 N.am    
   4 C4            -2.1439    -0.3778    -0.6845 C.2     
   5 C5            -2.1632     1.0372    -0.8091 C.2     
   6 C6            -0.8924     1.7582    -0.7027 C.2     
   7 C7            -3.3312    -1.0736    -0.7776 C.2     
   8 C8            -4.5205    -0.3692    -0.9918 C.2     
   9 N9            -4.5241     0.9702    -1.1082 N.am    
  10 C10           -3.3722     1.6924    -1.0205 C.2     
  11 C11           -0.8904    -2.4046    -0.3485 C.ar    
  12 C12           -0.4816    -3.1858    -1.4192 C.ar    
  13 C13           -0.4394    -4.5673    -1.2903 C.ar    
  14 C14           -0.8068    -5.1629    -0.0900 C.ar    
  15 C15           -1.2135    -4.3814     0.9745 C.ar    
  16 C16           -1.2514    -3.0060     0.8508 C.ar    
  17 O17           -5.5734    -0.9812    -1.0748 O.2     
  18 N18           -3.4038     3.0541    -1.1422 N.pl3   
  19 C19           -3.1828     3.6507    -2.3890 C.ar    
  20 C20           -3.0375     2.8618    -3.5216 C.ar    
  21 C21           -2.8194     3.4532    -4.7511 C.ar    
  22 C22           -2.7451     4.8303    -4.8551 C.ar    
  23 C23           -2.8893     5.6210    -3.7289 C.ar    
  24 C24           -3.1140     5.0360    -2.4966 C.ar    
  25 O25            1.2481    -0.8885    -0.2056 O.2     
  26 C26            1.5184     1.7378    -0.3966 C.3     
  27 O27           -0.8517     2.9704    -0.8018 O.2     
  28 C28            2.5694     1.4482    -1.4701 C.3     
  29 C29            1.8385     2.7923    -1.4580 C.3     
  30 C30           -5.7927     1.6675    -1.3329 C.3     
  31 I31           -2.4128     5.7210    -6.7220 I       
  32 C32           -3.3468    -2.5751    -0.6506 C.3     
  33 F33           -3.2548     5.8078    -1.3967 F       
  34 N34           -0.0288    -5.3576    -2.3662 N.am    
  35 S35           -1.1449    -6.2208    -3.2331 S.o2    
  36 C36           -2.1717    -4.9575    -4.0334 C.3     
  37 O37           -0.3730    -6.9212    -4.1989 O.2     
  38 O38           -1.8918    -6.9186    -2.2460 O.2     
  39 H39           -0.1969    -2.7203    -2.3512 H       
  40 H40           -0.7746    -6.2376     0.0110 H       
  41 H41           -1.4986    -4.8466     1.9065 H       
  42 H42           -1.5698    -2.3981     1.6847 H       
  43 H43           -3.5795     3.6066    -0.3645 H       
  44 H44           -3.0946     1.7862    -3.4418 H       
  45 H45           -2.7064     2.8391    -5.6323 H       
  46 H46           -2.8308     6.6961    -3.8133 H       
  47 H47            1.8725     1.9208     0.6179 H       
  48 H48            3.6149     1.4410    -1.1620 H       
  49 H49            2.3054     0.7388    -2.2545 H       
  50 H50            1.0937     2.9672    -2.2343 H       
  51 H51            2.4032     3.6694    -1.1418 H       
  52 H52           -6.6138     0.9523    -1.2854 H       
  53 H53           -5.9296     2.4293    -0.5653 H       
  54 H54           -5.7787     2.1399    -2.3151 H       
  55 H55           -3.3674    -2.8504     0.4038 H       
  56 H56           -4.2319    -2.9726    -1.1473 H       
  57 H57           -2.4522    -2.9884    -1.1166 H       
  58 H58            0.9103    -5.4010    -2.6056 H       
  59 H59           -1.5363    -4.2822    -4.6063 H       
  60 H60           -2.8854    -5.4393    -4.7017 H       
  61 H61           -2.7105    -4.3921    -3.2731 H       
@<TRIPOS>BOND
   1    1    2 am
   2    1   26 1
   3    1    6 am
   4    2    3 am
   5    2   25 2
   6    3    4 1
   7    3   11 1
   8    4    5 1
   9    4    7 2
  10    5    6 1
  11    5   10 2
  12    6   27 2
  13    7    8 1
  14    7   32 1
  15    8    9 am
  16    8   17 2
  17    9   10 1
  18    9   30 1
  19   10   18 1
  20   11   12 ar
  21   11   16 ar
  22   12   13 ar
  23   12   39 1
  24   13   14 ar
  25   13   34 1
  26   14   15 ar
  27   14   40 1
  28   15   16 ar
  29   15   41 1
  30   16   42 1
  31   18   19 1
  32   18   43 1
  33   19   20 ar
  34   19   24 ar
  35   20   21 ar
  36   20   44 1
  37   21   22 ar
  38   21   45 1
  39   22   23 ar
  40   22   31 1
  41   23   24 ar
  42   23   46 1
  43   24   33 1
  44   26   28 1
  45   26   29 1
  46   26   47 1
  47   28   29 1
  48   28   48 1
  49   28   49 1
  50   29   50 1
  51   29   51 1
  52   30   52 1
  53   30   53 1
  54   30   54 1
  55   32   55 1
  56   32   56 1
  57   32   57 1
  58   34   35 am
  59   34   58 1
  60   35   36 1
  61   35   37 2
  62   35   38 2
  63   36   59 1
  64   36   60 1
  65   36   61 1

#	End of record

