#	Name: ASD01680068
#	Creating user name:	WinNT
#	Creation time:	15. 06. 2019 19:22

#	Modifying user name:	WinNT
#	Modification time:	15. 06. 2019 19:22

#	Program:	/corina/corina34_cracker 3.40 0067  02.08.2006

@<TRIPOS>MOLECULE
ASD01680068
  70   72    0    0    0
SMALL
NO_CHARGES


@<TRIPOS>ATOM
   1 N1             0.0443     1.4003     0.1639 N.am    
   2 C2             0.0202    -0.0651     0.0040 C.3     
   3 C3             1.4291    -0.5353     0.4437 C.3     
   4 C4             2.3236     0.6096    -0.1008 C.3     
   5 C5             1.4389     1.8597     0.0895 C.3     
   6 C6            -1.0340     2.1887     0.3429 C.2     
   7 O7            -2.1506     1.7126     0.2882 O.2     
   8 O8            -0.8739     3.5040     0.5822 O.3     
   9 C9            -1.0521    -0.6815     0.9047 C.3     
  10 N10           -0.8422    -0.2404     2.2859 N.pl3   
  11 C11           -1.7546    -0.5918     3.2739 C.ar    
  12 C12           -2.8650    -1.3628     2.9444 C.ar    
  13 C13           -3.7646    -1.7052     3.9374 C.ar    
  14 C14           -3.5230    -1.2636     5.2317 C.ar    
  15 C15           -2.4009    -0.5017     5.4877 C.ar    
  16 N16           -1.5563    -0.1946     4.5212 N.ar    
  17 O17            3.5255     0.7196     0.6643 O.3     
  18 C18            4.6461     1.2020    -0.0798 C.3     
  19 C19            5.8521     1.2778     0.8208 C.2     
  20 N20            7.0319     1.7088     0.3322 N.am    
  21 O21            5.7609     0.9509     1.9851 O.2     
  22 C22            8.2042     1.7825     1.2076 C.3     
  23 C23            8.8907     0.4160     1.2568 C.3     
  24 C24           10.1151     0.4929     2.1710 C.3     
  25 C25            7.9125    -0.6269     1.8011 C.3     
  26 C26            9.1825     2.8254     0.6633 C.3     
  27 C27            8.5490     4.1912     0.7296 C.2     
  28 O28            7.4299     4.3174     1.1673 O.2     
  29 O29            9.2279     5.2674     0.3024 O.3     
  30 C30           -2.0796     4.2922     0.7649 C.3     
  31 C31           -1.7060     5.7297     1.0205 C.ar    
  32 C32           -1.5702     6.6073    -0.0389 C.ar    
  33 C33           -1.2275     7.9258     0.1955 C.ar    
  34 C34           -1.0210     8.3668     1.4893 C.ar    
  35 C35           -1.1577     7.4894     2.5487 C.ar    
  36 C36           -1.5046     6.1719     2.3146 C.ar    
  37 H37           -0.1602    -0.3301    -1.0378 H       
  38 H38            1.4976    -0.6018     1.5295 H       
  39 H39            1.6863    -1.4869    -0.0214 H       
  40 H40            2.5496     0.4540    -1.1557 H       
  41 H41            1.5624     2.5337    -0.7582 H       
  42 H42            1.7111     2.3693     1.0138 H       
  43 H43           -2.0379    -0.3618     0.5670 H       
  44 H44           -0.9863    -1.7684     0.8564 H       
  45 H45           -0.0666     0.2970     2.5108 H       
  46 H46           -3.0223    -1.6890     1.9269 H       
  47 H47           -4.6357    -2.3023     3.7113 H       
  48 H48           -4.2064    -1.5134     6.0298 H       
  49 H49           -2.2091    -0.1562     6.4929 H       
  50 H50            4.8524     0.5229    -0.9070 H       
  51 H51            4.4222     2.1943    -0.4715 H       
  52 H52            7.1048     1.9703    -0.5990 H       
  53 H53            7.8905     2.0678     2.2118 H       
  54 H54            9.2044     0.1307     0.2526 H       
  55 H55            9.8014     0.7783     3.1752 H       
  56 H56           10.6042    -0.4806     2.2060 H       
  57 H57           10.8120     1.2359     1.7832 H       
  58 H58            7.0402    -0.6817     1.1497 H       
  59 H59            8.4015    -1.6004     1.8361 H       
  60 H60            7.5988    -0.3416     2.8052 H       
  61 H61           10.0927     2.8176     1.2629 H       
  62 H62            9.4274     2.5883    -0.3720 H       
  63 H63            8.7802     6.1222     0.3648 H       
  64 H64           -2.6936     4.2306    -0.1335 H       
  65 H65           -2.6407     3.9059     1.6158 H       
  66 H66           -1.7315     6.2628    -1.0496 H       
  67 H67           -1.1207     8.6114    -0.6322 H       
  68 H68           -0.7525     9.3968     1.6723 H       
  69 H69           -0.9960     7.8338     3.5594 H       
  70 H70           -1.6150     5.4873     3.1425 H       
@<TRIPOS>BOND
   1    1    2 1
   2    1    5 1
   3    1    6 am
   4    2    3 1
   5    2    9 1
   6    2   37 1
   7    3    4 1
   8    3   38 1
   9    3   39 1
  10    4    5 1
  11    4   17 1
  12    4   40 1
  13    5   41 1
  14    5   42 1
  15    6    7 2
  16    6    8 1
  17    8   30 1
  18    9   10 1
  19    9   43 1
  20    9   44 1
  21   10   11 1
  22   10   45 1
  23   11   12 ar
  24   11   16 ar
  25   12   13 ar
  26   12   46 1
  27   13   14 ar
  28   13   47 1
  29   14   15 ar
  30   14   48 1
  31   15   16 ar
  32   15   49 1
  33   17   18 1
  34   18   19 1
  35   18   50 1
  36   18   51 1
  37   19   20 am
  38   19   21 2
  39   20   22 1
  40   20   52 1
  41   22   23 1
  42   22   26 1
  43   22   53 1
  44   23   24 1
  45   23   25 1
  46   23   54 1
  47   24   55 1
  48   24   56 1
  49   24   57 1
  50   25   58 1
  51   25   59 1
  52   25   60 1
  53   26   27 1
  54   26   61 1
  55   26   62 1
  56   27   28 2
  57   27   29 1
  58   29   63 1
  59   30   31 1
  60   30   64 1
  61   30   65 1
  62   31   32 ar
  63   31   36 ar
  64   32   33 ar
  65   32   66 1
  66   33   34 ar
  67   33   67 1
  68   34   35 ar
  69   34   68 1
  70   35   36 ar
  71   35   69 1
  72   36   70 1

#	End of record

