#	Name: ASD03092624
#	Creating user name:	WinNT
#	Creation time:	15. 06. 2019 20:32

#	Modifying user name:	WinNT
#	Modification time:	15. 06. 2019 20:32

#	Program:	/corina/corina34_cracker 3.40 0067  02.08.2006

@<TRIPOS>MOLECULE
ASD03092624
  34   36    0    0    0
SMALL
NO_CHARGES


@<TRIPOS>ATOM
   1 O1            -0.0144     1.2088     0.0087 O.3     
   2 N2             0.0021    -0.0041     0.0020 N.2     
   3 C3             1.2275    -0.4406    -0.0120 C.2     
   4 N4             2.0387     0.6273    -0.0140 N.2     
   5 C5             1.2427     1.6775    -0.0008 C.2     
   6 C6             1.6562     3.1011     0.0025 C.2     
   7 O7             2.8359     3.3911    -0.0076 O.2     
   8 N8             0.7233     4.0738     0.0166 N.am    
   9 C9             1.1319     5.4806     0.0199 C.3     
  10 N10           -3.4343     8.7615     0.3549 N.pl3   
  11 C11           -3.5580     8.8527     1.7146 C.2     
  12 C12           -2.5812     8.1512     2.3110 C.2     
  13 C13           -1.7652     7.5627     1.2462 C.ar    
  14 C14           -0.6312     6.7483     1.2302 C.ar    
  15 C15           -0.0923     6.3593     0.0364 C.ar    
  16 C16           -0.6633     6.7673    -1.1614 C.ar    
  17 C17           -1.7819     7.5712    -1.1687 C.ar    
  18 C18           -2.3473     7.9793     0.0352 C.ar    
  19 C19           -4.6316     9.6264     2.4357 C.3     
  20 C20            1.6576    -1.8849    -0.0239 C.3     
  21 H21           -0.2186     3.8423     0.0247 H       
  22 H22            1.7354     5.6817     0.9050 H       
  23 H23            1.7179     5.6908    -0.8748 H       
  24 H24           -4.0267     9.1819    -0.2879 H       
  25 H25           -2.4262     8.0415     3.3742 H       
  26 H26           -0.1811     6.4276     2.1581 H       
  27 H27           -0.2259     6.4516    -2.0970 H       
  28 H28           -2.2185     7.8836    -2.1057 H       
  29 H29           -5.4905     8.9787     2.6112 H       
  30 H30           -4.2439     9.9825     3.3901 H       
  31 H31           -4.9368    10.4777     1.8272 H       
  32 H32            1.7519    -2.2275    -1.0544 H       
  33 H33            2.6189    -1.9819     0.4807 H       
  34 H34            0.9130    -2.4900     0.4934 H       
@<TRIPOS>BOND
   1    1    2 1
   2    1    5 1
   3    2    3 2
   4    3    4 1
   5    3   20 1
   6    4    5 2
   7    5    6 1
   8    6    7 2
   9    6    8 am
  10    8    9 1
  11    8   21 1
  12    9   15 1
  13    9   22 1
  14    9   23 1
  15   10   11 1
  16   10   18 1
  17   10   24 1
  18   11   12 2
  19   11   19 1
  20   12   13 1
  21   12   25 1
  22   13   14 ar
  23   13   18 ar
  24   14   15 ar
  25   14   26 1
  26   15   16 ar
  27   16   17 ar
  28   16   27 1
  29   17   18 ar
  30   17   28 1
  31   19   29 1
  32   19   30 1
  33   19   31 1
  34   20   32 1
  35   20   33 1
  36   20   34 1

#	End of record

