#	Name: ASD01915215
#	Creating user name:	WinNT
#	Creation time:	15. 06. 2019 20:05

#	Modifying user name:	WinNT
#	Modification time:	15. 06. 2019 20:05

#	Program:	/corina/corina34_cracker 3.40 0067  02.08.2006

@<TRIPOS>MOLECULE
ASD01915215
  32   33    0    0    0
SMALL
NO_CHARGES


@<TRIPOS>ATOM
   1 C1             1.1801    -0.6123    -0.0116 C.ar    
   2 C2            -0.0401     0.0666     0.0109 C.ar    
   3 C3            -1.2283    -0.6413     0.0228 C.ar    
   4 C4            -1.2157    -2.0239     0.0120 C.ar    
   5 C5            -0.0008    -2.7138    -0.0110 C.ar    
   6 C6             1.1992    -2.0055    -0.0285 C.ar    
   7 F7            -2.4058     0.0207     0.0455 F       
   8 C8             2.4492     0.1458    -0.0238 C.2     
   9 N9             2.4292     1.4934    -0.0131 N.am    
  10 O10            3.5106    -0.4461    -0.0434 O.2     
  11 C11            3.6219     2.2070     0.0845 C.ar    
  12 C12            3.6048     3.5936    -0.0132 C.ar    
  13 C13            4.7966     4.2901     0.0855 C.ar    
  14 C14            5.9688     3.5725     0.2793 C.ar    
  15 C15            5.9119     2.1954     0.3672 C.ar    
  16 N16            4.7604     1.5587     0.2748 N.ar    
  17 C17            0.0110    -4.1457    -0.0222 C.1     
  18 N18            0.0204    -5.2816    -0.0310 N.1     
  19 C19            7.0319     0.5214     1.8137 C.3     
  20 C20            7.1811     1.4104     0.5775 C.3     
  21 H21           -0.0559     1.1464     0.0194 H       
  22 H22           -2.1465    -2.5716     0.0217 H       
  23 H23            2.1406    -2.5345    -0.0463 H       
  24 H24            1.5846     1.9665    -0.0734 H       
  25 H25            2.6740     4.1202    -0.1644 H       
  26 H26            4.8142     5.3675     0.0131 H       
  27 H27            6.9157     4.0857     0.3601 H       
  28 H28            6.8406     1.1438     2.6879 H       
  29 H29            6.1991    -0.1666     1.6682 H       
  30 H30            7.9499    -0.0464     1.9659 H       
  31 H31            7.3724     0.7880    -0.2967 H       
  32 H32            8.0139     2.0984     0.7230 H       
@<TRIPOS>BOND
   1    1    2 ar
   2    1    8 1
   3    1    6 ar
   4    2    3 ar
   5    2   21 1
   6    3    4 ar
   7    3    7 1
   8    4    5 ar
   9    4   22 1
  10    5    6 ar
  11    5   17 1
  12    6   23 1
  13    8    9 am
  14    8   10 2
  15    9   11 1
  16    9   24 1
  17   11   12 ar
  18   11   16 ar
  19   12   13 ar
  20   12   25 1
  21   13   14 ar
  22   13   26 1
  23   14   15 ar
  24   14   27 1
  25   15   16 ar
  26   15   20 1
  27   17   18 3
  28   19   20 1
  29   19   28 1
  30   19   29 1
  31   19   30 1
  32   20   31 1
  33   20   32 1

#	End of record

