#	Name: ASD01148004
#	Creating user name:	WinNT
#	Creation time:	15. 06. 2019 19:01

#	Modifying user name:	WinNT
#	Modification time:	15. 06. 2019 19:01

#	Program:	/corina/corina34_cracker 3.40 0067  02.08.2006

@<TRIPOS>MOLECULE
ASD01148004
  75   78    0    0    0
SMALL
NO_CHARGES


@<TRIPOS>ATOM
   1 C1            -0.1004     1.8079     0.0705 C.3     
   2 C2            -0.3683     0.3022     0.2030 C.3     
   3 C3             0.8969    -0.5255     0.3293 C.3     
   4 C4             1.8746    -0.2527    -0.8123 C.3     
   5 C5             2.0379     1.2081    -1.0710 C.3     
   6 C6             1.3757     2.1014     0.0002 C.3     
   7 C7             3.4517     1.8048    -1.1211 C.3     
   8 C8             3.1171     3.3250    -1.2187 C.3     
   9 C9             1.7328     3.5029    -0.5447 C.3     
  10 C10            0.5911    -2.0292     0.3777 C.3     
  11 C11            1.4340    -2.7525    -0.6698 C.3     
  12 C12            2.9218    -2.4815    -0.4638 C.3     
  13 C13            3.1921    -0.9726    -0.5283 C.3     
  14 C14           -0.8895    -2.2769     0.0930 C.3     
  15 C15           -1.1898    -3.7766     0.1138 C.3     
  16 C16           -0.3256    -4.5024    -0.9174 C.3     
  17 C17            1.1566    -4.2561    -0.6246 C.3     
  18 C18            0.9312    -2.5294     1.7848 C.3     
  19 C19           -0.6119    -6.0048    -0.8532 C.3     
  20 C20            2.0354     1.9983     1.3732 C.3     
  21 C21            1.8232     4.4825     0.5969 C.2     
  22 O22            2.6108     4.3826     1.6766 O.3     
  23 C23            1.1293     5.6367     0.7279 C.2     
  24 C24            1.5842     6.1711     1.9658 C.2     
  25 N25            2.4683     5.3207     2.4260 N.2     
  26 C26            1.1497     7.4369     2.6032 C.2     
  27 O27            0.3194     8.1365     2.0598 O.2     
  28 O28            1.6759     7.8109     3.7849 O.3     
  29 C29            1.9095     9.3180     5.6835 C.3     
  30 C30            1.2037     9.0622     4.3503 C.3     
  31 H31           -0.5945     2.1874    -0.8341 H       
  32 H32           -0.5392     2.3317     0.9309 H       
  33 H33           -1.0009     0.1325     1.0845 H       
  34 H34           -0.9353    -0.0300    -0.6765 H       
  35 H35            1.3820    -0.3164     1.2876 H       
  36 H36            1.4503    -0.7003    -1.7330 H       
  37 H37            1.5566     1.4385    -2.0501 H       
  38 H38            4.0326     1.5799    -0.2390 H       
  39 H39            3.9711     1.4791    -2.0240 H       
  40 H40            3.8705     3.9041    -0.6891 H       
  41 H41            3.0672     3.6247    -2.2635 H       
  42 H42            0.9880     3.8125    -1.2697 H       
  43 H43            1.1444    -2.3958    -1.6675 H       
  44 H44            3.2575    -2.8762     0.4914 H       
  45 H45            3.4876    -2.9736    -1.2625 H       
  46 H46            3.9037    -0.7644    -1.3264 H       
  47 H47            3.5978    -0.6348     0.4245 H       
  48 H48           -1.4955    -1.7795     0.8516 H       
  49 H49           -1.1426    -1.8775    -0.8911 H       
  50 H50           -1.0162    -4.1907     1.1029 H       
  51 H51           -2.2447    -3.9272    -0.1430 H       
  52 H52           -0.5636    -4.1327    -1.9154 H       
  53 H53            1.7555    -4.7494    -1.3974 H       
  54 H54            1.4221    -4.6727     0.3409 H       
  55 H55            0.3247    -1.9958     2.5166 H       
  56 H56            0.7240    -3.5975     1.8507 H       
  57 H57            1.9870    -2.3509     1.9886 H       
  58 H58           -1.6650    -6.1836    -1.0702 H       
  59 H59            0.0036    -6.5237    -1.5880 H       
  60 H60           -0.3782    -6.3769     0.1443 H       
  61 H61            3.0405     2.4173     1.3258 H       
  62 H62            1.4448     2.5526     2.1027 H       
  63 H63            2.0919     0.9514     1.6715 H       
  64 H64            0.3999     6.0553     0.0503 H       
  65 H65            1.6907     8.5024     6.3727 H       
  66 H66            2.9855     9.3764     5.5196 H       
  67 H67            1.5550    10.2573     6.1079 H       
  68 H68            1.4225     9.8778     3.6610 H       
  69 H69            0.1277     9.0038     4.5142 H       
  70 C70            9.5598    17.0693    12.2558 C.3     
  71 O71            9.5792    15.6405    12.2479 O.3     
  72 H72           10.5824    17.4466    12.2480 H       
  73 H73            9.0326    17.4304    11.3727 H       
  74 H74            9.0496    17.4208    13.1526 H       
  75 H75           10.0189    15.2573    11.4766 H       
@<TRIPOS>BOND
   1    1    2 1
   2    1    6 1
   3    1   31 1
   4    1   32 1
   5    2    3 1
   6    2   33 1
   7    2   34 1
   8    3    4 1
   9    3   10 1
  10    3   35 1
  11    4    5 1
  12    4   13 1
  13    4   36 1
  14    5    6 1
  15    5    7 1
  16    5   37 1
  17    6   20 1
  18    6    9 1
  19    7    8 1
  20    7   38 1
  21    7   39 1
  22    8    9 1
  23    8   40 1
  24    8   41 1
  25    9   21 1
  26    9   42 1
  27   10   14 1
  28   10   18 1
  29   10   11 1
  30   11   12 1
  31   11   17 1
  32   11   43 1
  33   12   13 1
  34   12   44 1
  35   12   45 1
  36   13   46 1
  37   13   47 1
  38   14   15 1
  39   14   48 1
  40   14   49 1
  41   15   16 1
  42   15   50 1
  43   15   51 1
  44   16   17 1
  45   16   19 1
  46   16   52 1
  47   17   53 1
  48   17   54 1
  49   18   55 1
  50   18   56 1
  51   18   57 1
  52   19   58 1
  53   19   59 1
  54   19   60 1
  55   20   61 1
  56   20   62 1
  57   20   63 1
  58   21   22 1
  59   21   23 2
  60   22   25 1
  61   23   24 1
  62   23   64 1
  63   24   25 2
  64   24   26 1
  65   26   27 2
  66   26   28 1
  67   28   30 1
  68   29   30 1
  69   29   65 1
  70   29   66 1
  71   29   67 1
  72   30   68 1
  73   30   69 1
  74   70   71 1
  75   70   72 1
  76   70   73 1
  77   70   74 1
  78   71   75 1

#	End of record

