#	Name: ASD01812072
#	Creating user name:	WinNT
#	Creation time:	15. 06. 2019 19:27

#	Modifying user name:	WinNT
#	Modification time:	15. 06. 2019 19:27

#	Program:	/corina/corina34_cracker 3.40 0067  02.08.2006

@<TRIPOS>MOLECULE
ASD01812072
  39   42    0    0    0
SMALL
NO_CHARGES


@<TRIPOS>ATOM
   1 C1            -0.0167     1.3820     0.0096 C.ar    
   2 C2             0.0021    -0.0041     0.0020 C.ar    
   3 C3             1.1959    -0.6932    -0.0127 C.ar    
   4 C4             2.4016     0.0019    -0.0200 C.ar    
   5 C5             2.3831     1.4075    -0.0128 C.ar    
   6 C6             1.1665     2.0939     0.0022 C.ar    
   7 N7             3.6010    -0.6771    -0.0337 N.pl3   
   8 C8             4.7870    -0.0549    -0.0404 C.2     
   9 C9             4.8957     1.3208    -0.0340 C.2     
  10 C10            3.6667     2.1313    -0.0207 C.2     
  11 C11            3.5775    -2.1419    -0.0409 C.3     
  12 C12            3.5572    -2.6371    -1.4640 C.2     
  13 O13            3.7091     3.3491    -0.0150 O.2     
  14 C14            6.2161     1.9660    -0.0412 C.2     
  15 O15            6.3092     3.3109    -0.0348 O.3     
  16 O16            7.2244     1.2870    -0.0529 O.2     
  17 F17            1.1476     3.4448     0.0091 F       
  18 C18            2.2762    -2.7555    -2.1907 C.2     
  19 C19            2.1420    -3.6715    -3.1721 C.2     
  20 C20            3.3611    -4.4870    -3.4365 C.3     
  21 C21            4.5444    -3.4651    -3.4765 C.3     
  22 C22            4.7100    -2.9694    -2.0832 C.2     
  23 N23            3.5715    -5.0715    -4.7586 N.pl3   
  24 N24            4.9862    -5.1927    -4.8392 N.2     
  25 C25            5.5990    -4.3084    -4.1130 C.2     
  26 H26           -0.9604     1.9071     0.0170 H       
  27 H27           -0.9295    -0.5505     0.0080 H       
  28 H28            1.1956    -1.7731    -0.0181 H       
  29 H29            5.6884    -0.6497    -0.0508 H       
  30 H30            4.4660    -2.5220     0.4634 H       
  31 H31            2.6863    -2.4936     0.4789 H       
  32 H32            7.1990     3.6894    -0.0400 H       
  33 H33            1.4484    -2.1101    -1.9365 H       
  34 H34            1.2226    -3.8037    -3.7230 H       
  35 H35            3.5085    -5.2268    -2.6496 H       
  36 H36            4.2908    -2.6324    -4.1326 H       
  37 H37            5.6742    -2.8885    -1.6035 H       
  38 H38            2.9071    -5.3177    -5.4211 H       
  39 H39            6.6671    -4.2030    -3.9924 H       
@<TRIPOS>BOND
   1    1    2 ar
   2    1    6 ar
   3    1   26 1
   4    2    3 ar
   5    2   27 1
   6    3    4 ar
   7    3   28 1
   8    4    5 ar
   9    4    7 1
  10    5    6 ar
  11    5   10 1
  12    6   17 1
  13    7    8 1
  14    7   11 1
  15    8    9 2
  16    8   29 1
  17    9   10 1
  18    9   14 1
  19   10   13 2
  20   11   12 1
  21   11   30 1
  22   11   31 1
  23   12   18 1
  24   12   22 2
  25   14   15 1
  26   14   16 2
  27   15   32 1
  28   18   19 2
  29   18   33 1
  30   19   20 1
  31   19   34 1
  32   20   21 1
  33   20   23 1
  34   20   35 1
  35   21   22 1
  36   21   25 1
  37   21   36 1
  38   22   37 1
  39   23   24 1
  40   23   38 1
  41   24   25 2
  42   25   39 1

#	End of record

