#	Name: ASD01810001
#	Creating user name:	WinNT
#	Creation time:	15. 06. 2019 19:23

#	Modifying user name:	WinNT
#	Modification time:	15. 06. 2019 19:23

#	Program:	/corina/corina34_cracker 3.40 0067  02.08.2006

@<TRIPOS>MOLECULE
ASD01810001
  37   41    0    0    0
SMALL
NO_CHARGES


@<TRIPOS>ATOM
   1 N1            -0.0163     1.3479     0.0095 N.am    
   2 C2             0.0021    -0.0041     0.0020 C.2     
   3 C3            -1.2675    -0.7371    -0.3574 C.3     
   4 C4            -2.5159    -0.1240     0.2723 C.3     
   5 C5            -2.5122     1.3729     0.1208 C.ar    
   6 C6            -1.2660     1.9808     0.0315 C.ar    
   7 C7            -3.6303     2.1613     0.0679 C.ar    
   8 C8            -3.5034     3.5486    -0.0487 C.ar    
   9 C9            -2.2642     4.1481    -0.0989 C.ar    
  10 C10           -1.1114     3.3585    -0.0513 C.ar    
  11 C11            0.9560     2.3070     0.0053 C.ar    
  12 C12            0.3357     3.5834    -0.0415 C.ar    
  13 C13            1.0884     4.7558    -0.0670 C.ar    
  14 C14            2.4666     4.6217    -0.0386 C.ar    
  15 C15            3.0743     3.3806     0.0130 C.ar    
  16 C16            2.3455     2.2039     0.0380 C.ar    
  17 C17           -4.7732     4.3581    -0.1229 C.3     
  18 N18           -4.5086     5.7652     0.1893 N.3     
  19 C19           -3.4203     6.2787    -0.6579 C.3     
  20 C20           -2.1087     5.6432    -0.1969 C.3     
  21 O21            1.0140    -0.6129     0.2770 O.2     
  22 H22           -1.3819    -0.7282    -1.4414 H       
  23 H23           -1.1802    -1.7717    -0.0257 H       
  24 H24           -3.4009    -0.5316    -0.2162 H       
  25 H25           -2.5439    -0.3770     1.3322 H       
  26 H26           -4.6108     1.7111     0.1159 H       
  27 H27            0.6175     5.7269    -0.1075 H       
  28 H28            3.0823     5.5088    -0.0577 H       
  29 H29            4.1527     3.3277     0.0355 H       
  30 H30            2.8352     1.2421     0.0790 H       
  31 H31           -5.1875     4.2851    -1.1285 H       
  32 H32           -5.4944     3.9612     0.5916 H       
  33 H33           -5.3431     6.3223     0.0831 H       
  34 H34           -3.6099     6.0153    -1.6985 H       
  35 H35           -3.3580     7.3624    -0.5586 H       
  36 H36           -1.8371     6.0431     0.7800 H       
  37 H37           -1.3216     5.8787    -0.9133 H       
@<TRIPOS>BOND
   1    1    2 am
   2    1   11 1
   3    1    6 1
   4    2    3 1
   5    2   21 2
   6    3    4 1
   7    3   22 1
   8    3   23 1
   9    4    5 1
  10    4   24 1
  11    4   25 1
  12    5    6 ar
  13    5    7 ar
  14    6   10 ar
  15    7    8 ar
  16    7   26 1
  17    8    9 ar
  18    8   17 1
  19    9   10 ar
  20    9   20 1
  21   10   12 1
  22   11   12 ar
  23   11   16 ar
  24   12   13 ar
  25   13   14 ar
  26   13   27 1
  27   14   15 ar
  28   14   28 1
  29   15   16 ar
  30   15   29 1
  31   16   30 1
  32   17   18 1
  33   17   31 1
  34   17   32 1
  35   18   19 1
  36   18   33 1
  37   19   20 1
  38   19   34 1
  39   19   35 1
  40   20   36 1
  41   20   37 1

#	End of record

