#	Name: ASD03330831
#	Creating user name:	WinNT
#	Creation time:	15. 06. 2019 20:38

#	Modifying user name:	WinNT
#	Modification time:	15. 06. 2019 20:38

#	Program:	/corina/corina34_cracker 3.40 0067  02.08.2006

@<TRIPOS>MOLECULE
ASD03330831
  60   62    0    0    0
SMALL
NO_CHARGES


@<TRIPOS>ATOM
   1 C1            -0.5603     1.7806    -0.1872 C.2     
   2 N2            -0.7299     0.4410    -0.3491 N.pl3   
   3 C3             0.7754     2.0290    -0.2791 C.2     
   4 N4             1.3987     0.8526    -0.5111 N.2     
   5 C5             0.5023    -0.1051    -0.5605 C.2     
   6 C6             0.7815    -1.5366    -0.8039 C.ar    
   7 C7             1.4249     3.3452    -0.1492 C.2     
   8 O8             0.7528     4.3370     0.0602 O.2     
   9 N9             2.7638     3.4500    -0.2623 N.am    
  10 C10           -2.0118    -0.2666    -0.2887 C.3     
  11 C11           -3.0412     0.4853    -1.1382 C.3     
  12 C12           -3.7225     1.5573    -0.2938 C.3     
  13 N13           -2.7957     2.1221     0.6890 N.3     
  14 C14           -1.6602     2.7867     0.0324 C.3     
  15 C15            1.6050    -1.9197    -1.8656 C.ar    
  16 C16            1.8626    -3.2592    -2.0886 C.ar    
  17 C17            1.3062    -4.2205    -1.2621 C.ar    
  18 C18            0.4872    -3.8452    -0.2057 C.ar    
  19 C19            0.2280    -2.5098     0.0295 C.ar    
  20 C20            3.4096     4.7586    -0.1332 C.3     
  21 C21            4.7237     4.7453    -0.8707 C.2     
  22 C22            3.6581     5.0610     1.3460 C.3     
  23 C23            4.5227     3.9551     1.9544 C.3     
  24 C24            4.3799     6.4035     1.4778 C.3     
  25 C25            2.3199     5.1268     2.0848 C.3     
  26 O26            5.2581     3.6900    -1.1387 O.2     
  27 N27            5.3052     5.9060    -1.2326 N.am    
  28 C28            6.5307     5.8924    -2.0353 C.3     
  29 C29           -3.4901     3.0428     1.5990 C.3     
  30 F30           -0.0529    -4.7884     0.5967 F       
  31 F31            1.5607    -5.5285    -1.4846 F       
  32 F32            2.1481    -0.9825    -2.6731 F       
  33 H33            3.2999     2.6590    -0.4293 H       
  34 H34           -1.8883    -1.2778    -0.6763 H       
  35 H35           -2.3550    -0.3110     0.7449 H       
  36 H36           -2.5393     0.9549    -1.9842 H       
  37 H37           -3.7897    -0.2165    -1.5059 H       
  38 H38           -4.0801     2.3533    -0.9469 H       
  39 H39           -4.5715     1.1155     0.2279 H       
  40 H40           -1.2942     3.5942     0.6665 H       
  41 H41           -1.9804     3.1920    -0.9274 H       
  42 H42            2.4987    -3.5565    -2.9092 H       
  43 H43           -0.4089    -2.2190     0.8519 H       
  44 H44            2.7627     5.5265    -0.5573 H       
  45 H45            5.4761     3.9082     1.4280 H       
  46 H46            4.6997     4.1705     3.0081 H       
  47 H47            4.0084     2.9986     1.8604 H       
  48 H48            3.7514     7.1956     1.0708 H       
  49 H49            4.5830     6.6051     2.5296 H       
  50 H50            5.3198     6.3663     0.9270 H       
  51 H51            1.8056     4.1703     1.9909 H       
  52 H52            2.4969     5.3422     3.1385 H       
  53 H53            1.7039     5.9146     1.6514 H       
  54 H54            4.9123     6.7505    -0.9617 H       
  55 H55            6.8503     6.9166    -2.2279 H       
  56 H56            7.3143     5.3632    -1.4931 H       
  57 H57            6.3393     5.3874    -2.9821 H       
  58 H58           -4.2768     2.5056     2.1288 H       
  59 H59           -2.7787     3.4479     2.3186 H       
  60 H60           -3.9302     3.8581     1.0248 H       
@<TRIPOS>BOND
   1    1    2 1
   2    1    3 2
   3    1   14 1
   4    2   10 1
   5    2    5 1
   6    3    4 1
   7    3    7 1
   8    4    5 2
   9    5    6 1
  10    6   15 ar
  11    6   19 ar
  12    7    8 2
  13    7    9 am
  14    9   20 1
  15    9   33 1
  16   10   11 1
  17   10   34 1
  18   10   35 1
  19   11   12 1
  20   11   36 1
  21   11   37 1
  22   12   13 1
  23   12   38 1
  24   12   39 1
  25   13   14 1
  26   13   29 1
  27   14   40 1
  28   14   41 1
  29   15   16 ar
  30   15   32 1
  31   16   17 ar
  32   16   42 1
  33   17   18 ar
  34   17   31 1
  35   18   19 ar
  36   18   30 1
  37   19   43 1
  38   20   21 1
  39   20   22 1
  40   20   44 1
  41   21   26 2
  42   21   27 am
  43   22   23 1
  44   22   24 1
  45   22   25 1
  46   23   45 1
  47   23   46 1
  48   23   47 1
  49   24   48 1
  50   24   49 1
  51   24   50 1
  52   25   51 1
  53   25   52 1
  54   25   53 1
  55   27   28 1
  56   27   54 1
  57   28   55 1
  58   28   56 1
  59   28   57 1
  60   29   58 1
  61   29   59 1
  62   29   60 1

#	End of record

