#	Name: ASD05430421
#	Creating user name:	WinNT
#	Creation time:	15. 06. 2019 21:00

#	Modifying user name:	WinNT
#	Modification time:	15. 06. 2019 21:00

#	Program:	/corina/corina34_cracker 3.40 0067  02.08.2006

@<TRIPOS>MOLECULE
ASD05430421
  60   64    0    0    0
SMALL
NO_CHARGES


@<TRIPOS>ATOM
   1 C1            -1.2078    -0.7179     0.3912 C.ar    
   2 C2            -0.0094    -0.0071     0.3223 C.ar    
   3 C3            -0.0240     1.3734     0.1647 C.ar    
   4 C4            -1.2218     2.0472     0.0757 C.ar    
   5 C5            -2.4289     1.3409     0.1436 C.ar    
   6 C6            -2.4135    -0.0502     0.2971 C.ar    
   7 C7            -4.8681     1.3633    -0.0465 C.2     
   8 C8            -3.7079     2.0574     0.0490 C.2     
   9 O9            -1.1891    -2.0685     0.5455 O.3     
  10 C10            2.2781    -0.5639    -0.4405 C.2     
  11 N11            1.2119    -0.6868     0.4126 N.pl3   
  12 C12            3.2382    -1.3919     0.0134 C.2     
  13 N13            2.7765    -2.0058     1.1130 N.2     
  14 C14            1.5640    -1.5920     1.3624 C.2     
  15 C15            4.5966    -1.5941    -0.6072 C.3     
  16 O16           -4.8777     0.0039    -0.2182 O.3     
  17 C17           -5.8382    -0.4682    -1.1737 C.3     
  18 C18           -7.2405    -0.0551    -0.7220 C.3     
  19 N19           -7.2799     1.3793    -0.4445 N.pl3   
  20 C20           -6.1733     2.0333     0.0357 C.2     
  21 C21           -8.5053     2.1488    -0.7007 C.3     
  22 C22           -8.7363     3.0956     0.4831 C.3     
  23 C23           -7.4480     3.8124     0.7972 C.2     
  24 N24           -6.2756     3.2331     0.5848 N.2     
  25 O25           -7.4851     4.9373     1.2564 O.2     
  26 C26           -2.4532    -2.7319     0.6084 C.3     
  27 C27           -8.3468     2.9492    -1.9677 C.ar    
  28 C28           -9.4054     3.0636    -2.8493 C.ar    
  29 C29           -9.2614     3.7977    -4.0113 C.ar    
  30 C30           -8.0562     4.4187    -4.2923 C.ar    
  31 C31           -6.9966     4.3034    -3.4086 C.ar    
  32 C32           -7.1446     3.5731    -2.2447 C.ar    
  33 F33           -7.9141     5.1363    -5.4282 F       
  34 C34           -9.8150     4.1175     0.1184 C.3     
  35 O35          -10.1120     4.9244     1.2598 O.3     
  36 H36            0.9063     1.9194     0.1122 H       
  37 H37           -1.2301     3.1203    -0.0461 H       
  38 H38           -3.3420    -0.5994     0.3496 H       
  39 H39           -3.7237     3.1373     0.0554 H       
  40 H40            2.3352     0.0714    -1.3120 H       
  41 H41            0.9445    -1.9151     2.1860 H       
  42 H42            5.3026    -0.8850    -0.1751 H       
  43 H43            4.9374    -2.6109    -0.4120 H       
  44 H44            4.5321    -1.4328    -1.6832 H       
  45 H45           -5.6264    -0.0314    -2.1496 H       
  46 H46           -5.7823    -1.5548    -1.2400 H       
  47 H47           -7.9572    -0.2905    -1.5088 H       
  48 H48           -7.5056    -0.6050     0.1810 H       
  49 H49           -9.3520     1.4693    -0.7983 H       
  50 H50           -9.0553     2.5210     1.3527 H       
  51 H51           -3.0231    -2.3484     1.4547 H       
  52 H52           -3.0052    -2.5501    -0.3138 H       
  53 H53           -2.2955    -3.8033     0.7322 H       
  54 H54          -10.3453     2.5789    -2.6301 H       
  55 H55          -10.0885     3.8867    -4.7001 H       
  56 H56           -6.0561     4.7873    -3.6268 H       
  57 H57           -6.3183     3.4830    -1.5552 H       
  58 H58           -9.4553     4.7520    -0.6915 H       
  59 H59          -10.7166     3.5954    -0.2019 H       
  60 H60          -10.7894     5.5960     1.1011 H       
@<TRIPOS>BOND
   1    1    2 ar
   2    1    9 1
   3    1    6 ar
   4    2    3 ar
   5    2   11 1
   6    3    4 ar
   7    3   36 1
   8    4    5 ar
   9    4   37 1
  10    5    6 ar
  11    5    8 1
  12    6   38 1
  13    7    8 2
  14    7   16 1
  15    7   20 1
  16    8   39 1
  17    9   26 1
  18   10   11 1
  19   10   12 2
  20   10   40 1
  21   11   14 1
  22   12   13 1
  23   12   15 1
  24   13   14 2
  25   14   41 1
  26   15   42 1
  27   15   43 1
  28   15   44 1
  29   16   17 1
  30   17   18 1
  31   17   45 1
  32   17   46 1
  33   18   19 1
  34   18   47 1
  35   18   48 1
  36   19   20 1
  37   19   21 1
  38   20   24 2
  39   21   22 1
  40   21   27 1
  41   21   49 1
  42   22   23 1
  43   22   34 1
  44   22   50 1
  45   23   24 1
  46   23   25 2
  47   26   51 1
  48   26   52 1
  49   26   53 1
  50   27   28 ar
  51   27   32 ar
  52   28   29 ar
  53   28   54 1
  54   29   30 ar
  55   29   55 1
  56   30   31 ar
  57   30   33 1
  58   31   32 ar
  59   31   56 1
  60   32   57 1
  61   34   35 1
  62   34   58 1
  63   34   59 1
  64   35   60 1

#	End of record

