#	Name: ASD01882082
#	Creating user name:	WinNT
#	Creation time:	15. 06. 2019 19:43

#	Modifying user name:	WinNT
#	Modification time:	15. 06. 2019 19:43

#	Program:	/corina/corina34_cracker 3.40 0067  02.08.2006

@<TRIPOS>MOLECULE
ASD01882082
  59   61    0    0    0
SMALL
NO_CHARGES


@<TRIPOS>ATOM
   1 N1            -0.0153     1.2799     0.0091 N.2     
   2 N2             0.0021    -0.0041     0.0020 N.2     
   3 N3             1.2161    -0.4370    -0.0119 N.2     
   4 N4             2.0522     0.6932    -0.0138 N.pl3   
   5 C5             1.2117     1.7575    -0.0001 C.2     
   6 C6             1.5999     3.1850     0.0032 C.ar    
   7 C7             3.3067     4.8741    -0.0109 C.ar    
   8 C8             2.9486     3.5430    -0.0140 C.ar    
   9 C9             0.6183     4.1768     0.0176 C.ar    
  10 C10            0.9838     5.5058     0.0206 C.ar    
  11 C11            2.3271     5.8584     0.0088 C.ar    
  12 O12            2.6836     7.1691     0.0123 O.3     
  13 C13            1.6254     8.1292     0.0329 C.3     
  14 C14            2.2170     9.5402     0.0338 C.3     
  15 C15            1.0840    10.5682     0.0559 C.3     
  16 C16            1.6755    11.9792     0.0567 C.3     
  17 O17            0.6173    12.9393     0.0774 O.3     
  18 C18            0.9734    14.2484     0.0808 C.ar    
  19 C19            0.3545    16.5665     0.1103 C.ar    
  20 C20           -0.0065    15.2302     0.1063 C.ar    
  21 C21            2.3210    14.5999     0.0646 C.ar    
  22 C22            2.6923    15.9127     0.0687 C.ar    
  23 C23            1.7161    16.9184     0.0890 C.ar    
  24 C24           -1.4625    14.8421     0.1291 C.3     
  25 O25           -0.5989    17.5305     0.1356 O.3     
  26 C26            2.1120    18.3287     0.0925 C.2     
  27 O27            1.2645    19.1968     0.1139 O.2     
  28 C28            3.5720    18.7015     0.0696 C.3     
  29 C29            3.7095    20.2253     0.0785 C.3     
  30 C30            3.1713    20.7782     1.3997 C.3     
  31 C31            5.1841    20.6052    -0.0703 C.3     
  32 H32            3.0221     0.7085    -0.0227 H       
  33 H33            4.3503     5.1519    -0.0238 H       
  34 H34            3.7109     2.7781    -0.0293 H       
  35 H35           -0.4264     3.9034     0.0260 H       
  36 H36            0.2247     6.2739     0.0317 H       
  37 H37            0.9989     7.9984    -0.8494 H       
  38 H38            1.0233     7.9871     0.9303 H       
  39 H39            2.8435     9.6710     0.9161 H       
  40 H40            2.8191     9.6823    -0.8637 H       
  41 H41            0.4575    10.4374    -0.8265 H       
  42 H42            0.4819    10.4261     0.9533 H       
  43 H43            2.3020    12.1100     0.9391 H       
  44 H44            2.2776    12.1213    -0.8407 H       
  45 H45            3.0768    13.8285     0.0489 H       
  46 H46            3.7393    16.1773     0.0568 H       
  47 H47           -1.8318    14.7566    -0.8929 H       
  48 H48           -1.5755    13.8846     0.6375 H       
  49 H49           -2.0335    15.6045     0.6591 H       
  50 H50           -0.8592    17.8031     1.0261 H       
  51 H51            4.0667    18.2869     0.9480 H       
  52 H52            4.0354    18.3001    -0.8316 H       
  53 H53            3.1404    20.6463    -0.7503 H       
  54 H54            2.1207    20.5076     1.5057 H       
  55 H55            3.7404    20.3572     2.2285 H       
  56 H56            3.2692    21.8638     1.4061 H       
  57 H57            5.5676    20.2113    -1.0115 H       
  58 H58            5.2821    21.6907    -0.0639 H       
  59 H59            5.7532    20.1842     0.7585 H       
@<TRIPOS>BOND
   1    1    2 1
   2    1    5 2
   3    2    3 2
   4    3    4 1
   5    4    5 1
   6    4   32 1
   7    5    6 1
   8    6    9 ar
   9    6    8 ar
  10    7    8 ar
  11    7   11 ar
  12    7   33 1
  13    8   34 1
  14    9   10 ar
  15    9   35 1
  16   10   11 ar
  17   10   36 1
  18   11   12 1
  19   12   13 1
  20   13   14 1
  21   13   37 1
  22   13   38 1
  23   14   15 1
  24   14   39 1
  25   14   40 1
  26   15   16 1
  27   15   41 1
  28   15   42 1
  29   16   17 1
  30   16   43 1
  31   16   44 1
  32   17   18 1
  33   18   21 ar
  34   18   20 ar
  35   19   20 ar
  36   19   23 ar
  37   19   25 1
  38   20   24 1
  39   21   22 ar
  40   21   45 1
  41   22   23 ar
  42   22   46 1
  43   23   26 1
  44   24   47 1
  45   24   48 1
  46   24   49 1
  47   25   50 1
  48   26   27 2
  49   26   28 1
  50   28   29 1
  51   28   51 1
  52   28   52 1
  53   29   30 1
  54   29   31 1
  55   29   53 1
  56   30   54 1
  57   30   55 1
  58   30   56 1
  59   31   57 1
  60   31   58 1
  61   31   59 1

#	End of record

