#	Name: ASD08150532
#	Creating user name:	WinNT
#	Creation time:	15. 06. 2019 21:16

#	Modifying user name:	WinNT
#	Modification time:	15. 06. 2019 21:16

#	Program:	/corina/corina34_cracker 3.40 0067  02.08.2006

@<TRIPOS>MOLECULE
ASD08150532
  30   32    0    0    0
SMALL
NO_CHARGES


@<TRIPOS>ATOM
   1 N1            -0.0155     1.2942     0.0092 N.2     
   2 C2             0.0021    -0.0041     0.0020 C.2     
   3 N3             1.1488    -0.7361    -0.0129 N.am    
   4 C4             2.3561    -0.1245    -0.0211 C.2     
   5 C5             2.3703     1.3456    -0.0133 C.ar    
   6 C6             3.5602     2.0707    -0.0203 C.ar    
   7 C7             3.5159     3.4484    -0.0121 C.ar    
   8 C8             2.2970     4.1158     0.0031 C.ar    
   9 C9             1.1108     3.4174     0.0107 C.ar    
  10 C10            1.1298     2.0211     0.0021 C.ar    
  11 O11            3.3902    -0.7667    -0.0340 O.2     
  12 C12            1.0793    -2.1353    -0.0193 C.ar    
  13 C13            1.0565    -2.8370     1.1803 C.ar    
  14 C14            0.9879    -4.2172     1.1699 C.ar    
  15 C15            0.9425    -4.8995    -0.0322 C.ar    
  16 C16            0.9656    -4.2038    -1.2268 C.ar    
  17 C17            1.0274    -2.8237    -1.2235 C.ar    
  18 Cl18           1.1146    -1.9809     2.6894 Cl      
  19 C19           -1.3145    -0.7373     0.0112 C.3     
  20 Cl20          -2.6665     0.4554     0.0310 Cl      
  21 Br21           5.1269     4.4385    -0.0208 Br      
  22 H22            4.5102     1.5571    -0.0317 H       
  23 H23            2.2802     5.1956     0.0094 H       
  24 H24            0.1696     3.9471     0.0225 H       
  25 H25            0.9701    -4.7636     2.1014 H       
  26 H26            0.8894    -5.9782    -0.0378 H       
  27 H27            0.9304    -4.7398    -2.1637 H       
  28 H28            1.0401    -2.2810    -2.1572 H       
  29 H29           -1.3908    -1.3582    -0.8815 H       
  30 H30           -1.3731    -1.3678     0.8984 H       
@<TRIPOS>BOND
   1    1    2 2
   2    1   10 1
   3    2    3 1
   4    2   19 1
   5    3    4 am
   6    3   12 1
   7    4    5 1
   8    4   11 2
   9    5    6 ar
  10    5   10 ar
  11    6    7 ar
  12    6   22 1
  13    7    8 ar
  14    7   21 1
  15    8    9 ar
  16    8   23 1
  17    9   10 ar
  18    9   24 1
  19   12   13 ar
  20   12   17 ar
  21   13   14 ar
  22   13   18 1
  23   14   15 ar
  24   14   25 1
  25   15   16 ar
  26   15   26 1
  27   16   17 ar
  28   16   27 1
  29   17   28 1
  30   19   20 1
  31   19   29 1
  32   19   30 1

#	End of record

