#	Name: ASD01410921
#	Creating user name:	WinNT
#	Creation time:	15. 06. 2019 19:18

#	Modifying user name:	WinNT
#	Modification time:	15. 06. 2019 19:18

#	Program:	/corina/corina34_cracker 3.40 0067  02.08.2006

@<TRIPOS>MOLECULE
ASD01410921
  67   69    0    0    0
SMALL
NO_CHARGES


@<TRIPOS>ATOM
   1 S1             0.4856     2.1231    -0.3247 S.3     
   2 C2             0.0845     0.4284    -0.0838 C.2     
   3 C3             1.2376    -0.3210    -0.0625 C.2     
   4 C4             2.3912     0.4066    -0.2287 C.2     
   5 C5             2.2020     1.7490    -0.3870 C.2     
   6 C6             3.2467     2.7099    -0.5763 C.1     
   7 C7             4.1032     3.4978    -0.7316 C.1     
   8 C8             5.1770     4.4855    -0.9262 C.3     
   9 C9             6.5314     3.7739    -0.9223 C.3     
  10 C10            4.9787     5.1972    -2.2660 C.3     
  11 C11           -1.2241    -0.0858     0.0656 C.2     
  12 N12            1.2361    -1.7054     0.1142 N.am    
  13 O13           -2.2755     0.7572     0.1459 O.3     
  14 O14           -1.4027    -1.2885     0.1219 O.2     
  15 C15            1.1926    -2.2715     1.4647 C.3     
  16 C16            1.2747    -2.5216    -0.9577 C.2     
  17 C17            1.1846    -4.0143    -0.7717 C.3     
  18 O18            1.3819    -2.0547    -2.0719 O.2     
  19 C19            2.5922    -2.3643     2.0158 C.2     
  20 C20            0.9256    -4.6820    -2.1237 C.3     
  21 C21            2.0730    -4.3557    -3.0818 C.3     
  22 C22            3.3880    -4.8774    -2.4990 C.3     
  23 C23            3.6470    -4.2097    -1.1470 C.3     
  24 C24            2.4996    -4.5360    -0.1889 C.3     
  25 C25            4.5354    -4.5511    -3.4571 C.3     
  26 N26            2.8014    -2.8916     3.2384 N.am    
  27 O27            3.5302    -1.9646     1.3591 O.2     
  28 C28            5.1371     5.5122     0.2075 C.3     
  29 C29            4.1588    -2.9927     3.7975 C.3     
  30 C30            4.1472    -2.3903     5.2071 C.3     
  31 O31            3.1000    -2.9957     5.9691 O.3     
  32 C32            1.7884    -2.7612     5.4508 C.3     
  33 C33            1.6786    -3.3774     4.0561 C.3     
  34 H34            3.3709    -0.0480    -0.2333 H       
  35 H35            6.5598     3.0424    -1.7299 H       
  36 H36            7.3266     4.5053    -1.0664 H       
  37 H37            6.6727     3.2669     0.0322 H       
  38 H38            4.0138     5.7042    -2.2687 H       
  39 H39            5.7739     5.9287    -2.4101 H       
  40 H40            5.0071     4.4658    -3.0736 H       
  41 H41           -3.1287     0.3134     0.2468 H       
  42 H42            0.5905    -1.6301     2.1083 H       
  43 H43            0.7501    -3.2669     1.4274 H       
  44 H44            0.3672    -4.2468    -0.0892 H       
  45 H45            0.8604    -5.7617    -1.9892 H       
  46 H46           -0.0112    -4.3104    -2.5389 H       
  47 H47            1.8885    -4.8314    -4.0450 H       
  48 H48            2.1382    -3.2760    -3.2163 H       
  49 H49            3.3228    -5.9571    -2.3645 H       
  50 H50            4.5838    -4.5813    -0.7318 H       
  51 H51            3.7122    -3.1300    -1.2815 H       
  52 H52            2.6841    -4.0603     0.7743 H       
  53 H53            2.4344    -5.6157    -0.0544 H       
  54 H54            4.6006    -3.4714    -3.5916 H       
  55 H55            5.4722    -4.9227    -3.0419 H       
  56 H56            4.3509    -5.0267    -4.4203 H       
  57 H57            5.2784     5.0052     1.1620 H       
  58 H58            5.9323     6.2437     0.0634 H       
  59 H59            4.1722     6.0192     0.2048 H       
  60 H60            4.4579    -4.0397     3.8481 H       
  61 H61            4.8571    -2.4410     3.1682 H       
  62 H62            5.1054    -2.5786     5.6913 H       
  63 H63            3.9760    -1.3158     5.1424 H       
  64 H64            1.0496    -3.2162     6.1105 H       
  65 H65            1.6086    -1.6880     5.3870 H       
  66 H66            0.7353    -3.0803     3.5979 H       
  67 H67            1.7237    -4.4637     4.1332 H       
@<TRIPOS>BOND
   1    1    2 1
   2    1    5 1
   3    2    3 2
   4    2   11 1
   5    3    4 1
   6    3   12 1
   7    4    5 2
   8    4   34 1
   9    5    6 1
  10    6    7 3
  11    7    8 1
  12    8    9 1
  13    8   10 1
  14    8   28 1
  15    9   35 1
  16    9   36 1
  17    9   37 1
  18   10   38 1
  19   10   39 1
  20   10   40 1
  21   11   13 1
  22   11   14 2
  23   12   15 1
  24   12   16 am
  25   13   41 1
  26   15   19 1
  27   15   42 1
  28   15   43 1
  29   16   17 1
  30   16   18 2
  31   17   20 1
  32   17   24 1
  33   17   44 1
  34   19   26 am
  35   19   27 2
  36   20   21 1
  37   20   45 1
  38   20   46 1
  39   21   22 1
  40   21   47 1
  41   21   48 1
  42   22   23 1
  43   22   25 1
  44   22   49 1
  45   23   24 1
  46   23   50 1
  47   23   51 1
  48   24   52 1
  49   24   53 1
  50   25   54 1
  51   25   55 1
  52   25   56 1
  53   26   29 1
  54   26   33 1
  55   28   57 1
  56   28   58 1
  57   28   59 1
  58   29   30 1
  59   29   60 1
  60   29   61 1
  61   30   31 1
  62   30   62 1
  63   30   63 1
  64   31   32 1
  65   32   33 1
  66   32   64 1
  67   32   65 1
  68   33   66 1
  69   33   67 1

#	End of record

