#	Name: ASD01914158
#	Creating user name:	WinNT
#	Creation time:	15. 06. 2019 20:02

#	Modifying user name:	WinNT
#	Modification time:	15. 06. 2019 20:02

#	Program:	/corina/corina34_cracker 3.40 0067  02.08.2006

@<TRIPOS>MOLECULE
ASD01914158
  51   54    0    0    0
SMALL
NO_CHARGES


@<TRIPOS>ATOM
   1 C1             2.0786     0.5851     0.6662 C.2     
   2 C2             1.7292    -0.8405     0.6154 C.2     
   3 N3             0.5228    -1.3542     0.4243 N.2     
   4 C4             0.6902    -2.6844     0.4558 C.2     
   5 N5             1.9535    -2.9192     0.6586 N.2     
   6 O6             2.5712    -1.8793     0.7477 O.3     
   7 C7            -0.3907    -3.7208     0.2871 C.3     
   8 C8            -0.0708    -4.6002    -0.9239 C.3     
   9 C9            -1.1846    -5.6320    -1.1157 C.3     
  10 C10           -1.2645    -6.5277     0.1246 C.3     
  11 N11           -1.4273    -5.6777     1.3120 N.am    
  12 C12           -0.4617    -4.5948     1.5433 C.3     
  13 C13           -2.4430    -5.8875     2.1726 C.2     
  14 C14           -2.5240    -5.1054     3.4265 C.ar    
  15 O15           -3.2924    -6.7190     1.9191 O.2     
  16 C16            3.3290     1.1021     0.8642 C.2     
  17 C17            3.2107     2.4972     0.8404 C.2     
  18 C18            1.9078     2.7980     0.6311 C.2     
  19 N19            1.2080     1.6389     0.5173 N.pl3   
  20 C20            4.3334     3.4868     1.0169 C.3     
  21 C21           -1.5173    -4.2076     5.4076 C.ar    
  22 N22           -2.6662    -3.6579     5.7526 N.ar    
  23 C23           -3.7539    -3.7870     5.0144 C.ar    
  24 C24           -3.7255    -4.5130     3.8271 C.ar    
  25 C25           -1.4009    -4.9432     4.2471 C.ar    
  26 C26            0.0229    -7.3446     0.2511 C.3     
  27 F27           -4.8398    -4.6427     3.0744 F       
  28 O28           -4.9107    -3.2009     5.4153 O.3     
  29 C29           -4.8747    -2.4648     6.6396 C.3     
  30 H30           -1.3493    -3.2251     0.1336 H       
  31 H31            0.0045    -3.9773    -1.8152 H       
  32 H32            0.8761    -5.1143    -0.7593 H       
  33 H33           -2.1359    -5.1187    -1.2557 H       
  34 H34           -0.9678    -6.2428    -1.9921 H       
  35 H35           -2.1186    -7.1991     0.0360 H       
  36 H36            0.5210    -5.0191     1.7491 H       
  37 H37           -0.7860    -3.9909     2.3907 H       
  38 H38            4.2387     0.5391     1.0119 H       
  39 H39            1.4941     3.7932     0.5618 H       
  40 H40            0.2530     1.5669     0.3635 H       
  41 H41            4.7667     3.7219     0.0447 H       
  42 H42            3.9461     4.3983     1.4720 H       
  43 H43            5.0995     3.0560     1.6615 H       
  44 H44           -0.6533    -4.0757     6.0421 H       
  45 H45           -0.4556    -5.3890     3.9747 H       
  46 H46            0.8736    -6.6698     0.3458 H       
  47 H47           -0.0360    -7.9811     1.1341 H       
  48 H48            0.1483    -7.9650    -0.6363 H       
  49 H49           -4.5850    -3.1285     7.4542 H       
  50 H50           -4.1499    -1.6550     6.5554 H       
  51 H51           -5.8617    -2.0493     6.8429 H       
@<TRIPOS>BOND
   1    1    2 1
   2    1   16 2
   3    1   19 1
   4    2    3 2
   5    2    6 1
   6    3    4 1
   7    4    5 2
   8    4    7 1
   9    5    6 1
  10    7    8 1
  11    7   12 1
  12    7   30 1
  13    8    9 1
  14    8   31 1
  15    8   32 1
  16    9   10 1
  17    9   33 1
  18    9   34 1
  19   10   11 1
  20   10   26 1
  21   10   35 1
  22   11   12 1
  23   11   13 am
  24   12   36 1
  25   12   37 1
  26   13   14 1
  27   13   15 2
  28   14   25 ar
  29   14   24 ar
  30   16   17 1
  31   16   38 1
  32   17   18 2
  33   17   20 1
  34   18   19 1
  35   18   39 1
  36   19   40 1
  37   20   41 1
  38   20   42 1
  39   20   43 1
  40   21   22 ar
  41   21   25 ar
  42   21   44 1
  43   22   23 ar
  44   23   24 ar
  45   23   28 1
  46   24   27 1
  47   25   45 1
  48   26   46 1
  49   26   47 1
  50   26   48 1
  51   28   29 1
  52   29   49 1
  53   29   50 1
  54   29   51 1

#	End of record

