#	Name: ASD01900573
#	Creating user name:	WinNT
#	Creation time:	15. 06. 2019 19:52

#	Modifying user name:	WinNT
#	Modification time:	15. 06. 2019 19:52

#	Program:	/corina/corina34_cracker 3.40 0067  02.08.2006

@<TRIPOS>MOLECULE
ASD01900573
  40   43    0    0    0
SMALL
NO_CHARGES


@<TRIPOS>ATOM
   1 C1             1.1576     3.0216     0.7492 C.2     
   2 C2             2.3017     3.2454     1.4625 C.2     
   3 C3             3.2693     2.2921     1.2511 C.2     
   4 C4             2.9317     1.3206     0.3951 C.2     
   5 S5             1.3510     1.5557    -0.2023 S.3     
   6 C6            -0.0407     3.8648     0.7777 C.2     
   7 O7            -0.0688     4.8589     1.4795 O.2     
   8 N8            -1.1116     3.5396     0.0268 N.am    
   9 C9            -2.2899     4.2881     0.1270 C.ar    
  10 C10           -2.2258     5.6597     0.3372 C.ar    
  11 C11           -3.3889     6.3980     0.4356 C.ar    
  12 C12           -4.6227     5.7683     0.3242 C.ar    
  13 C13           -4.6861     4.3978     0.1147 C.ar    
  14 C14           -3.5233     3.6604     0.0106 C.ar    
  15 O15           -8.6762     9.8252     0.5438 O.3     
  16 C16           -7.7198     9.2265    -0.3379 C.3     
  17 C17           -7.6834     7.7196    -0.0602 C.3     
  18 N18           -7.4969     7.5646     1.4009 N.am    
  19 C19           -8.3196     8.2805     2.3804 C.3     
  20 C20           -8.3604     9.7524     1.9345 C.3     
  21 C21           -6.4533     6.7541     1.5757 C.2     
  22 N22           -5.8048     6.5182     0.4241 N.am    
  23 C23           -6.4301     7.0926    -0.6262 C.2     
  24 S24           -5.9948     6.0936     3.0871 S.2     
  25 O25           -6.0628     7.1029    -1.7817 O.2     
  26 Cl26          -3.3095     8.1121     0.6988 Cl      
  27 H27            2.4327     4.0876     2.1258 H       
  28 H28            4.2318     2.3250     1.7400 H       
  29 H29            3.5744     0.4978     0.1186 H       
  30 H30           -1.0656     2.7867    -0.5831 H       
  31 H31           -1.2667     6.1485     0.4240 H       
  32 H32           -5.6451     3.9086     0.0289 H       
  33 H33           -3.5730     2.5947    -0.1569 H       
  34 H34           -8.0142     9.4021    -1.3726 H       
  35 H35           -6.7347     9.6569    -0.1578 H       
  36 H36           -8.5909     7.2256    -0.4073 H       
  37 H37           -9.3280     7.8669     2.3934 H       
  38 H38           -7.8713     8.2034     3.3710 H       
  39 H39           -7.3876    10.2117     2.1101 H       
  40 H40           -9.1204    10.2840     2.5073 H       
@<TRIPOS>BOND
   1    1    2 2
   2    1    5 1
   3    1    6 1
   4    2    3 1
   5    2   27 1
   6    3    4 2
   7    3   28 1
   8    4    5 1
   9    4   29 1
  10    6    7 2
  11    6    8 am
  12    8    9 1
  13    8   30 1
  14    9   10 ar
  15    9   14 ar
  16   10   11 ar
  17   10   31 1
  18   11   12 ar
  19   11   26 1
  20   12   13 ar
  21   12   22 1
  22   13   14 ar
  23   13   32 1
  24   14   33 1
  25   15   16 1
  26   15   20 1
  27   16   17 1
  28   16   34 1
  29   16   35 1
  30   17   18 1
  31   17   23 1
  32   17   36 1
  33   18   19 1
  34   18   21 am
  35   19   20 1
  36   19   37 1
  37   19   38 1
  38   20   39 1
  39   20   40 1
  40   21   22 am
  41   21   24 2
  42   22   23 am
  43   23   25 2

#	End of record

