#	Name: ASD02038118
#	Creating user name:	WinNT
#	Creation time:	15. 06. 2019 20:16

#	Modifying user name:	WinNT
#	Modification time:	15. 06. 2019 20:16

#	Program:	/corina/corina34_cracker 3.40 0067  02.08.2006

@<TRIPOS>MOLECULE
ASD02038118
  48   50    0    0    0
SMALL
NO_CHARGES


@<TRIPOS>ATOM
   1 C1            -0.0605     1.3491     0.2910 C.ar    
   2 C2            -0.0220    -0.0281     0.1535 C.ar    
   3 C3             1.1174     2.0737     0.3580 C.ar    
   4 C4             2.3354     1.4226     0.2875 C.ar    
   5 C5             2.3753     0.0395     0.1494 C.ar    
   6 C6             1.1924    -0.6834     0.0827 C.ar    
   7 N7             3.6067    -0.6226     0.0774 N.3     
   8 C8             7.4760    -2.0836     0.9377 C.3     
   9 C9             7.6946    -2.8946     2.2165 C.3     
  10 C10            8.9825    -3.7106     2.0891 C.3     
  11 O11            7.8015    -2.0068     3.3312 O.3     
  12 O12            9.1264    -4.5552     3.2327 O.3     
  13 C13           10.2273    -5.3523     3.2769 C.ar    
  14 C14           10.4289    -6.1969     4.3584 C.ar    
  15 C15           11.5472    -7.0066     4.4034 C.ar    
  16 C16           12.4681    -6.9753     3.3667 C.ar    
  17 C17           12.2660    -6.1314     2.2847 C.ar    
  18 C18           11.1455    -5.3249     2.2378 C.ar    
  19 O19           13.5694    -7.7717     3.4114 O.3     
  20 C20            3.7493    -1.5901     1.1742 C.3     
  21 C21            5.0699    -2.3472     1.0146 C.3     
  22 N22            6.1839    -1.3888     1.0133 N.3     
  23 C23            6.0412    -0.4213    -0.0836 C.3     
  24 C24            4.7207     0.3358     0.0761 C.3     
  25 F25           -1.2495     1.9874     0.3544 F       
  26 F26            3.4850     2.1293     0.3523 F       
  27 H27           -0.9423    -0.5909     0.1019 H       
  28 H28            1.0850     3.1479     0.4649 H       
  29 H29            1.2211    -1.7577    -0.0242 H       
  30 H30            8.2765    -1.3516     0.8304 H       
  31 H31            7.4786    -2.7534     0.0778 H       
  32 H32            6.8512    -3.5682     2.3682 H       
  33 H33            8.9371    -4.3230     1.1885 H       
  34 H34            9.8358    -3.0353     2.0265 H       
  35 H35            8.5326    -1.3774     3.2640 H       
  36 H36            9.7118    -6.2213     5.1656 H       
  37 H37           11.7046    -7.6637     5.2458 H       
  38 H38           12.9830    -6.1070     1.4775 H       
  39 H39           10.9881    -4.6678     1.3953 H       
  40 H40           13.4422    -8.6417     3.0090 H       
  41 H41            3.7459    -1.0620     2.1277 H       
  42 H42            2.9196    -2.2964     1.1464 H       
  43 H43            5.1915    -3.0450     1.8431 H       
  44 H44            5.0623    -2.8972     0.0736 H       
  45 H45            6.8710     0.2850    -0.0557 H       
  46 H46            6.0447    -0.9494    -1.0371 H       
  47 H47            4.5991     1.0336    -0.7524 H       
  48 H48            4.7283     0.8858     1.0171 H       
@<TRIPOS>BOND
   1    1    2 ar
   2    1    3 ar
   3    1   25 1
   4    2    6 ar
   5    2   27 1
   6    3    4 ar
   7    3   28 1
   8    4    5 ar
   9    4   26 1
  10    5    6 ar
  11    5    7 1
  12    6   29 1
  13    7   20 1
  14    7   24 1
  15    8    9 1
  16    8   22 1
  17    8   30 1
  18    8   31 1
  19    9   11 1
  20    9   10 1
  21    9   32 1
  22   10   12 1
  23   10   33 1
  24   10   34 1
  25   11   35 1
  26   12   13 1
  27   13   14 ar
  28   13   18 ar
  29   14   15 ar
  30   14   36 1
  31   15   16 ar
  32   15   37 1
  33   16   17 ar
  34   16   19 1
  35   17   18 ar
  36   17   38 1
  37   18   39 1
  38   19   40 1
  39   20   21 1
  40   20   41 1
  41   20   42 1
  42   21   22 1
  43   21   43 1
  44   21   44 1
  45   22   23 1
  46   23   24 1
  47   23   45 1
  48   23   46 1
  49   24   47 1
  50   24   48 1

#	End of record

