#	Name: ASD08170109
#	Creating user name:	WinNT
#	Creation time:	15. 06. 2019 21:17

#	Modifying user name:	WinNT
#	Modification time:	15. 06. 2019 21:17

#	Program:	/corina/corina34_cracker 3.40 0067  02.08.2006

@<TRIPOS>MOLECULE
ASD08170109
  67   70    0    0    0
SMALL
NO_CHARGES


@<TRIPOS>ATOM
   1 C1            -0.0187     1.5258     0.0104 C.3     
   2 C2             0.0021    -0.0041     0.0020 C.3     
   3 C3             1.4543     3.9531     0.0094 C.3     
   4 C4             2.8209     4.6411     0.0000 C.3     
   5 C5             2.6307     6.1360     0.0099 C.2     
   6 C6            -1.4117    -0.5257     0.0127 C.2     
   7 S7             2.4859     7.1758    -1.4077 S.3     
   8 C8             2.3219     8.5311    -0.3728 C.2     
   9 N9             2.3845     8.1242     0.8591 N.2     
  10 N10            2.5387     6.8875     1.0608 N.2     
  11 S11           -2.3742    -0.8935     1.4445 S.3     
  12 N12           -2.1404    -0.7792    -1.0277 N.2     
  13 N13           -3.3061    -1.2119    -0.8091 N.2     
  14 C14           -3.6713    -1.3622     0.4283 C.2     
  15 N15           -4.9107    -1.8251     0.8572 N.am    
  16 C16           -5.8536    -2.1613    -0.0452 C.2     
  17 O17           -5.6213    -2.0602    -1.2312 O.2     
  18 N18            2.1507     9.8487    -0.7837 N.am    
  19 C19            2.0334    10.8303     0.1323 C.2     
  20 C20            1.8479    12.2581    -0.3129 C.3     
  21 O21            2.0771    10.5647     1.3149 O.2     
  22 C22           -7.1965    -2.6628     0.4196 C.3     
  23 C23            1.7442    13.1518     0.8961 C.ar    
  24 C24           -8.0610    -2.9663    -0.7770 C.ar    
  25 C25            2.8837    13.7122     1.4398 C.ar    
  26 C26           -8.0426    -4.2290    -1.3400 C.ar    
  27 S27            1.6831     2.1537    -0.0024 S.3     
  28 C28            2.7875    14.5352     2.5525 C.ar    
  29 C29            1.5465    14.7933     3.1163 C.ar    
  30 C30            0.4099    14.2304     2.5688 C.ar    
  31 C31            0.5079    13.4147     1.4567 C.ar    
  32 C32           -8.8346    -4.5105    -2.4378 C.ar    
  33 C33           -9.6467    -3.5305    -2.9747 C.ar    
  34 C34           -9.6673    -2.2628    -2.4113 C.ar    
  35 C35           -8.8754    -1.9842    -1.3068 C.ar    
  36 O36          -10.4655    -1.2970    -2.9376 O.3     
  37 C37          -11.2574    -1.6564    -4.0715 C.3     
  38 O38            3.9072    15.0874     3.0895 O.3     
  39 C39            3.7327    15.9243     4.2346 C.3     
  40 H40           -0.5459     1.8868    -0.8726 H       
  41 H41           -0.5289     1.8773     0.9072 H       
  42 H42            0.5123    -0.3556    -0.8948 H       
  43 H43            0.5293    -0.3651     0.8851 H       
  44 H44            0.9072     4.2439     0.9062 H       
  45 H45            0.8903     4.2535    -0.8736 H       
  46 H46            3.3849     4.3408     0.8831 H       
  47 H47            3.3679     4.3503    -0.8968 H       
  48 H48           -5.0964    -1.9059     1.8058 H       
  49 H49            2.1158    10.0612    -1.7295 H       
  50 H50            2.7011    12.5636    -0.9184 H       
  51 H51            0.9355    12.3388    -0.9037 H       
  52 H52           -7.0615    -3.5694     1.0095 H       
  53 H53           -7.6776    -1.8996     1.0312 H       
  54 H54            3.8488    13.5096     0.9993 H       
  55 H55           -7.4083    -4.9965    -0.9217 H       
  56 H56            1.4690    15.4334     3.9827 H       
  57 H57           -0.5565    14.4310     3.0074 H       
  58 H58           -0.3819    12.9759     1.0299 H       
  59 H59           -8.8179    -5.4974    -2.8762 H       
  60 H60          -10.2649    -3.7508    -3.8324 H       
  61 H61           -8.8899    -0.9983    -0.8663 H       
  62 H62          -10.6045    -1.9724    -4.8852 H       
  63 H63          -11.9257    -2.4746    -3.8033 H       
  64 H64          -11.8459    -0.7964    -4.3910 H       
  65 H65            3.0872    16.7638     3.9761 H       
  66 H66            3.2752    15.3485     5.0392 H       
  67 H67            4.7025    16.2991     4.5619 H       
@<TRIPOS>BOND
   1    1    2 1
   2    1   27 1
   3    1   40 1
   4    1   41 1
   5    2    6 1
   6    2   42 1
   7    2   43 1
   8    3    4 1
   9    3   27 1
  10    3   44 1
  11    3   45 1
  12    4    5 1
  13    4   46 1
  14    4   47 1
  15    5    7 1
  16    5   10 2
  17    6   11 1
  18    6   12 2
  19    7    8 1
  20    8    9 2
  21    8   18 1
  22    9   10 1
  23   11   14 1
  24   12   13 1
  25   13   14 2
  26   14   15 1
  27   15   16 am
  28   15   48 1
  29   16   17 2
  30   16   22 1
  31   18   19 am
  32   18   49 1
  33   19   20 1
  34   19   21 2
  35   20   23 1
  36   20   50 1
  37   20   51 1
  38   22   24 1
  39   22   52 1
  40   22   53 1
  41   23   25 ar
  42   23   31 ar
  43   24   26 ar
  44   24   35 ar
  45   25   28 ar
  46   25   54 1
  47   26   32 ar
  48   26   55 1
  49   28   29 ar
  50   28   38 1
  51   29   30 ar
  52   29   56 1
  53   30   31 ar
  54   30   57 1
  55   31   58 1
  56   32   33 ar
  57   32   59 1
  58   33   34 ar
  59   33   60 1
  60   34   35 ar
  61   34   36 1
  62   35   61 1
  63   36   37 1
  64   37   62 1
  65   37   63 1
  66   37   64 1
  67   38   39 1
  68   39   65 1
  69   39   66 1
  70   39   67 1

#	End of record

