#	Name: ASD01881596
#	Creating user name:	WinNT
#	Creation time:	15. 06. 2019 19:43

#	Modifying user name:	WinNT
#	Modification time:	15. 06. 2019 19:43

#	Program:	/corina/corina34_cracker 3.40 0067  02.08.2006

@<TRIPOS>MOLECULE
ASD01881596
  63   66    0    0    0
SMALL
NO_CHARGES


@<TRIPOS>ATOM
   1 C1            -0.0170     1.4011     0.0097 C.ar    
   2 C2             0.0021    -0.0041     0.0020 C.ar    
   3 C3             1.2352    -0.6605    -0.0133 C.ar    
   4 C4             2.3882     0.1049    -0.0203 C.ar    
   5 C5             2.2901     1.4874    -0.0119 C.ar    
   6 N6             1.1193     2.0873     0.0026 N.ar    
   7 C7            -1.2688     2.0963     0.0195 C.1     
   8 N8            -2.2619     2.6479     0.0272 N.1     
   9 C9             3.7406    -0.5600    -0.0363 C.3     
  10 C10            4.7426     0.3398    -0.7625 C.3     
  11 C11            4.2117    -0.7922     1.4007 C.3     
  12 O12            3.6469    -1.8138    -0.7154 O.3     
  13 C13           -1.2631    -0.7756     0.0105 C.ar    
  14 C14           -2.2551    -0.4831     0.9460 C.ar    
  15 C15           -3.4312    -1.2046     0.9487 C.ar    
  16 C16           -3.6273    -2.2166     0.0257 C.ar    
  17 C17           -2.6468    -2.5115    -0.9042 C.ar    
  18 C18           -1.4686    -1.7929    -0.9204 C.ar    
  19 C19           -4.5040    -0.8902     1.9592 C.3     
  20 O20           -5.3889     0.0957     1.4233 O.3     
  21 N21           -9.6259     1.8716     4.4064 N.pl3   
  22 N22          -10.1208     2.7717     3.4511 N.2     
  23 N23           -9.3752     2.7371     2.4035 N.2     
  24 C24           -8.3721     1.8524     2.5713 C.ar    
  25 C25           -8.5125     1.2846     3.8495 C.ar    
  26 C26           -7.3097     1.4434     1.7536 C.ar    
  27 C27           -6.4208     0.4942     2.2143 C.ar    
  28 C28           -6.5729    -0.0591     3.4833 C.ar    
  29 C29           -7.6045     0.3289     4.2910 C.ar    
  30 C30          -10.1809     1.6121     5.7371 C.3     
  31 C31          -11.2061     0.4797     5.6501 C.3     
  32 C32          -10.5246    -0.7860     5.1262 C.3     
  33 C33          -11.7858     0.2088     7.0399 C.3     
  34 C34          -12.3330     0.8839     4.6975 C.3     
  35 Br35          -7.0955     2.1890     0.0290 Br      
  36 H36            1.2875    -1.7393    -0.0193 H       
  37 H37            3.1910     2.0830    -0.0173 H       
  38 H38            4.8140     1.2961    -0.2444 H       
  39 H39            5.7207    -0.1411    -0.7741 H       
  40 H40            4.4069     0.5053    -1.7862 H       
  41 H41            3.4979    -1.4332     1.9180 H       
  42 H42            5.1899    -1.2731     1.3891 H       
  43 H43            4.2832     0.1641     1.9187 H       
  44 H44            3.0280    -2.4358    -0.3092 H       
  45 H45           -2.1030     0.3063     1.6671 H       
  46 H46           -4.5495    -2.7786     0.0316 H       
  47 H47           -2.8054    -3.3028    -1.6220 H       
  48 H48           -0.7056    -2.0211    -1.6499 H       
  49 H49           -5.0651    -1.7964     2.1874 H       
  50 H50           -4.0440    -0.5085     2.8707 H       
  51 H51           -5.8701    -0.8016     3.8316 H       
  52 H52           -7.7139    -0.1063     5.2734 H       
  53 H53           -9.3781     1.3242     6.4158 H       
  54 H54          -10.6664     2.5138     6.1104 H       
  55 H55           -9.7218    -1.0740     5.8049 H       
  56 H56          -11.2550    -1.5928     5.0642 H       
  57 H57          -10.1117    -0.5930     4.1361 H       
  58 H58          -12.2712     1.1105     7.4132 H       
  59 H59          -12.5161    -0.5980     6.9780 H       
  60 H60          -10.9829    -0.0792     7.7186 H       
  61 H61          -11.9200     1.0770     3.7074 H       
  62 H62          -13.0633     0.0772     4.6355 H       
  63 H63          -12.8184     1.7856     5.0708 H       
@<TRIPOS>BOND
   1    1    2 ar
   2    1    6 ar
   3    1    7 1
   4    2    3 ar
   5    2   13 1
   6    3    4 ar
   7    3   36 1
   8    4    5 ar
   9    4    9 1
  10    5    6 ar
  11    5   37 1
  12    7    8 3
  13    9   10 1
  14    9   11 1
  15    9   12 1
  16   10   38 1
  17   10   39 1
  18   10   40 1
  19   11   41 1
  20   11   42 1
  21   11   43 1
  22   12   44 1
  23   13   14 ar
  24   13   18 ar
  25   14   15 ar
  26   14   45 1
  27   15   16 ar
  28   15   19 1
  29   16   17 ar
  30   16   46 1
  31   17   18 ar
  32   17   47 1
  33   18   48 1
  34   19   20 1
  35   19   49 1
  36   19   50 1
  37   20   27 1
  38   21   22 1
  39   21   25 1
  40   21   30 1
  41   22   23 2
  42   23   24 1
  43   24   25 ar
  44   24   26 ar
  45   25   29 ar
  46   26   27 ar
  47   26   35 1
  48   27   28 ar
  49   28   29 ar
  50   28   51 1
  51   29   52 1
  52   30   31 1
  53   30   53 1
  54   30   54 1
  55   31   32 1
  56   31   33 1
  57   31   34 1
  58   32   55 1
  59   32   56 1
  60   32   57 1
  61   33   58 1
  62   33   59 1
  63   33   60 1
  64   34   61 1
  65   34   62 1
  66   34   63 1

#	End of record

