#	Name: ASD00070008
#	Creating user name:	WinNT
#	Creation time:	15. 06. 2019 18:29

#	Modifying user name:	WinNT
#	Modification time:	15. 06. 2019 18:29

#	Program:	/corina/corina34_cracker 3.40 0067  02.08.2006

@<TRIPOS>MOLECULE
ASD00070008
  59   62    0    0    0
SMALL
NO_CHARGES


@<TRIPOS>ATOM
   1 C1            -0.0184     1.5028     0.0103 C.2     
   2 C2             0.0021    -0.0041     0.0020 C.3     
   3 O3             1.0236     2.1234     0.0037 O.2     
   4 N4            -1.1946     2.1607     0.0195 N.am    
   5 C5            -1.2145     3.6256     0.0275 C.3     
   6 C6            -2.5257     4.1144     0.6460 C.3     
   7 C7            -2.5464     5.6443     0.6544 C.3     
   8 C8            -2.4345     6.1637    -0.7803 C.3     
   9 C9            -1.1232     5.6749    -1.3988 C.3     
  10 C10           -1.1025     4.1450    -1.4072 C.3     
  11 C11           -2.4552     7.6936    -0.7719 C.3     
  12 C12           -2.4690     8.2113    -2.2115 C.3     
  13 N13           -2.4889     9.6802    -2.2035 N.3     
  14 C14           -2.2644    10.2170    -3.5518 C.3     
  15 C15           -2.1467    11.7412    -3.4824 C.3     
  16 C16           -3.4338    12.3212    -2.8896 C.3     
  17 C17           -3.6700    11.7097    -1.5059 C.3     
  18 C18           -3.7436    10.1863    -1.6326 C.3     
  19 O19           -5.0353    16.6077    -4.0647 O.3     
  20 C20           -5.7815    15.6599    -4.6583 C.2     
  21 C21           -5.3304    14.4423    -4.3273 C.2     
  22 C22           -4.1849    14.6590    -3.4354 C.ar    
  23 C23           -4.0599    16.0535    -3.3167 C.ar    
  24 C24           -3.3007    13.8170    -2.7631 C.ar    
  25 C25           -2.3045    14.3604    -1.9819 C.ar    
  26 C26           -2.1807    15.7370    -1.8640 C.ar    
  27 C27           -3.0488    16.5806    -2.5237 C.ar    
  28 H28            0.0168    -0.3729     1.0276 H       
  29 H29           -0.8878    -0.3767    -0.5053 H       
  30 H30            0.8920    -0.3525    -0.5222 H       
  31 H31           -2.0280     1.6644     0.0207 H       
  32 H32           -0.3749     3.9971     0.6150 H       
  33 H33           -3.3653     3.7429     0.0585 H       
  34 H34           -2.6055     3.7443     1.6682 H       
  35 H35           -3.4806     5.9925     1.0951 H       
  36 H36           -1.7069     6.0158     1.2419 H       
  37 H37           -3.2741     5.7922    -1.3678 H       
  38 H38           -1.0435     6.0449    -2.4210 H       
  39 H39           -0.2836     6.0464    -0.8113 H       
  40 H40           -0.1683     3.7967    -1.8479 H       
  41 H41           -1.9421     3.7735    -1.9947 H       
  42 H42           -3.3476     8.0420    -0.2519 H       
  43 H43           -1.5678     8.0662    -0.2602 H       
  44 H44           -1.5766     7.8629    -2.7315 H       
  45 H45           -3.3564     7.8387    -2.7232 H       
  46 H46           -1.3439     9.7998    -3.9601 H       
  47 H47           -3.1021     9.9463    -4.1945 H       
  48 H48           -1.3007    12.0125    -2.8508 H       
  49 H49           -1.9956    12.1406    -4.4852 H       
  50 H50           -4.2745    12.0833    -3.5413 H       
  51 H51           -2.8480    11.9804    -0.8432 H       
  52 H52           -4.6074    12.0865    -1.0966 H       
  53 H53           -4.5744     9.9158    -2.2843 H       
  54 H54           -3.8975     9.7469    -0.6470 H       
  55 H55           -6.6227    15.8520    -5.3078 H       
  56 H56           -5.7296    13.4926    -4.6513 H       
  57 H57           -1.6173    13.7119    -1.4589 H       
  58 H58           -1.3963    16.1522    -1.2486 H       
  59 H59           -2.9423    17.6508    -2.4246 H       
@<TRIPOS>BOND
   1    1    2 1
   2    1    3 2
   3    1    4 am
   4    2   28 1
   5    2   29 1
   6    2   30 1
   7    4    5 1
   8    4   31 1
   9    5    6 1
  10    5   10 1
  11    5   32 1
  12    6    7 1
  13    6   33 1
  14    6   34 1
  15    7    8 1
  16    7   35 1
  17    7   36 1
  18    8    9 1
  19    8   11 1
  20    8   37 1
  21    9   10 1
  22    9   38 1
  23    9   39 1
  24   10   40 1
  25   10   41 1
  26   11   12 1
  27   11   42 1
  28   11   43 1
  29   12   13 1
  30   12   44 1
  31   12   45 1
  32   13   14 1
  33   13   18 1
  34   14   15 1
  35   14   46 1
  36   14   47 1
  37   15   16 1
  38   15   48 1
  39   15   49 1
  40   16   17 1
  41   16   24 1
  42   16   50 1
  43   17   18 1
  44   17   51 1
  45   17   52 1
  46   18   53 1
  47   18   54 1
  48   19   20 1
  49   19   23 1
  50   20   21 2
  51   20   55 1
  52   21   22 1
  53   21   56 1
  54   22   23 ar
  55   22   24 ar
  56   23   27 ar
  57   24   25 ar
  58   25   26 ar
  59   25   57 1
  60   26   27 ar
  61   26   58 1
  62   27   59 1

#	End of record

