#	Name: ASD03331661
#	Creating user name:	WinNT
#	Creation time:	15. 06. 2019 20:39

#	Modifying user name:	WinNT
#	Modification time:	15. 06. 2019 20:39

#	Program:	/corina/corina34_cracker 3.40 0067  02.08.2006

@<TRIPOS>MOLECULE
ASD03331661
  53   55    0    0    0
SMALL
NO_CHARGES


@<TRIPOS>ATOM
   1 C1             0.3351     1.7230    -0.0385 C.3     
   2 N2             0.1565     0.2643    -0.0306 N.3     
   3 C3             0.6220    -0.3366    -1.2936 C.3     
   4 C4             2.0052     0.1899    -1.5770 C.2     
   5 N5             2.5413     1.2795    -0.9552 N.pl3   
   6 C6             1.8277     2.0650     0.0556 C.3     
   7 C7             2.9377    -0.2751    -2.4449 C.2     
   8 N8             4.0254     0.5231    -2.3457 N.2     
   9 C9             3.7932     1.4580    -1.4517 C.2     
  10 C10            4.7365     2.5260    -1.0535 C.ar    
  11 C11            5.8326     2.8397    -1.8569 C.ar    
  12 C12            2.7926    -1.4402    -3.3354 C.2     
  13 O13            1.7597    -2.0824    -3.3330 O.2     
  14 N14            3.8043    -1.7943    -4.1523 N.am    
  15 C15            3.6600    -2.9526    -5.0375 C.3     
  16 C16            2.9617    -2.5233    -6.3294 C.3     
  17 C17            5.0222    -3.5084    -5.3637 C.2     
  18 N18            5.1652    -4.8180    -5.6486 N.am    
  19 O19            5.9899    -2.7774    -5.3697 O.2     
  20 C20            6.5018    -5.3809    -5.8555 C.3     
  21 C21            3.7357    -1.3683    -6.9680 C.3     
  22 C22            2.9150    -3.7046    -7.3007 C.3     
  23 C23            1.5361    -2.0678    -6.0115 C.3     
  24 N24            6.6726     3.7904    -1.5027 N.ar    
  25 C25            6.5160     4.4786    -0.3883 C.ar    
  26 C26            5.4540     4.2281     0.4621 C.ar    
  27 C27            4.5406     3.2424     0.1326 C.ar    
  28 H28           -0.0729     2.1329    -0.9624 H       
  29 H29           -0.1903     2.1570     0.8122 H       
  30 H30            0.6221    -0.1526     0.7615 H       
  31 H31            0.6537    -1.4218    -1.1958 H       
  32 H32           -0.0514    -0.0585    -2.1043 H       
  33 H33            1.9741     3.1283    -0.1341 H       
  34 H34            2.2010     1.8130     1.0482 H       
  35 H35            5.9942     2.2981    -2.7771 H       
  36 H36            4.6281    -1.2821    -4.1542 H       
  37 H37            3.0648    -3.7182    -4.5399 H       
  38 H38            4.3831    -5.3877    -5.7166 H       
  39 H39            6.9834    -4.8752    -6.6924 H       
  40 H40            7.0986    -5.2409    -4.9543 H       
  41 H41            6.4178    -6.4455    -6.0739 H       
  42 H42            4.7513    -1.6928    -7.1945 H       
  43 H43            3.2382    -1.0625    -7.8884 H       
  44 H44            3.7690    -0.5268    -6.2761 H       
  45 H45            2.3184    -4.5075    -6.8678 H       
  46 H46            2.4657    -3.3844    -8.2408 H       
  47 H47            3.9275    -4.0633    -7.4855 H       
  48 H48            1.5694    -1.2262    -5.3196 H       
  49 H49            1.0386    -1.7620    -6.9319 H       
  50 H50            0.9847    -2.8906    -5.5566 H       
  51 H51            7.2287     5.2497    -0.1355 H       
  52 H52            5.3370     4.7986     1.3716 H       
  53 H53            3.7022     3.0260     0.7782 H       
@<TRIPOS>BOND
   1    1    2 1
   2    1    6 1
   3    1   28 1
   4    1   29 1
   5    2    3 1
   6    2   30 1
   7    3    4 1
   8    3   31 1
   9    3   32 1
  10    4    5 1
  11    4    7 2
  12    5    6 1
  13    5    9 1
  14    6   33 1
  15    6   34 1
  16    7    8 1
  17    7   12 1
  18    8    9 2
  19    9   10 1
  20   10   11 ar
  21   10   27 ar
  22   11   24 ar
  23   11   35 1
  24   12   13 2
  25   12   14 am
  26   14   15 1
  27   14   36 1
  28   15   16 1
  29   15   17 1
  30   15   37 1
  31   16   21 1
  32   16   22 1
  33   16   23 1
  34   17   18 am
  35   17   19 2
  36   18   20 1
  37   18   38 1
  38   20   39 1
  39   20   40 1
  40   20   41 1
  41   21   42 1
  42   21   43 1
  43   21   44 1
  44   22   45 1
  45   22   46 1
  46   22   47 1
  47   23   48 1
  48   23   49 1
  49   23   50 1
  50   24   25 ar
  51   25   26 ar
  52   25   51 1
  53   26   27 ar
  54   26   52 1
  55   27   53 1

#	End of record

