#	Name: ASD04530019
#	Creating user name:	WinNT
#	Creation time:	15. 06. 2019 20:49

#	Modifying user name:	WinNT
#	Modification time:	15. 06. 2019 20:49

#	Program:	/corina/corina34_cracker 3.40 0067  02.08.2006

@<TRIPOS>MOLECULE
ASD04530019
  33   34    0    0    0
SMALL
NO_CHARGES


@<TRIPOS>ATOM
   1 C1             0.9780     0.3503     1.5173 C.ar    
   2 C2             0.2702    -0.0103     0.3790 C.ar    
   3 C3             0.7190     0.3825    -0.8744 C.ar    
   4 C4             1.8703     1.1328    -0.9924 C.ar    
   5 C5             2.5832     1.4970     0.1488 C.ar    
   6 C6             2.1299     1.1009     1.4061 C.ar    
   7 C7             3.8220     2.3034     0.0255 C.2     
   8 C8             3.9010     3.3827    -0.7710 C.2     
   9 S9             5.5247     4.0532    -0.6352 S.3     
  10 C10            5.9554     2.7863     0.5094 C.2     
  11 N11            4.9326     2.0117     0.7010 N.2     
  12 N12            7.1930     2.6422     1.1152 N.pl3   
  13 O13           -0.8644    -0.7500     0.4919 O.3     
  14 C14           -1.5432    -1.0858    -0.7199 C.3     
  15 C15            0.8430     5.4896    -1.6965 C.3     
  16 C16            1.8953     4.8408    -0.7951 C.3     
  17 C17            2.7910     3.9263    -1.6333 C.3     
  18 H18            0.6241     0.0465     2.4914 H       
  19 H19            0.1663     0.1001    -1.7582 H       
  20 H20            2.2194     1.4376    -1.9680 H       
  21 H21            2.6797     1.3817     2.2922 H       
  22 H22            7.9055     3.2702     0.9182 H       
  23 H23            7.3470     1.9132     1.7363 H       
  24 H24           -2.4299    -1.6758    -0.4882 H       
  25 H25           -1.8392    -0.1723    -1.2357 H       
  26 H26           -0.8782    -1.6654    -1.3602 H       
  27 H27            1.3389     6.0762    -2.4699 H       
  28 H28            0.2356     4.7137    -2.1625 H       
  29 H29            0.2050     6.1410    -1.0994 H       
  30 H30            2.5028     5.6166    -0.3292 H       
  31 H31            1.3994     4.2541    -0.0218 H       
  32 H32            3.2180     4.4942    -2.4599 H       
  33 H33            2.1993     3.1001    -2.0274 H       
@<TRIPOS>BOND
   1    1    2 ar
   2    1    6 ar
   3    1   18 1
   4    2    3 ar
   5    2   13 1
   6    3    4 ar
   7    3   19 1
   8    4    5 ar
   9    4   20 1
  10    5    6 ar
  11    5    7 1
  12    6   21 1
  13    7    8 2
  14    7   11 1
  15    8    9 1
  16    8   17 1
  17    9   10 1
  18   10   11 2
  19   10   12 1
  20   12   22 1
  21   12   23 1
  22   13   14 1
  23   14   24 1
  24   14   25 1
  25   14   26 1
  26   15   16 1
  27   15   27 1
  28   15   28 1
  29   15   29 1
  30   16   17 1
  31   16   30 1
  32   16   31 1
  33   17   32 1
  34   17   33 1

#	End of record

