#	Name: ASD03910108
#	Creating user name:	WinNT
#	Creation time:	15. 06. 2019 20:47

#	Modifying user name:	WinNT
#	Modification time:	15. 06. 2019 20:47

#	Program:	/corina/corina34_cracker 3.40 0067  02.08.2006

@<TRIPOS>MOLECULE
ASD03910108
  50   52    0    0    0
SMALL
NO_CHARGES


@<TRIPOS>ATOM
   1 C1            -0.0173     1.4248     0.0099 C.3     
   2 O2             0.0021    -0.0041     0.0020 O.3     
   3 C3            -1.1961    -0.6353     0.0101 C.ar    
   4 C4            -1.2501    -2.0393     0.0030 C.ar    
   5 C5            -2.4842    -2.6837     0.0114 C.ar    
   6 C6            -3.6590    -1.9294     0.0266 C.ar    
   7 C7            -3.5918    -0.5288     0.0335 C.ar    
   8 C8            -2.3715     0.1061     0.0310 C.ar    
   9 C9            -4.9647    -2.6028     0.0350 C.2     
  10 O10           -5.9850    -1.9472     0.0483 O.2     
  11 C11           -0.0040    -2.8275    -0.0136 C.2     
  12 O12            1.0719    -2.2630    -0.0212 O.2     
  13 O13           -0.0585    -4.1738    -0.0203 O.3     
  14 O14            0.9672     5.6131    -0.0000 O.3     
  15 C15            0.0484     6.6080     0.0080 C.ar    
  16 C16            0.4661     7.9495     0.0059 C.ar    
  17 C17           -0.4821     8.9688     0.0142 C.ar    
  18 C18           -1.8413     8.6500     0.0247 C.ar    
  19 C19           -2.2455     7.3072     0.0268 C.ar    
  20 C20           -1.3072     6.3014     0.0128 C.ar    
  21 C21           -2.8474     9.7205     0.0340 C.2     
  22 O22           -4.0281     9.4431     0.0431 O.2     
  23 C23            1.9039     8.2766    -0.0047 C.2     
  24 O24            2.7297     7.3854    -0.0116 O.2     
  25 O25            2.3019     9.5639    -0.0068 O.3     
  26 C26            0.4719     4.2726     0.0027 C.3     
  27 C27            1.6306     3.3090    -0.0072 C.ar    
  28 C28            2.9272     3.7874    -0.0171 C.ar    
  29 C29            3.9902     2.9034    -0.0263 C.ar    
  30 C30            3.7561     1.5412    -0.0251 C.ar    
  31 C31            2.4591     1.0626    -0.0157 C.ar    
  32 C32            1.3965     1.9464    -0.0008 C.ar    
  33 H33           -0.5445     1.7859    -0.8732 H       
  34 H34           -0.5275     1.7763     0.9067 H       
  35 H35           -2.5325    -3.7626     0.0057 H       
  36 H36           -4.5013     0.0535     0.0453 H       
  37 H37           -2.3266     1.1851     0.0412 H       
  38 H38           -5.0160    -3.6815     0.0293 H       
  39 H39            0.7846    -4.6473    -0.0312 H       
  40 H40           -0.1675    10.0020     0.0130 H       
  41 H41           -3.2973     7.0619     0.0349 H       
  42 H42           -1.6251     5.2693     0.0096 H       
  43 H43           -2.5356    10.7545     0.0328 H       
  44 H44            3.2548     9.7288    -0.0138 H       
  45 H45           -0.1289     4.1091     0.8974 H       
  46 H46           -0.1430     4.1106    -0.8826 H       
  47 H47            3.1101     4.8518    -0.0179 H       
  48 H48            5.0034     3.2772    -0.0347 H       
  49 H49            4.5865     0.8506    -0.0330 H       
  50 H50            2.2762    -0.0018    -0.0152 H       
@<TRIPOS>BOND
   1    1    2 1
   2    1   32 1
   3    1   33 1
   4    1   34 1
   5    2    3 1
   6    3    4 ar
   7    3    8 ar
   8    4    5 ar
   9    4   11 1
  10    5    6 ar
  11    5   35 1
  12    6    7 ar
  13    6    9 1
  14    7    8 ar
  15    7   36 1
  16    8   37 1
  17    9   10 2
  18    9   38 1
  19   11   12 2
  20   11   13 1
  21   13   39 1
  22   14   15 1
  23   14   26 1
  24   15   16 ar
  25   15   20 ar
  26   16   17 ar
  27   16   23 1
  28   17   18 ar
  29   17   40 1
  30   18   19 ar
  31   18   21 1
  32   19   20 ar
  33   19   41 1
  34   20   42 1
  35   21   22 2
  36   21   43 1
  37   23   24 2
  38   23   25 1
  39   25   44 1
  40   26   27 1
  41   26   45 1
  42   26   46 1
  43   27   28 ar
  44   27   32 ar
  45   28   29 ar
  46   28   47 1
  47   29   30 ar
  48   29   48 1
  49   30   31 ar
  50   30   49 1
  51   31   32 ar
  52   31   50 1

#	End of record

