#	Name: ASD01001088
#	Creating user name:	WinNT
#	Creation time:	15. 06. 2019 18:55

#	Modifying user name:	WinNT
#	Modification time:	15. 06. 2019 18:55

#	Program:	/corina/corina34_cracker 3.40 0067  02.08.2006

@<TRIPOS>MOLECULE
ASD01001088
  37   39    0    0    0
SMALL
NO_CHARGES


@<TRIPOS>ATOM
   1 C1            -0.0166     1.3748     0.0096 C.ar    
   2 C2             0.0021    -0.0041     0.0020 C.ar    
   3 C3             1.1855     2.0867     0.0019 C.ar    
   4 C4             1.2077    -0.6836    -0.0131 C.ar    
   5 C5             2.3997     1.3942    -0.0134 C.ar    
   6 C6             1.1735     3.5610     0.0095 C.2     
   7 C7             2.4025     0.0134    -0.0204 C.ar    
   8 N8             2.2198     4.3132     0.0030 N.2     
   9 N9             1.9396     5.6780     0.0118 N.am    
  10 C10            0.4800     5.8641     0.0264 C.3     
  11 C11           -0.0684     4.4234     0.0194 C.3     
  12 C12            2.8559     6.6664     0.0081 C.2     
  13 C13            0.0508     6.5937     1.2732 C.ar    
  14 C14            0.6668     6.3200     2.4802 C.ar    
  15 C15            0.2749     6.9874     3.6262 C.ar    
  16 C16           -0.7334     7.9296     3.5675 C.ar    
  17 C17           -1.3529     8.2065     2.3572 C.ar    
  18 C18           -0.9541     7.5397     1.2081 C.ar    
  19 Cl19           3.8999     2.2677    -0.0224 Cl      
  20 O20           -2.3455     9.1327     2.2969 O.3     
  21 C21            4.3252     6.3318    -0.0073 C.3     
  22 S22            2.3506     8.3021     0.0208 S.2     
  23 H23           -0.9585     1.9033     0.0169 H       
  24 H24           -0.9267    -0.5552     0.0083 H       
  25 H25            1.2157    -1.7636    -0.0190 H       
  26 H26            3.3395    -0.5236    -0.0318 H       
  27 H27            0.1527     6.3999    -0.8646 H       
  28 H28           -0.6692     4.2474    -0.8728 H       
  29 H29           -0.6532     4.2325     0.9192 H       
  30 H30            1.4551     5.5834     2.5283 H       
  31 H31            0.7575     6.7715     4.5680 H       
  32 H32           -1.0395     8.4501     4.4629 H       
  33 H33           -1.4348     7.7534     0.2649 H       
  34 H34           -2.0350    10.0308     2.1176 H       
  35 H35            4.4512     5.2491    -0.0138 H       
  36 H36            4.7852     6.7564    -0.8996 H       
  37 H37            4.8019     6.7477     0.8803 H       
@<TRIPOS>BOND
   1    1    2 ar
   2    1    3 ar
   3    1   23 1
   4    2    4 ar
   5    2   24 1
   6    3    6 1
   7    3    5 ar
   8    4    7 ar
   9    4   25 1
  10    5   19 1
  11    5    7 ar
  12    6    8 2
  13    6   11 1
  14    7   26 1
  15    8    9 1
  16    9   10 1
  17    9   12 am
  18   10   11 1
  19   10   13 1
  20   10   27 1
  21   11   28 1
  22   11   29 1
  23   12   21 1
  24   12   22 2
  25   13   14 ar
  26   13   18 ar
  27   14   15 ar
  28   14   30 1
  29   15   16 ar
  30   15   31 1
  31   16   17 ar
  32   16   32 1
  33   17   18 ar
  34   17   20 1
  35   18   33 1
  36   20   34 1
  37   21   35 1
  38   21   36 1
  39   21   37 1

#	End of record

