#	Name: ASD02030599
#	Creating user name:	WinNT
#	Creation time:	15. 06. 2019 20:15

#	Modifying user name:	WinNT
#	Modification time:	15. 06. 2019 20:15

#	Program:	/corina/corina34_cracker 3.40 0067  02.08.2006

@<TRIPOS>MOLECULE
ASD02030599
  61   64    0    0    0
SMALL
NO_CHARGES


@<TRIPOS>ATOM
   1 C1             0.1606     1.1494    -0.0926 C.ar    
   2 C2             0.0187    -0.2218    -0.0967 C.ar    
   3 C3             1.1456    -1.0285    -0.1662 C.ar    
   4 C4             2.4013    -0.4493    -0.2249 C.ar    
   5 C5             2.5422     0.9324    -0.2142 C.ar    
   6 C6             1.4207     1.7297    -0.1571 C.ar    
   7 C7             1.5004     3.2357    -0.1758 C.3     
   8 C8             3.9404     1.4910    -0.2517 C.3     
   9 C9             3.9332     2.9443    -0.7227 C.3     
  10 N10            2.8896     3.6597     0.0286 N.am    
  11 C11            1.0031     3.7551    -1.5263 C.3     
  12 O12            1.7429     3.1319    -2.5781 O.3     
  13 C13            1.4231     3.4857    -3.8515 C.ar    
  14 C14            3.1985     4.6646     0.8718 C.2     
  15 O15            4.3622     4.9473     1.0801 O.2     
  16 C16            2.1219     5.4234     1.5436 C.ar    
  17 C17            0.7715     4.2057    -6.4439 C.ar    
  18 C18            0.0970     4.7771    -5.3751 C.ar    
  19 C19            0.4219     4.4176    -4.0816 C.ar    
  20 C20            2.1018     2.9190    -4.9200 C.ar    
  21 C21            1.7769     3.2784    -6.2136 C.ar    
  22 C22            2.3024     5.8920     2.8459 C.ar    
  23 C23            0.9233     5.6789     0.8760 C.ar    
  24 C24           -0.0777     6.3880     1.5079 C.ar    
  25 C25            0.1043     6.8456     2.8004 C.ar    
  26 C26            1.2931     6.6003     3.4671 C.ar    
  27 Cl27           1.5145     7.1839     5.0870 Cl      
  28 O28            1.0170    -2.3814    -0.1760 O.3     
  29 C29           -0.2970    -2.9095     0.0152 C.3     
  30 O30            0.4514     4.5592    -7.7173 O.3     
  31 C31            1.1867     3.9310    -8.7694 C.3     
  32 C32           -0.9472    -3.1646    -1.3461 C.3     
  33 C33           -0.2101    -4.2241     0.7932 C.3     
  34 H34           -0.7162     1.7781    -0.0433 H       
  35 H35           -0.9644    -0.6660    -0.0457 H       
  36 H36            3.2786    -1.0768    -0.2792 H       
  37 H37            0.8764     3.6418     0.6203 H       
  38 H38            4.3737     1.4400     0.7472 H       
  39 H39            4.5460     0.8957    -0.9350 H       
  40 H40            4.9046     3.3994    -0.5293 H       
  41 H41            3.7120     2.9852    -1.7892 H       
  42 H42           -0.0555     3.5207    -1.6383 H       
  43 H43            1.1431     4.8350    -1.5741 H       
  44 H44           -0.6856     5.4994    -5.5545 H       
  45 H45           -0.1038     4.8620    -3.2494 H       
  46 H46            2.8847     2.1969    -4.7407 H       
  47 H47            2.3021     2.8334    -7.0458 H       
  48 H48            3.2291     5.7008     3.3665 H       
  49 H49            0.7796     5.3227    -0.1333 H       
  50 H50           -1.0055     6.5864     0.9918 H       
  51 H51           -0.6823     7.4004     3.2902 H       
  52 H52           -0.8980    -2.1941     0.5766 H       
  53 H53            2.2465     4.1608    -8.6593 H       
  54 H54            1.0418     2.8518    -8.7198 H       
  55 H55            0.8326     4.3013    -9.7315 H       
  56 H56           -1.9495    -3.5674    -1.2003 H       
  57 H57           -1.0092    -2.2281    -1.9004 H       
  58 H58           -0.3462    -3.8800    -1.9075 H       
  59 H59            0.2531    -4.0424     1.7630 H       
  60 H60           -1.2124    -4.6269     0.9390 H       
  61 H61            0.3909    -4.9395     0.2318 H       
@<TRIPOS>BOND
   1    1    2 ar
   2    1    6 ar
   3    1   34 1
   4    2    3 ar
   5    2   35 1
   6    3    4 ar
   7    3   28 1
   8    4    5 ar
   9    4   36 1
  10    5    6 ar
  11    5    8 1
  12    6    7 1
  13    7   10 1
  14    7   11 1
  15    7   37 1
  16    8    9 1
  17    8   38 1
  18    8   39 1
  19    9   10 1
  20    9   40 1
  21    9   41 1
  22   10   14 am
  23   11   12 1
  24   11   42 1
  25   11   43 1
  26   12   13 1
  27   13   20 ar
  28   13   19 ar
  29   14   15 2
  30   14   16 1
  31   16   23 ar
  32   16   22 ar
  33   17   18 ar
  34   17   21 ar
  35   17   30 1
  36   18   19 ar
  37   18   44 1
  38   19   45 1
  39   20   21 ar
  40   20   46 1
  41   21   47 1
  42   22   26 ar
  43   22   48 1
  44   23   24 ar
  45   23   49 1
  46   24   25 ar
  47   24   50 1
  48   25   26 ar
  49   25   51 1
  50   26   27 1
  51   28   29 1
  52   29   32 1
  53   29   33 1
  54   29   52 1
  55   30   31 1
  56   31   53 1
  57   31   54 1
  58   31   55 1
  59   32   56 1
  60   32   57 1
  61   32   58 1
  62   33   59 1
  63   33   60 1
  64   33   61 1

#	End of record

