#	Name: ASD00170426
#	Creating user name:	WinNT
#	Creation time:	15. 06. 2019 18:32

#	Modifying user name:	WinNT
#	Modification time:	15. 06. 2019 18:32

#	Program:	/corina/corina34_cracker 3.40 0067  02.08.2006

@<TRIPOS>MOLECULE
ASD00170426
  41   43    0    0    0
SMALL
NO_CHARGES


@<TRIPOS>ATOM
   1 C1             0.2544     1.3892     0.0650 C.2     
   2 C2             0.2215     0.0142     0.0901 C.2     
   3 C3            -1.1267    -0.5126     0.0579 C.2     
   4 C4            -2.0543     0.4308     0.0110 C.2     
   5 S5            -1.3254     2.0267     0.0110 S.3     
   6 C6            -1.4422    -1.9861     0.0754 C.3     
   7 N7             1.4071     2.1478     0.0867 N.pl3   
   8 C8             1.4186    -0.8246     0.1434 C.2     
   9 C9             2.0034    -1.3588    -1.1054 C.ar    
  10 O10            1.9338    -1.0829     1.2161 O.2     
  11 C11            3.0771    -2.2494    -1.0515 C.ar    
  12 C12            3.6179    -2.7446    -2.2194 C.ar    
  13 C13            3.0978    -2.3602    -3.4442 C.ar    
  14 C14            2.0328    -1.4765    -3.5040 C.ar    
  15 C15            1.4800    -0.9791    -2.3428 C.ar    
  16 Cl16           3.7838    -2.9878    -4.9102 Cl      
  17 N17           -2.8924    -2.1739     0.1647 N.pl3   
  18 C18           -3.6786    -2.3949    -1.0515 C.3     
  19 C19           -3.5257    -2.1423     1.4100 C.ar    
  20 C20           -4.9083    -2.2481     1.4903 C.ar    
  21 C21           -5.5316    -2.2164     2.7223 C.ar    
  22 C22           -4.7800    -2.0795     3.8761 C.ar    
  23 C23           -3.4024    -1.9735     3.7990 C.ar    
  24 C24           -2.7733    -2.0107     2.5701 C.ar    
  25 Cl25          -5.5667    -2.0401     5.4231 Cl      
  26 H26           -3.1174     0.2432    -0.0192 H       
  27 H27           -1.0717    -2.4480    -0.8397 H       
  28 H28           -0.9620    -2.4502     0.9369 H       
  29 H29            2.2693     1.7170     0.1957 H       
  30 H30            1.3551     3.1119    -0.0070 H       
  31 H31            3.4837    -2.5496    -0.0971 H       
  32 H32            4.4488    -3.4334    -2.1789 H       
  33 H33            1.6319    -1.1798    -4.4620 H       
  34 H34            0.6497    -0.2902    -2.3906 H       
  35 H35           -3.7364    -3.4637    -1.2576 H       
  36 H36           -4.6837    -1.9970    -0.9118 H       
  37 H37           -3.2007    -1.8885    -1.8902 H       
  38 H38           -5.4954    -2.3546     0.5901 H       
  39 H39           -6.6067    -2.2983     2.7853 H       
  40 H40           -2.8183    -1.8660     4.7010 H       
  41 H41           -1.6981    -1.9282     2.5105 H       
@<TRIPOS>BOND
   1    1    2 2
   2    1    7 1
   3    1    5 1
   4    2    3 1
   5    2    8 1
   6    3    4 2
   7    3    6 1
   8    4    5 1
   9    4   26 1
  10    6   17 1
  11    6   27 1
  12    6   28 1
  13    7   29 1
  14    7   30 1
  15    8    9 1
  16    8   10 2
  17    9   11 ar
  18    9   15 ar
  19   11   12 ar
  20   11   31 1
  21   12   13 ar
  22   12   32 1
  23   13   14 ar
  24   13   16 1
  25   14   15 ar
  26   14   33 1
  27   15   34 1
  28   17   18 1
  29   17   19 1
  30   18   35 1
  31   18   36 1
  32   18   37 1
  33   19   20 ar
  34   19   24 ar
  35   20   21 ar
  36   20   38 1
  37   21   22 ar
  38   21   39 1
  39   22   23 ar
  40   22   25 1
  41   23   24 ar
  42   23   40 1
  43   24   41 1

#	End of record

