#	Name: ASD01913050
#	Creating user name:	WinNT
#	Creation time:	15. 06. 2019 20:00

#	Modifying user name:	WinNT
#	Modification time:	15. 06. 2019 20:00

#	Program:	/corina/corina34_cracker 3.40 0067  02.08.2006

@<TRIPOS>MOLECULE
ASD01913050
  50   54    0    0    0
SMALL
NO_CHARGES


@<TRIPOS>ATOM
   1 C1            -0.4983     1.1147     1.1150 C.ar    
   2 C2            -0.5219    -0.0797     0.4611 C.ar    
   3 C3             0.6473    -0.7964     0.2302 C.ar    
   4 C4             1.8692    -0.3117     0.6608 C.ar    
   5 C5             1.9216     0.9276     1.3425 C.ar    
   6 C6             0.7218     1.6446     1.5696 C.ar    
   7 C7             3.1101    -1.0821     0.4115 C.2     
   8 N8             3.2923    -2.4046     0.6307 N.2     
   9 C9             4.5271    -2.6535     0.2727 C.2     
  10 O10            5.0560    -1.4999    -0.1473 O.3     
  11 N11            4.2337    -0.6120    -0.0673 N.2     
  12 C12            5.2219    -3.9898     0.3251 C.3     
  13 C13            5.6705    -4.3879    -1.0828 C.3     
  14 C14            6.3471    -5.7598    -1.0357 C.3     
  15 C15            7.5854    -5.6834    -0.1371 C.3     
  16 N16            7.1847    -5.1627     1.1770 N.am    
  17 C17            6.4475    -3.8934     1.2391 C.3     
  18 C18            7.4877    -5.8367     2.3042 C.2     
  19 C19            8.1495    -7.1548     2.2213 C.ar    
  20 O20            7.2165    -5.3599     3.3890 O.2     
  21 C21            9.1764    -7.3666     1.2990 C.ar    
  22 C22            9.7908    -8.5984     1.2262 C.ar    
  23 C23            9.3909    -9.6261     2.0666 C.ar    
  24 C24            8.3715    -9.4214     2.9839 C.ar    
  25 C25            7.7543    -8.1919     3.0690 C.ar    
  26 F26            9.9964   -10.8315     1.9912 F       
  27 C27            3.1381     1.4574     1.7964 C.ar    
  28 C28            3.1515     2.6531     2.4486 C.ar    
  29 C29            1.9720     3.3602     2.6725 C.ar    
  30 C30            0.7735     2.8755     2.2466 C.ar    
  31 H31           -1.4172     1.6574     1.2805 H       
  32 H32           -1.4649    -0.4773     0.1163 H       
  33 H33            0.6008    -1.7414    -0.2906 H       
  34 H34            4.5354    -4.7417     0.7144 H       
  35 H35            4.8030    -4.4332    -1.7412 H       
  36 H36            6.3756    -3.6481    -1.4620 H       
  37 H37            5.6505    -6.4953    -0.6334 H       
  38 H38            6.6454    -6.0531    -2.0422 H       
  39 H39            8.0143    -6.6787    -0.0206 H       
  40 H40            8.3216    -5.0163    -0.5855 H       
  41 H41            7.0909    -3.0803     0.9030 H       
  42 H42            6.1255    -3.7076     2.2638 H       
  43 H43            9.4884    -6.5669     0.6436 H       
  44 H44           10.5849    -8.7633     0.5130 H       
  45 H45            8.0636   -10.2254     3.6360 H       
  46 H46            6.9606    -8.0333     3.7841 H       
  47 H47            4.0599     0.9198     1.6299 H       
  48 H48            4.0897     3.0588     2.7974 H       
  49 H49            2.0092     4.3060     3.1924 H       
  50 H50           -0.1329     3.4343     2.4268 H       
@<TRIPOS>BOND
   1    1    2 ar
   2    1    6 ar
   3    1   31 1
   4    2    3 ar
   5    2   32 1
   6    3    4 ar
   7    3   33 1
   8    4    5 ar
   9    4    7 1
  10    5    6 ar
  11    5   27 ar
  12    6   30 ar
  13    7    8 1
  14    7   11 2
  15    8    9 2
  16    9   10 1
  17    9   12 1
  18   10   11 1
  19   12   13 1
  20   12   17 1
  21   12   34 1
  22   13   14 1
  23   13   35 1
  24   13   36 1
  25   14   15 1
  26   14   37 1
  27   14   38 1
  28   15   16 1
  29   15   39 1
  30   15   40 1
  31   16   17 1
  32   16   18 am
  33   17   41 1
  34   17   42 1
  35   18   19 1
  36   18   20 2
  37   19   21 ar
  38   19   25 ar
  39   21   22 ar
  40   21   43 1
  41   22   23 ar
  42   22   44 1
  43   23   24 ar
  44   23   26 1
  45   24   25 ar
  46   24   45 1
  47   25   46 1
  48   27   28 ar
  49   27   47 1
  50   28   29 ar
  51   28   48 1
  52   29   30 ar
  53   29   49 1
  54   30   50 1

#	End of record

