#	Name: ASD07301124
#	Creating user name:	WinNT
#	Creation time:	15. 06. 2019 21:11

#	Modifying user name:	WinNT
#	Modification time:	15. 06. 2019 21:11

#	Program:	/corina/corina34_cracker 3.40 0067  02.08.2006

@<TRIPOS>MOLECULE
ASD07301124
  30   30    0    0    0
SMALL
NO_CHARGES


@<TRIPOS>ATOM
   1 C1            -0.1415     1.5010     0.0171 C.3     
   2 C2            -0.1146    -0.0057     0.0084 C.2     
   3 C3             0.0224    -0.7425     1.2657 C.2     
   4 C4             0.0485    -2.2060     1.2572 C.2     
   5 C5             1.3667    -2.9360     1.2363 C.3     
   6 O6            -0.2066    -0.6082    -1.0411 O.2     
   7 O7            -0.9915    -2.8315     1.2671 O.2     
   8 N8             0.1227    -0.0854     2.4102 N.2     
   9 N9             0.1396    -0.7325     3.5261 N.pl3   
  10 C10            0.1385    -0.0375     4.7353 C.ar    
  11 C11            0.1566    -0.7331     5.9389 C.ar    
  12 C12            0.1559    -0.0416     7.1338 C.ar    
  13 C13            0.1372     1.3415     7.1346 C.ar    
  14 C14            0.1186     2.0369     5.9394 C.ar    
  15 C15            0.1250     1.3524     4.7401 C.ar    
  16 C16            0.1765    -2.2399     5.9393 C.3     
  17 F17            0.1925    -2.7058     7.2583 F       
  18 F18           -0.9644    -2.7215     5.2884 F       
  19 F19            1.3199    -2.6913     5.2714 F       
  20 H20            0.8746     1.8831    -0.0813 H       
  21 H21           -0.7463     1.8585    -0.8163 H       
  22 H22           -0.5722     1.8513     0.9551 H       
  23 H23            2.1793    -2.2159     1.1404 H       
  24 H24            1.4860    -3.4972     2.1630 H       
  25 H25            1.3882    -3.6229     0.3902 H       
  26 H26            0.1530    -1.7024     3.5241 H       
  27 H27            0.1697    -0.5813     8.0692 H       
  28 H28            0.1367     1.8797     8.0709 H       
  29 H29            0.1033     3.1168     5.9439 H       
  30 H30            0.1154     1.8962     3.8070 H       
@<TRIPOS>BOND
   1    1    2 1
   2    1   20 1
   3    1   21 1
   4    1   22 1
   5    2    3 1
   6    2    6 2
   7    3    4 1
   8    3    8 2
   9    4    5 1
  10    4    7 2
  11    5   23 1
  12    5   24 1
  13    5   25 1
  14    8    9 1
  15    9   10 1
  16    9   26 1
  17   10   11 ar
  18   10   15 ar
  19   11   12 ar
  20   11   16 1
  21   12   13 ar
  22   12   27 1
  23   13   14 ar
  24   13   28 1
  25   14   15 ar
  26   14   29 1
  27   15   30 1
  28   16   17 1
  29   16   18 1
  30   16   19 1

#	End of record

