#	Name: ASD02340001
#	Creating user name:	WinNT
#	Creation time:	15. 06. 2019 20:20

#	Modifying user name:	WinNT
#	Modification time:	15. 06. 2019 20:20

#	Program:	/corina/corina34_cracker 3.40 0067  02.08.2006

@<TRIPOS>MOLECULE
ASD02340001
   9    8    0    0    0
SMALL
NO_CHARGES


@<TRIPOS>ATOM
   1 S1            -0.0257     2.0457     0.0133 S.o2    
   2 S2             0.0021    -0.0041     0.0020 S.o     
   3 O3             1.4218     2.5160     0.0020 O.3     
   4 O4            -0.5875     2.4462    -1.2290 O.2     
   5 O5            -0.5636     2.4328     1.2703 O.2     
   6 O6            -1.4761    -0.3666     0.0142 O.3     
   7 O7             0.3956    -0.3111    -1.3284 O.2     
   8 H8             1.5229     3.4777     0.0062 H       
   9 H9            -1.6477    -1.3182     0.0107 H       
@<TRIPOS>BOND
   1    1    2 1
   2    1    3 1
   3    1    4 2
   4    1    5 2
   5    2    6 1
   6    2    7 2
   7    3    8 1
   8    6    9 1

#	End of record

