#	Name: ASD02508155
#	Creating user name:	WinNT
#	Creation time:	15. 06. 2019 20:23

#	Modifying user name:	WinNT
#	Modification time:	15. 06. 2019 20:23

#	Program:	/corina/corina34_cracker 3.40 0067  02.08.2006

@<TRIPOS>MOLECULE
ASD02508155
  33   35    0    0    0
SMALL
NO_CHARGES


@<TRIPOS>ATOM
   1 C1             1.6261     1.8489    -1.7110 C.ar    
   2 C2             1.2403     0.5631    -1.3656 C.ar    
   3 C3             2.9535     2.2418    -1.5418 C.ar    
   4 C4             3.8820     1.3489    -1.0303 C.ar    
   5 C5             3.4894     0.0695    -0.6887 C.ar    
   6 C6             2.1714    -0.3223    -0.8560 C.ar    
   7 O7             0.9551     2.9082    -2.2259 O.3     
   8 C8             1.8038     3.9372    -2.3765 C.2     
   9 N9             3.0344     3.5673    -1.9698 N.am    
  10 S10            4.6681    -1.0672    -0.0382 S.o2    
  11 N11            4.1096    -1.5599     1.4409 N.am    
  12 C12            4.3500    -0.7766     2.5764 C.ar    
  13 O13            1.5092     5.0319    -2.8164 O.2     
  14 O14            4.6315    -2.2101    -0.8819 O.2     
  15 O15            5.8519    -0.3207     0.2081 O.2     
  16 C16            4.3934    -1.3672     3.8338 C.ar    
  17 C17            4.5516     0.5927     2.4484 C.ar    
  18 C18            4.7887     1.3631     3.5725 C.ar    
  19 C19            4.8254     0.7727     4.8223 C.ar    
  20 C20            4.6311    -0.5900     4.9532 C.ar    
  21 F21            4.2031    -2.6986     3.9627 F       
  22 F22            4.5164     1.1703     1.2276 F       
  23 Cl23           1.6869    -1.9325    -0.4244 Cl      
  24 C24            4.2365     4.4046    -1.9741 C.3     
  25 H25            0.2136     0.2537    -1.4942 H       
  26 H26            4.9101     1.6527    -0.8995 H       
  27 H27            3.6160    -2.3910     1.5207 H       
  28 H28            4.9458     2.4271     3.4738 H       
  29 H29            5.0112     1.3768     5.6981 H       
  30 H30            4.6604    -1.0476     5.9311 H       
  31 H31            3.9896     5.3927    -2.3623 H       
  32 H32            4.6175     4.4985    -0.9571 H       
  33 H33            4.9968     3.9455    -2.6059 H       
@<TRIPOS>BOND
   1    1    2 ar
   2    1    3 ar
   3    1    7 1
   4    2    6 ar
   5    2   25 1
   6    3    4 ar
   7    3    9 1
   8    4    5 ar
   9    4   26 1
  10    5    6 ar
  11    5   10 1
  12    6   23 1
  13    7    8 1
  14    8    9 am
  15    8   13 2
  16    9   24 1
  17   10   11 am
  18   10   14 2
  19   10   15 2
  20   11   12 1
  21   11   27 1
  22   12   16 ar
  23   12   17 ar
  24   16   21 1
  25   16   20 ar
  26   17   18 ar
  27   17   22 1
  28   18   19 ar
  29   18   28 1
  30   19   20 ar
  31   19   29 1
  32   20   30 1
  33   24   31 1
  34   24   32 1
  35   24   33 1

#	End of record

