#	Name: ASD00431091
#	Creating user name:	WinNT
#	Creation time:	15. 06. 2019 18:35

#	Modifying user name:	WinNT
#	Modification time:	15. 06. 2019 18:35

#	Program:	/corina/corina34_cracker 3.40 0067  02.08.2006

@<TRIPOS>MOLECULE
ASD00431091
  31   33    0    0    0
SMALL
NO_CHARGES


@<TRIPOS>ATOM
   1 C1            -0.0162     1.3410     0.0094 C.2     
   2 N2             0.0021    -0.0041     0.0020 N.am    
   3 C3             1.2637    -0.4708    -0.0125 C.2     
   4 C4             2.1916     0.6799    -0.0152 C.ar    
   5 C5             3.5709     0.8108    -0.0273 C.ar    
   6 C6             4.1413     2.0742    -0.0256 C.ar    
   7 C7             3.3438     3.2031    -0.0119 C.ar    
   8 C8             1.9626     3.0875     0.0003 C.ar    
   9 C9             1.3783     1.8310    -0.0013 C.ar    
  10 O10           -1.0118     2.0364     0.0181 O.2     
  11 O11            1.5863    -1.6416    -0.0213 O.2     
  12 C12           -1.1944    -0.8494     0.0093 C.3     
  13 C13           -1.6253    -1.1359    -1.4305 C.3     
  14 C14           -4.1154    -1.4356    -1.4074 C.ar    
  15 C15           -2.8561    -2.0054    -1.4230 C.ar    
  16 C16           -2.7395    -3.3866    -1.4320 C.ar    
  17 C17           -3.9001    -4.1472    -1.4250 C.ar    
  18 C18           -5.1252    -3.5062    -1.4094 C.ar    
  19 N19           -5.1972    -2.1894    -1.4012 N.ar    
  20 Br20          -3.8075    -6.0359    -1.4373 Br      
  21 H21            4.1990    -0.0677    -0.0376 H       
  22 H22            5.2164     2.1772    -0.0346 H       
  23 H23            3.8001     4.1820    -0.0103 H       
  24 H24            1.3444     3.9730     0.0113 H       
  25 H25           -0.9726    -1.7886     0.5160 H       
  26 H26           -1.9995    -0.3349     0.5340 H       
  27 H27           -1.8471    -0.1966    -1.9371 H       
  28 H28           -0.8202    -1.6504    -1.9551 H       
  29 H29           -4.2143    -0.3602    -1.3958 H       
  30 H30           -1.7687    -3.8595    -1.4445 H       
  31 H31           -6.0334    -4.0905    -1.4042 H       
@<TRIPOS>BOND
   1    1    2 am
   2    1    9 1
   3    1   10 2
   4    2    3 am
   5    2   12 1
   6    3    4 1
   7    3   11 2
   8    4    5 ar
   9    4    9 ar
  10    5    6 ar
  11    5   21 1
  12    6    7 ar
  13    6   22 1
  14    7    8 ar
  15    7   23 1
  16    8    9 ar
  17    8   24 1
  18   12   13 1
  19   12   25 1
  20   12   26 1
  21   13   15 1
  22   13   27 1
  23   13   28 1
  24   14   15 ar
  25   14   19 ar
  26   14   29 1
  27   15   16 ar
  28   16   17 ar
  29   16   30 1
  30   17   18 ar
  31   17   20 1
  32   18   19 ar
  33   18   31 1

#	End of record

