#	Name: ASD03320158
#	Creating user name:	WinNT
#	Creation time:	15. 06. 2019 20:36

#	Modifying user name:	WinNT
#	Modification time:	15. 06. 2019 20:36

#	Program:	/corina/corina34_cracker 3.40 0067  02.08.2006

@<TRIPOS>MOLECULE
ASD03320158
  31   32    0    0    0
SMALL
NO_CHARGES


@<TRIPOS>ATOM
   1 C1            -0.1749     1.4740    -0.5685 C.2     
   2 C2            -0.1527    -0.0034    -0.5720 C.ar    
   3 C3             0.8983    -0.6981    -1.1847 C.ar    
   4 C4             0.8726    -2.0810    -1.1601 C.ar    
   5 C5            -0.1825    -2.7285    -0.5358 C.ar    
   6 N6            -1.1593    -2.0461     0.0329 N.ar    
   7 C7            -1.1752    -0.7293     0.0399 C.ar    
   8 O8             0.7237     2.0967    -1.1003 O.2     
   9 N9            -1.1942     2.1313     0.0193 N.am    
  10 C10           -1.1619     3.5258     0.1193 C.ar    
  11 C11           -2.3378     4.2581     0.0198 C.ar    
  12 C12           -2.3025     5.6352     0.1189 C.ar    
  13 C13           -1.0979     6.2850     0.3166 C.ar    
  14 C14            0.0748     5.5588     0.4156 C.ar    
  15 C15            0.0455     4.1811     0.3240 C.ar    
  16 C16           -1.0630     7.7877     0.4238 C.3     
  17 C17           -1.2329     8.1987     1.8878 C.3     
  18 F18           -2.4596     7.7254     2.3657 F       
  19 F19           -0.1938     7.6526     2.6489 F       
  20 F20            0.1637     8.2610    -0.0541 F       
  21 F21           -2.1021     8.3338    -0.3374 F       
  22 Cl22          -1.1911     9.9966     2.0160 Cl      
  23 Cl23          -0.2201    -4.4637    -0.5017 Cl      
  24 Br24           2.2610    -3.0773    -1.9697 Br      
  25 H25            1.7076    -0.1676    -1.6643 H       
  26 H26           -1.9893    -0.2065     0.5199 H       
  27 H27           -1.9502     1.6370     0.3730 H       
  28 H28           -3.2788     3.7513    -0.1353 H       
  29 H29           -3.2165     6.2052     0.0416 H       
  30 H30            1.0140     6.0694     0.5693 H       
  31 H31            0.9610     3.6142     0.4067 H       
@<TRIPOS>BOND
   1    1    2 1
   2    1    8 2
   3    1    9 am
   4    2    3 ar
   5    2    7 ar
   6    3    4 ar
   7    3   25 1
   8    4    5 ar
   9    4   24 1
  10    5    6 ar
  11    5   23 1
  12    6    7 ar
  13    7   26 1
  14    9   10 1
  15    9   27 1
  16   10   11 ar
  17   10   15 ar
  18   11   12 ar
  19   11   28 1
  20   12   13 ar
  21   12   29 1
  22   13   14 ar
  23   13   16 1
  24   14   15 ar
  25   14   30 1
  26   15   31 1
  27   16   17 1
  28   16   20 1
  29   16   21 1
  30   17   18 1
  31   17   19 1
  32   17   22 1

#	End of record

