#	Name: ASD01730043
#	Creating user name:	WinNT
#	Creation time:	15. 06. 2019 19:23

#	Modifying user name:	WinNT
#	Modification time:	15. 06. 2019 19:23

#	Program:	/corina/corina34_cracker 3.40 0067  02.08.2006

@<TRIPOS>MOLECULE
ASD01730043
  29   30    0    0    0
SMALL
NO_CHARGES


@<TRIPOS>ATOM
   1 N1            -0.0162     1.3436     0.0094 N.am    
   2 C2             0.0021    -0.0041     0.0020 C.2     
   3 S3             1.4961    -0.8398    -0.0167 S.2     
   4 N4            -1.1558    -0.6938     0.0094 N.am    
   5 C5            -1.1360    -2.1586     0.0013 C.3     
   6 C6            -2.5713    -2.6882     0.0122 C.3     
   7 S7             2.4832     4.1980     0.9842 S.3     
   8 C8             1.0902     3.5496     0.0107 C.3     
   9 C9             1.1652     2.0472     0.0019 C.2     
  10 N10            2.2595     1.3818    -0.0117 N.2     
  11 C11            3.5271     1.8784    -0.0220 C.ar    
  12 C12            3.8092     3.1815     0.4150 C.ar    
  13 C13            4.5789     1.0782    -0.4759 C.ar    
  14 C14            5.8679     1.5696    -0.4874 C.ar    
  15 C15            6.1351     2.8553    -0.0518 C.ar    
  16 C16            5.1057     3.6624     0.3996 C.ar    
  17 H17           -0.8627     1.8171     0.0160 H       
  18 H18           -2.0023    -0.2203     0.0200 H       
  19 H19           -0.6258    -2.5101    -0.8955 H       
  20 H20           -0.6088    -2.5197     0.8844 H       
  21 H21           -3.0815    -2.3367     0.9090 H       
  22 H22           -3.0985    -2.3271    -0.8709 H       
  23 H23           -2.5566    -3.7781     0.0062 H       
  24 H24            0.1500     3.8660     0.4623 H       
  25 H25            1.1522     3.9246    -1.0108 H       
  26 H26            4.3823     0.0728    -0.8181 H       
  27 H27            6.6757     0.9450    -0.8393 H       
  28 H28            7.1482     3.2292    -0.0636 H       
  29 H29            5.3144     4.6663     0.7390 H       
@<TRIPOS>BOND
   1    1    2 am
   2    1    9 1
   3    1   17 1
   4    2    3 2
   5    2    4 am
   6    4    5 1
   7    4   18 1
   8    5    6 1
   9    5   19 1
  10    5   20 1
  11    6   21 1
  12    6   22 1
  13    6   23 1
  14    7    8 1
  15    7   12 1
  16    8    9 1
  17    8   24 1
  18    8   25 1
  19    9   10 2
  20   10   11 1
  21   11   12 ar
  22   11   13 ar
  23   12   16 ar
  24   13   14 ar
  25   13   26 1
  26   14   15 ar
  27   14   27 1
  28   15   16 ar
  29   15   28 1
  30   16   29 1

#	End of record

