#	Name: ASD04590671
#	Creating user name:	WinNT
#	Creation time:	15. 06. 2019 20:51

#	Modifying user name:	WinNT
#	Modification time:	15. 06. 2019 20:51

#	Program:	/corina/corina34_cracker 3.40 0067  02.08.2006

@<TRIPOS>MOLECULE
ASD04590671
  61   66    0    0    0
SMALL
NO_CHARGES


@<TRIPOS>ATOM
   1 N1            -0.0171     1.3233    -0.0119 N.ar    
   2 C2             0.0017    -0.0035    -0.0051 C.ar    
   3 N3             1.1298    -0.6949    -0.0122 N.ar    
   4 C4             2.3050    -0.0727    -0.0266 C.ar    
   5 C5             2.3189     1.3367    -0.0341 C.ar    
   6 C6             1.1071     2.0203    -0.0262 C.ar    
   7 N7             3.6029    -0.5190    -0.0371 N.pl3   
   8 C8             4.4820     0.5513    -0.0513 C.ar    
   9 C9             3.7311     1.7389    -0.0501 C.ar    
  10 N10           -1.2019    -0.6888     0.0103 N.pl3   
  11 C11           -2.4019     0.0120     0.1313 C.ar    
  12 C12            4.0021    -1.9285    -0.0329 C.3     
  13 C13            3.4623    -2.6255     1.2283 C.3     
  14 N14           -2.3783     1.3199     0.3319 N.ar    
  15 C15           -3.4881     2.0231     0.4522 C.ar    
  16 C16           -4.7291     1.4086     0.3721 C.ar    
  17 C17           -4.7935     0.0324     0.1615 C.ar    
  18 C18           -3.6090    -0.6707     0.0341 C.ar    
  19 N19           -5.9023     2.1614     0.5017 N.3     
  20 C20           -5.5952     3.5823     0.7169 C.3     
  21 C21           -6.8999     4.3805     0.7738 C.3     
  22 N22           -7.7444     3.8573     1.8567 N.3     
  23 C23           -8.0515     2.4364     1.6415 C.3     
  24 C24           -6.7468     1.6382     1.5846 C.3     
  25 C25            5.8704     0.6444    -0.0658 C.ar    
  26 N26            6.4628     1.8230    -0.0777 N.ar    
  27 C27            5.7838     2.9573    -0.0769 C.ar    
  28 C28            4.4059     2.9602    -0.0630 C.ar    
  29 F29            6.6175    -0.4811    -0.0673 F       
  30 C30            2.5294    -3.7542     0.7430 C.3     
  31 C31            3.0211    -4.0622    -0.6932 C.3     
  32 C32            3.3784    -2.6580    -1.2406 C.3     
  33 C33           -8.9754     4.6472     1.9927 C.3     
  34 C34           -9.8991     3.9621     2.9115 C.1     
  35 N35          -10.6119     3.4334     3.6206 N.1     
  36 H36            1.0847     3.1001    -0.0319 H       
  37 H37           -1.2104    -1.6559    -0.0630 H       
  38 H38            5.0886    -2.0087    -0.0677 H       
  39 H39            4.2868    -3.0447     1.8051 H       
  40 H40            2.9033    -1.9150     1.8373 H       
  41 H41           -3.4296     3.0891     0.6153 H       
  42 H42           -5.7459    -0.4726     0.0953 H       
  43 H43           -3.6218    -1.7380    -0.1303 H       
  44 H44           -5.0559     3.6995     1.6569 H       
  45 H45           -4.9796     3.9497    -0.1042 H       
  46 H46           -6.6759     5.4305     0.9622 H       
  47 H47           -7.4261     4.2854    -0.1760 H       
  48 H48           -8.6671     2.0690     2.4626 H       
  49 H49           -8.5908     2.3192     0.7015 H       
  50 H50           -6.9708     0.5882     1.3962 H       
  51 H51           -6.2206     1.7333     2.5345 H       
  52 H52            6.3173     3.8962    -0.0870 H       
  53 H53            3.8581     3.8909    -0.0625 H       
  54 H54            2.6324    -4.6339     1.3783 H       
  55 H55            1.4943    -3.4131     0.7269 H       
  56 H56            3.9020    -4.7036    -0.6706 H       
  57 H57            2.2261    -4.5165    -1.2845 H       
  58 H58            2.4803    -2.1399    -1.5771 H       
  59 H59            4.1008    -2.7377    -2.0529 H       
  60 H60           -8.7327     5.6329     2.3896 H       
  61 H61           -9.4477     4.7550     1.0162 H       
@<TRIPOS>BOND
   1    1    2 ar
   2    1    6 ar
   3    2    3 ar
   4    2   10 1
   5    3    4 ar
   6    4    5 ar
   7    4    7 1
   8    5    6 ar
   9    5    9 1
  10    6   36 1
  11    7    8 1
  12    7   12 1
  13    8    9 ar
  14    8   25 ar
  15    9   28 ar
  16   10   11 1
  17   10   37 1
  18   11   14 ar
  19   11   18 ar
  20   12   13 1
  21   12   32 1
  22   12   38 1
  23   13   30 1
  24   13   39 1
  25   13   40 1
  26   14   15 ar
  27   15   16 ar
  28   15   41 1
  29   16   17 ar
  30   16   19 1
  31   17   18 ar
  32   17   42 1
  33   18   43 1
  34   19   20 1
  35   19   24 1
  36   20   21 1
  37   20   44 1
  38   20   45 1
  39   21   22 1
  40   21   46 1
  41   21   47 1
  42   22   23 1
  43   22   33 1
  44   23   24 1
  45   23   48 1
  46   23   49 1
  47   24   50 1
  48   24   51 1
  49   25   26 ar
  50   25   29 1
  51   26   27 ar
  52   27   28 ar
  53   27   52 1
  54   28   53 1
  55   30   31 1
  56   30   54 1
  57   30   55 1
  58   31   32 1
  59   31   56 1
  60   31   57 1
  61   32   58 1
  62   32   59 1
  63   33   34 1
  64   33   60 1
  65   33   61 1
  66   34   35 3

#	End of record

