#	Name: ASD06130007
#	Creating user name:	WinNT
#	Creation time:	15. 06. 2019 21:05

#	Modifying user name:	WinNT
#	Modification time:	15. 06. 2019 21:05

#	Program:	/corina/corina34_cracker 3.40 0067  02.08.2006

@<TRIPOS>MOLECULE
ASD06130007
  63   66    0    0    0
SMALL
NO_CHARGES


@<TRIPOS>ATOM
   1 N1            -2.2138    -0.6616     2.1999 N.2     
   2 S2            -1.5623    -1.8101     1.3656 S.3     
   3 C3             0.1184    -1.4447     1.7824 C.2     
   4 C4             0.0320    -0.3442     2.6248 C.2     
   5 C5            -1.2976     0.0380     2.8133 C.2     
   6 C6            -0.0283    -3.3253    -0.3059 C.3     
   7 N7             1.2469    -3.0789     0.3718 N.am    
   8 C8             1.3261    -2.1444     1.3397 C.2     
   9 C9             2.8939    -4.6700     1.1748 C.ar    
  10 C10            2.4360    -3.8483    -0.0026 C.3     
  11 C11            4.2361    -4.7170     1.5034 C.ar    
  12 C12            1.9704    -5.3711     1.9280 C.ar    
  13 O13            2.4015    -1.8820     1.8458 O.2     
  14 C14           -0.2973    -2.2155    -1.2893 C.2     
  15 O15           -1.0319    -1.1166    -1.0518 O.3     
  16 N16            1.1227     0.2914     3.2029 N.pl3   
  17 C17           -1.6525     1.1847     3.6693 C.2     
  18 N18           -2.9451     1.5297     3.8320 N.am    
  19 O19           -0.7788     1.8193     4.2286 O.2     
  20 C20            0.1625    -2.1548    -2.5520 C.2     
  21 C21           -0.3286    -0.9518    -3.1093 C.2     
  22 C22           -1.0561    -0.3476    -2.1526 C.2     
  23 C23            2.1014    -4.7622    -1.1532 C.2     
  24 C24            2.3875    -6.1247     3.0081 C.ar    
  25 C25            3.7343    -6.1777     3.3367 C.ar    
  26 C26            4.6584    -5.4695     2.5822 C.ar    
  27 O27            4.1471    -6.9180     4.3990 O.3     
  28 O28            1.3417    -4.3899    -2.0222 O.2     
  29 N29            2.6462    -5.9933    -1.2165 N.am    
  30 C30            2.3209    -6.8817    -2.3350 C.3     
  31 C31            3.0548    -8.1874    -2.1693 C.ar    
  32 C32            2.4655    -9.2269    -1.4736 C.ar    
  33 C33            3.1361   -10.4249    -1.3203 C.ar    
  34 C34            4.4020   -10.5845    -1.8651 C.ar    
  35 C35            4.9911    -9.5400    -2.5627 C.ar    
  36 C36            4.3140    -8.3459    -2.7181 C.ar    
  37 O37            5.0640   -11.7618    -1.7153 O.3     
  38 C38            6.3634   -11.8548    -2.3027 C.3     
  39 H39            0.0197    -4.2766    -0.8359 H       
  40 H40           -0.8307    -3.3601     0.4310 H       
  41 H41            3.2317    -3.1655    -0.3005 H       
  42 H42            4.9551    -4.1653     0.9160 H       
  43 H43            0.9220    -5.3292     1.6720 H       
  44 H44            2.0207    -0.0300     3.0268 H       
  45 H45            0.9865     1.0570     3.7828 H       
  46 H46           -3.6420     1.0235     3.3858 H       
  47 H47           -3.1786     2.2841     4.3952 H       
  48 H48            0.7875    -2.8845    -3.0452 H       
  49 H49           -0.1509    -0.5864    -4.1099 H       
  50 H50           -1.5723     0.5957    -2.2529 H       
  51 H51            1.6657    -6.6718     3.5964 H       
  52 H52            5.7074    -5.5092     2.8360 H       
  53 H53            4.3677    -7.8333     4.1785 H       
  54 H54            3.2538    -6.2911    -0.5215 H       
  55 H55            1.2470    -7.0679    -2.3507 H       
  56 H56            2.6219    -6.4120    -3.2715 H       
  57 H57            1.4801    -9.1020    -1.0494 H       
  58 H58            2.6755   -11.2364    -0.7766 H       
  59 H59            5.9765    -9.6618    -2.9878 H       
  60 H60            4.7721    -7.5325    -3.2610 H       
  61 H61            6.7794   -12.8436    -2.1096 H       
  62 H62            6.2880   -11.6960    -3.3784 H       
  63 H63            7.0137   -11.0958    -1.8680 H       
@<TRIPOS>BOND
   1    1    2 1
   2    1    5 2
   3    2    3 1
   4    3    4 2
   5    3    8 1
   6    4    5 1
   7    4   16 1
   8    5   17 1
   9    6    7 1
  10    6   14 1
  11    6   39 1
  12    6   40 1
  13    7    8 am
  14    7   10 1
  15    8   13 2
  16    9   10 1
  17    9   11 ar
  18    9   12 ar
  19   10   23 1
  20   10   41 1
  21   11   26 ar
  22   11   42 1
  23   12   24 ar
  24   12   43 1
  25   14   15 1
  26   14   20 2
  27   15   22 1
  28   16   44 1
  29   16   45 1
  30   17   18 am
  31   17   19 2
  32   18   46 1
  33   18   47 1
  34   20   21 1
  35   20   48 1
  36   21   22 2
  37   21   49 1
  38   22   50 1
  39   23   28 2
  40   23   29 am
  41   24   25 ar
  42   24   51 1
  43   25   26 ar
  44   25   27 1
  45   26   52 1
  46   27   53 1
  47   29   30 1
  48   29   54 1
  49   30   31 1
  50   30   55 1
  51   30   56 1
  52   31   32 ar
  53   31   36 ar
  54   32   33 ar
  55   32   57 1
  56   33   34 ar
  57   33   58 1
  58   34   35 ar
  59   34   37 1
  60   35   36 ar
  61   35   59 1
  62   36   60 1
  63   37   38 1
  64   38   61 1
  65   38   62 1
  66   38   63 1

#	End of record

