#	Name: ASD01810585
#	Creating user name:	WinNT
#	Creation time:	15. 06. 2019 19:24

#	Modifying user name:	WinNT
#	Modification time:	15. 06. 2019 19:24

#	Program:	/corina/corina34_cracker 3.40 0067  02.08.2006

@<TRIPOS>MOLECULE
ASD01810585
  35   37    0    0    0
SMALL
NO_CHARGES


@<TRIPOS>ATOM
   1 C1            -0.5846     2.1052    -1.0750 C.ar    
   2 C2            -0.7857     0.7353    -1.0373 C.ar    
   3 C3             0.2581    -0.1082    -0.7157 C.ar    
   4 C4             1.5147     0.4252    -0.4298 C.ar    
   5 C5             1.7213     1.8137    -0.4679 C.ar    
   6 C6             0.6567     2.6441    -0.7934 C.ar    
   7 C7             2.8064    -0.1831    -0.0609 C.2     
   8 C8             3.7437     0.9764     0.1023 C.2     
   9 N9             3.0470     2.0983    -0.1485 N.am    
  10 O10            3.0559    -1.3623     0.0801 O.2     
  11 O11            4.9166     0.9134     0.4058 O.2     
  12 C12            3.6107     3.4494    -0.0936 C.3     
  13 C13            4.0654     3.8604    -1.4703 C.ar    
  14 C14            4.0290     2.9509    -2.5103 C.ar    
  15 C15            4.4461     3.3279    -3.7734 C.ar    
  16 C16            4.8990     4.6146    -3.9961 C.ar    
  17 C17            4.9346     5.5248    -2.9560 C.ar    
  18 C18            4.5135     5.1491    -1.6943 C.ar    
  19 C19            4.5522     6.1411    -0.5605 C.3     
  20 C20            4.4074     2.3359    -4.9071 C.3     
  21 H21           -1.4052     2.7588    -1.3315 H       
  22 H22           -1.7605     0.3269    -1.2594 H       
  23 H23            0.1025    -1.1765    -0.6852 H       
  24 H24            0.7993     3.7141    -0.8273 H       
  25 H25            2.8511     4.1459     0.2612 H       
  26 H26            4.4610     3.4608     0.5883 H       
  27 H27            3.6751     1.9455    -2.3363 H       
  28 H28            5.2255     4.9090    -4.9826 H       
  29 H29            5.2888     6.5301    -3.1300 H       
  30 H30            3.5747     6.6120    -0.4563 H       
  31 H31            4.8075     5.6252     0.3651 H       
  32 H32            5.3023     6.9036    -0.7704 H       
  33 H33            3.4409     2.3939    -5.4078 H       
  34 H34            5.1999     2.5666    -5.6190 H       
  35 H35            4.5534     1.3296    -4.5145 H       
@<TRIPOS>BOND
   1    1    2 ar
   2    1    6 ar
   3    1   21 1
   4    2    3 ar
   5    2   22 1
   6    3    4 ar
   7    3   23 1
   8    4    5 ar
   9    4    7 1
  10    5    6 ar
  11    5    9 1
  12    6   24 1
  13    7    8 1
  14    7   10 2
  15    8    9 am
  16    8   11 2
  17    9   12 1
  18   12   13 1
  19   12   25 1
  20   12   26 1
  21   13   14 ar
  22   13   18 ar
  23   14   15 ar
  24   14   27 1
  25   15   16 ar
  26   15   20 1
  27   16   17 ar
  28   16   28 1
  29   17   18 ar
  30   17   29 1
  31   18   19 1
  32   19   30 1
  33   19   31 1
  34   19   32 1
  35   20   33 1
  36   20   34 1
  37   20   35 1

#	End of record

