#	Name: ASD06130017
#	Creating user name:	WinNT
#	Creation time:	15. 06. 2019 21:05

#	Modifying user name:	WinNT
#	Modification time:	15. 06. 2019 21:05

#	Program:	/corina/corina34_cracker 3.40 0067  02.08.2006

@<TRIPOS>MOLECULE
ASD06130017
  57   60    0    0    0
SMALL
NO_CHARGES


@<TRIPOS>ATOM
   1 N1            -0.0178     1.4650     0.0101 N.am    
   2 C2             0.0021    -0.0041     0.0020 C.3     
   3 C3            -0.8633    -0.5025    -1.1597 C.3     
   4 C4            -2.2627     0.1065    -1.0460 C.3     
   5 C5            -2.1661     1.6312    -1.1353 C.3     
   6 C6            -1.3155     2.1538     0.0324 C.3     
   7 C7            -3.1269    -0.4084    -2.1681 C.ar    
   8 N8            -4.2201    -1.0785    -1.8699 N.ar    
   9 N9            -2.7622    -0.1660    -3.4141 N.ar    
  10 C10           -3.4870    -0.5965    -4.4392 C.ar    
  11 C11           -4.6586    -1.3207    -4.1732 C.ar    
  12 C12           -5.0080    -1.5486    -2.8302 C.ar    
  13 N13           -5.6166    -1.8983    -4.9379 N.2     
  14 C14           -6.5062    -2.4564    -4.1694 C.2     
  15 N15           -6.1761    -2.2677    -2.8605 N.pl3   
  16 C16           -6.9294    -2.7466    -1.6988 C.3     
  17 C17           -7.8472    -1.6556    -1.2107 C.ar    
  18 C18           -9.0947    -1.4923    -1.7857 C.ar    
  19 C19           -7.4450    -0.8214    -0.1845 C.ar    
  20 C20           -8.2869     0.1791     0.2636 C.ar    
  21 C21           -9.5318     0.3461    -0.3143 C.ar    
  22 C22           -9.9370    -0.4903    -1.3370 C.ar    
  23 C23            1.1324     2.1674     0.0029 C.2     
  24 O24            2.1993     1.5860    -0.0104 O.2     
  25 O25            1.0993     3.5134     0.0104 O.3     
  26 C26            2.3764     4.2042     0.0019 C.3     
  27 C27            3.1562     3.8192    -1.2569 C.3     
  28 C28            2.1388     5.7156     0.0123 C.3     
  29 C29            3.1800     3.8058     1.2414 C.3     
  30 O30           -3.1042    -0.3420    -5.7136 O.3     
  31 Cl31          -9.6032    -2.5437    -3.0701 Cl      
  32 H32            1.0258    -0.3549    -0.1282 H       
  33 H33           -0.3983    -0.3801     0.9435 H       
  34 H34           -0.4114    -0.2020    -2.1050 H       
  35 H35           -0.9351    -1.5894    -1.1195 H       
  36 H36           -2.7042    -0.1741    -0.0898 H       
  37 H37           -1.7019     1.9116    -2.0808 H       
  38 H38           -3.1653     2.0630    -1.0777 H       
  39 H39           -1.8255     1.9532     0.9745 H       
  40 H40           -1.1602     3.2268    -0.0802 H       
  41 H41           -7.3797    -2.9877    -4.5175 H       
  42 H42           -7.5195    -3.6180    -1.9826 H       
  43 H43           -6.2358    -3.0207    -0.9038 H       
  44 H44           -6.4728    -0.9516     0.2675 H       
  45 H45           -7.9723     0.8303     1.0656 H       
  46 H46          -10.1894     1.1278     0.0365 H       
  47 H47          -10.9095    -0.3598    -1.7883 H       
  48 H48            2.5837     4.1030    -2.1399 H       
  49 H49            4.1149     4.3378    -1.2632 H       
  50 H50            3.3255     2.7424    -1.2643 H       
  51 H51            1.5832     5.9899     0.9091 H       
  52 H52            3.0975     6.2342     0.0060 H       
  53 H53            1.5663     5.9994    -0.8707 H       
  54 H54            3.3493     2.7290     1.2340 H       
  55 H55            4.1387     4.3244     1.2351 H       
  56 H56            2.6245     4.0801     2.1383 H       
  57 H57           -2.5303    -1.0205    -6.0948 H       
@<TRIPOS>BOND
   1    1    2 1
   2    1   23 am
   3    1    6 1
   4    2    3 1
   5    2   32 1
   6    2   33 1
   7    3    4 1
   8    3   34 1
   9    3   35 1
  10    4    5 1
  11    4    7 1
  12    4   36 1
  13    5    6 1
  14    5   37 1
  15    5   38 1
  16    6   39 1
  17    6   40 1
  18    7    8 ar
  19    7    9 ar
  20    8   12 ar
  21    9   10 ar
  22   10   11 ar
  23   10   30 1
  24   11   12 ar
  25   11   13 1
  26   12   15 1
  27   13   14 2
  28   14   15 1
  29   14   41 1
  30   15   16 1
  31   16   17 1
  32   16   42 1
  33   16   43 1
  34   17   18 ar
  35   17   19 ar
  36   18   31 1
  37   18   22 ar
  38   19   20 ar
  39   19   44 1
  40   20   21 ar
  41   20   45 1
  42   21   22 ar
  43   21   46 1
  44   22   47 1
  45   23   24 2
  46   23   25 1
  47   25   26 1
  48   26   27 1
  49   26   28 1
  50   26   29 1
  51   27   48 1
  52   27   49 1
  53   27   50 1
  54   28   51 1
  55   28   52 1
  56   28   53 1
  57   29   54 1
  58   29   55 1
  59   29   56 1
  60   30   57 1

#	End of record

