#	Name: ASD00170475
#	Creating user name:	WinNT
#	Creation time:	15. 06. 2019 18:32

#	Modifying user name:	WinNT
#	Modification time:	15. 06. 2019 18:32

#	Program:	/corina/corina34_cracker 3.40 0067  02.08.2006

@<TRIPOS>MOLECULE
ASD00170475
  41   45    0    0    0
SMALL
NO_CHARGES


@<TRIPOS>ATOM
   1 C1            -0.0277     1.3895    -0.0166 C.ar    
   2 C2            -0.0015    -0.0103    -0.0083 C.ar    
   3 C3            -1.1922    -0.7252     0.0050 C.ar    
   4 C4            -2.3964    -0.0562     0.0098 C.ar    
   5 C5            -2.4347     1.3348     0.0016 C.ar    
   6 C6            -1.2457     2.0610    -0.0058 C.ar    
   7 C7            -3.8278    -0.5297     0.0239 C.3     
   8 C8            -4.6728     0.7255     0.0228 C.2     
   9 C9            -3.8583     1.7971     0.0099 C.2     
  10 S10           -6.3493     1.2709     0.0325 S.3     
  11 C11           -5.8065     2.9440     0.0181 C.2     
  12 N12           -4.5167     2.9773     0.0082 N.2     
  13 N13           -6.6354     4.0541     0.0170 N.pl3   
  14 N14            1.2213    -0.6874    -0.0137 N.am    
  15 C15            1.3482    -1.8547     0.6479 C.2     
  16 O16            0.4346    -2.2671     1.3308 O.2     
  17 C17            2.6252    -2.6474     0.5393 C.3     
  18 C18            1.2421     2.1556    -0.0308 C.ar    
  19 C19            2.2471     1.8580     0.8874 C.ar    
  20 C20            3.4287     2.5712     0.8732 C.ar    
  21 C21            3.6199     3.5851    -0.0528 C.ar    
  22 C22            2.6177     3.8870    -0.9739 C.ar    
  23 C23            1.4347     3.1709    -0.9665 C.ar    
  24 O24            4.6765     4.4223    -0.2693 O.3     
  25 C25            4.4759     4.9615    -1.5891 C.3     
  26 O26            3.0479     4.9125    -1.7658 O.3     
  27 H27           -1.1740    -1.8050     0.0111 H       
  28 H28           -1.2697     3.1407    -0.0122 H       
  29 H29           -4.0363    -1.1249    -0.8652 H       
  30 H30           -4.0224    -1.1140     0.9233 H       
  31 H31           -7.5987     3.9402     0.0246 H       
  32 H32           -6.2525     4.9453     0.0086 H       
  33 H33            1.9786    -0.3171    -0.4937 H       
  34 H34            3.4582    -2.0462     0.9037 H       
  35 H35            2.5421    -3.5542     1.1384 H       
  36 H36            2.7991    -2.9152    -0.5029 H       
  37 H37            2.1013     1.0693     1.6107 H       
  38 H38            4.2064     2.3390     1.5857 H       
  39 H39            0.6576     3.4034    -1.6796 H       
  40 H40            4.8332     5.9900    -1.6410 H       
  41 H41            4.9755     4.3435    -2.3352 H       
@<TRIPOS>BOND
   1    1    2 ar
   2    1   18 1
   3    1    6 ar
   4    2    3 ar
   5    2   14 1
   6    3    4 ar
   7    3   27 1
   8    4    5 ar
   9    4    7 1
  10    5    6 ar
  11    5    9 1
  12    6   28 1
  13    7    8 1
  14    7   29 1
  15    7   30 1
  16    8    9 2
  17    8   10 1
  18    9   12 1
  19   10   11 1
  20   11   12 2
  21   11   13 1
  22   13   31 1
  23   13   32 1
  24   14   15 am
  25   14   33 1
  26   15   16 2
  27   15   17 1
  28   17   34 1
  29   17   35 1
  30   17   36 1
  31   18   19 ar
  32   18   23 ar
  33   19   20 ar
  34   19   37 1
  35   20   21 ar
  36   20   38 1
  37   21   22 ar
  38   21   24 1
  39   22   23 ar
  40   22   26 1
  41   23   39 1
  42   24   25 1
  43   25   26 1
  44   25   40 1
  45   25   41 1

#	End of record

