#	Name: ASD01816707
#	Creating user name:	WinNT
#	Creation time:	15. 06. 2019 19:35

#	Modifying user name:	WinNT
#	Modification time:	15. 06. 2019 19:35

#	Program:	/corina/corina34_cracker 3.40 0067  02.08.2006

@<TRIPOS>MOLECULE
ASD01816707
  70   74    0    0    0
SMALL
NO_CHARGES


@<TRIPOS>ATOM
   1 C1            -0.0220     1.3784    -0.0508 C.2     
   2 C2            -0.0026    -0.0227    -0.0778 C.2     
   3 C3             1.1940    -0.6774    -0.0976 C.2     
   4 C4             2.3872     0.0644    -0.0907 C.2     
   5 N5             2.3387     1.4318    -0.0638 N.am    
   6 C6             1.1367     2.0752    -0.0446 C.2     
   7 C7             3.6182    -0.6055    -0.1109 C.2     
   8 C8             4.7830     0.1064    -0.1044 C.2     
   9 C9             4.7289     1.5115    -0.0773 C.2     
  10 C10            3.4760     2.1560    -0.0571 C.2     
  11 C11            3.6559    -2.1117    -0.1394 C.3     
  12 O12            3.4201     3.3740    -0.0335 O.2     
  13 C13            5.9658     2.2991    -0.0692 C.2     
  14 N14            7.1593     1.6787     0.0160 N.am    
  15 O15            5.9147     3.5132    -0.1394 O.2     
  16 N16            3.7802    -2.5723    -1.5287 N.3     
  17 C17            4.0574    -4.0134    -1.5827 C.3     
  18 C18            4.3241    -4.4290    -3.0312 C.3     
  19 C19            3.0996    -4.0935    -3.8870 C.3     
  20 C20            2.8034    -2.5954    -3.7750 C.3     
  21 C21            2.5808    -2.2329    -2.3050 C.3     
  22 C22            3.3788    -4.4455    -5.3255 C.ar    
  23 N23            4.6186    -4.6739    -5.7116 N.ar    
  24 C24            1.9389    -4.8616    -3.4077 C.1     
  25 N25            1.0432    -5.4543    -3.0378 N.1     
  26 C26            4.9102    -4.9850    -6.9597 C.ar    
  27 C27            3.9161    -5.0825    -7.9145 C.ar    
  28 C28            2.5998    -4.8492    -7.5459 C.ar    
  29 C29            2.3315    -4.5306    -6.2236 C.ar    
  30 C30            8.3974     2.4550    -0.0873 C.3     
  31 C31            9.5266     1.7115     0.6298 C.3     
  32 C32           10.8112     2.5423     0.5496 C.3     
  33 N33           11.0897     2.8475    -0.8604 N.am    
  34 C34           10.0378     3.4809    -1.6672 C.3     
  35 C35            8.7619     2.6396    -1.5621 C.3     
  36 C36           12.2875     2.5524    -1.4032 C.2     
  37 O37           12.4725     2.7174    -2.5904 O.2     
  38 C38           13.3970     2.0174    -0.5350 C.3     
  39 H39           -0.9658     1.9034    -0.0395 H       
  40 H40           -0.9278    -0.5798    -0.0824 H       
  41 H41            1.2239    -1.7568    -0.1181 H       
  42 H42            1.1098     3.1547    -0.0235 H       
  43 H43            5.7350    -0.4035    -0.1195 H       
  44 H44            4.5102    -2.4648     0.4383 H       
  45 H45            2.7367    -2.5064     0.2934 H       
  46 H46            7.1984     0.7182     0.1457 H       
  47 H47            4.9328    -4.2379    -0.9733 H       
  48 H48            3.1977    -4.5631    -1.1995 H       
  49 H49            5.1921    -3.8898    -3.4106 H       
  50 H50            4.5144    -5.5015    -3.0729 H       
  51 H51            3.6474    -2.0273    -4.1661 H       
  52 H52            1.9072    -2.3578    -4.3482 H       
  53 H53            1.7280    -2.7910    -1.9184 H       
  54 H54            2.3837    -1.1642    -2.2203 H       
  55 H55            5.9378    -5.1652    -7.2387 H       
  56 H56            4.1613    -5.3369    -8.9351 H       
  57 H57            1.8022    -4.9179    -8.2708 H       
  58 H58            1.3180    -4.3429    -5.9012 H       
  59 H59            8.2537     3.4311     0.3760 H       
  60 H60            9.2562     1.5597     1.6748 H       
  61 H61            9.6876     0.7455     0.1512 H       
  62 H62           10.6812     3.4707     1.1057 H       
  63 H63           11.6405     1.9744     0.9713 H       
  64 H64            9.8448     4.4859    -1.2919 H       
  65 H65           10.3569     3.5324    -2.7082 H       
  66 H66            8.9301     1.6649    -2.0201 H       
  67 H67            7.9472     3.1485    -2.0773 H       
  68 H68           13.3964     0.9281    -0.5747 H       
  69 H69           14.3543     2.3936    -0.8958 H       
  70 H70           13.2429     2.3435     0.4936 H       
@<TRIPOS>BOND
   1    1    2 1
   2    1    6 2
   3    1   39 1
   4    2    3 2
   5    2   40 1
   6    3    4 1
   7    3   41 1
   8    4    5 1
   9    4    7 2
  10    5    6 1
  11    5   10 am
  12    6   42 1
  13    7    8 1
  14    7   11 1
  15    8    9 2
  16    8   43 1
  17    9   10 1
  18    9   13 1
  19   10   12 2
  20   11   16 1
  21   11   44 1
  22   11   45 1
  23   13   14 am
  24   13   15 2
  25   14   30 1
  26   14   46 1
  27   16   17 1
  28   16   21 1
  29   17   18 1
  30   17   47 1
  31   17   48 1
  32   18   19 1
  33   18   49 1
  34   18   50 1
  35   19   20 1
  36   19   22 1
  37   19   24 1
  38   20   21 1
  39   20   51 1
  40   20   52 1
  41   21   53 1
  42   21   54 1
  43   22   23 ar
  44   22   29 ar
  45   23   26 ar
  46   24   25 3
  47   26   27 ar
  48   26   55 1
  49   27   28 ar
  50   27   56 1
  51   28   29 ar
  52   28   57 1
  53   29   58 1
  54   30   31 1
  55   30   35 1
  56   30   59 1
  57   31   32 1
  58   31   60 1
  59   31   61 1
  60   32   33 1
  61   32   62 1
  62   32   63 1
  63   33   34 1
  64   33   36 am
  65   34   35 1
  66   34   64 1
  67   34   65 1
  68   35   66 1
  69   35   67 1
  70   36   37 2
  71   36   38 1
  72   38   68 1
  73   38   69 1
  74   38   70 1

#	End of record

