#	Name: ASD01208629
#	Creating user name:	WinNT
#	Creation time:	15. 06. 2019 19:10

#	Modifying user name:	WinNT
#	Modification time:	15. 06. 2019 19:10

#	Program:	/corina/corina34_cracker 3.40 0067  02.08.2006

@<TRIPOS>MOLECULE
ASD01208629
  16   16    0    0    0
SMALL
NO_CHARGES


@<TRIPOS>ATOM
   1 C1            -0.0167     1.3835     0.0096 C.ar    
   2 C2             0.0021    -0.0041     0.0020 C.ar    
   3 C3             1.2369    -0.6381    -0.0132 C.ar    
   4 C4             2.3748     0.1540    -0.0198 C.ar    
   5 N5             2.2608     1.4680    -0.0116 N.ar    
   6 N6             1.1197     2.0555     0.0024 N.ar    
   7 S7             3.9704    -0.5934    -0.0385 S.o2    
   8 O8             4.8181     0.3751     0.5638 O.2     
   9 O9             3.7687    -1.8652     0.5623 O.2     
  10 C10            4.3639    -0.7765    -1.7998 C.3     
  11 Cl11          -1.5304     2.2334     0.0214 Cl      
  12 H12           -0.9158    -0.5732     0.0081 H       
  13 H13            1.3091    -1.7157    -0.0193 H       
  14 H14            4.3684     0.2045    -2.2749 H       
  15 H15            5.3462    -1.2365    -1.9067 H       
  16 H16            3.6134    -1.4074    -2.2760 H       
@<TRIPOS>BOND
   1    1    2 ar
   2    1    6 ar
   3    1   11 1
   4    2    3 ar
   5    2   12 1
   6    3    4 ar
   7    3   13 1
   8    4    5 ar
   9    4    7 1
  10    5    6 ar
  11    7    8 2
  12    7    9 2
  13    7   10 1
  14   10   14 1
  15   10   15 1
  16   10   16 1

#	End of record

