#	Name: ASD08070437
#	Creating user name:	WinNT
#	Creation time:	15. 06. 2019 21:14

#	Modifying user name:	WinNT
#	Modification time:	15. 06. 2019 21:14

#	Program:	/corina/corina34_cracker 3.40 0067  02.08.2006

@<TRIPOS>MOLECULE
ASD08070437
  40   41    0    0    0
SMALL
NO_CHARGES


@<TRIPOS>ATOM
   1 C1            -0.0179     1.4712     0.0101 C.2     
   2 C2             0.0021    -0.0041     0.0020 C.ar    
   3 C3             1.2220    -0.6911    -0.0133 C.ar    
   4 C4             1.2286    -2.0824    -0.0204 C.ar    
   5 C5             0.0326    -2.7803    -0.0122 C.ar    
   6 C6            -1.1739    -2.1005     0.0025 C.ar    
   7 C7            -1.1965    -0.7228     0.0155 C.ar    
   8 O8             1.0267     2.0935     0.0035 O.2     
   9 N9            -1.1942     2.1292     0.0193 N.am    
  10 C10           -1.2140     3.5940     0.0273 C.3     
  11 C11           -2.5310     4.0895    -0.5734 C.3     
  12 C12           -2.5518     5.6194    -0.5649 C.3     
  13 C13           -2.4262     6.1232     0.8742 C.3     
  14 C14           -1.1092     5.6277     1.4749 C.3     
  15 C15           -1.0884     4.0979     1.4665 C.3     
  16 C16           -2.4470     7.6530     0.8827 C.3     
  17 O17            2.4095    -2.7569    -0.0357 O.3     
  18 C18            2.3413    -4.1842    -0.0422 C.3     
  19 O19            2.3922    -0.0033    -0.0217 O.3     
  20 H20            0.0407    -3.8603    -0.0177 H       
  21 H21           -2.1019    -2.6530     0.0084 H       
  22 H22           -2.1405    -0.1983     0.0314 H       
  23 H23           -2.0275     1.6328     0.0205 H       
  24 H24           -0.3800     3.9720    -0.5640 H       
  25 H25           -2.6205     3.7306    -1.5987 H       
  26 H26           -3.3650     3.7116     0.0180 H       
  27 H27           -1.7178     5.9973    -1.1563 H       
  28 H28           -3.4901     5.9724    -0.9929 H       
  29 H29           -3.2602     5.7453     1.4656 H       
  30 H30           -0.2752     6.0057     0.8836 H       
  31 H31           -1.0197     5.9867     2.5002 H       
  32 H32           -1.9224     3.7199     2.0579 H       
  33 H33           -0.1501     3.7449     1.8945 H       
  34 H34           -3.3852     8.0060     0.4547 H       
  35 H35           -2.3575     8.0120     1.9080 H       
  36 H36           -1.6130     8.0310     0.2913 H       
  37 H37            3.3504    -4.5961    -0.0545 H       
  38 H38            1.8198    -4.5271     0.8514 H       
  39 H39            1.8018    -4.5182    -0.9284 H       
  40 H40            2.7401     0.1919     0.8592 H       
@<TRIPOS>BOND
   1    1    2 1
   2    1    8 2
   3    1    9 am
   4    2    3 ar
   5    2    7 ar
   6    3    4 ar
   7    3   19 1
   8    4    5 ar
   9    4   17 1
  10    5    6 ar
  11    5   20 1
  12    6    7 ar
  13    6   21 1
  14    7   22 1
  15    9   10 1
  16    9   23 1
  17   10   11 1
  18   10   15 1
  19   10   24 1
  20   11   12 1
  21   11   25 1
  22   11   26 1
  23   12   13 1
  24   12   27 1
  25   12   28 1
  26   13   14 1
  27   13   16 1
  28   13   29 1
  29   14   15 1
  30   14   30 1
  31   14   31 1
  32   15   32 1
  33   15   33 1
  34   16   34 1
  35   16   35 1
  36   16   36 1
  37   17   18 1
  38   18   37 1
  39   18   38 1
  40   18   39 1
  41   19   40 1

#	End of record

