#	Name: ASD03331569
#	Creating user name:	WinNT
#	Creation time:	15. 06. 2019 20:39

#	Modifying user name:	WinNT
#	Modification time:	15. 06. 2019 20:39

#	Program:	/corina/corina34_cracker 3.40 0067  02.08.2006

@<TRIPOS>MOLECULE
ASD03331569
  46   48    0    0    0
SMALL
NO_CHARGES


@<TRIPOS>ATOM
   1 C1            -0.0168     1.3909     0.0097 C.ar    
   2 C2             0.0021    -0.0041     0.0062 C.ar    
   3 C3             1.2526     2.1502     0.0016 C.2     
   4 N4             1.3970     3.4546    -0.3719 N.pl3   
   5 C5             2.7189     3.7628    -0.2595 C.2     
   6 C6             3.3532     2.6541     0.2068 C.2     
   7 N7             2.4260     1.6826     0.3580 N.2     
   8 C8             4.7924     2.5350     0.4999 C.2     
   9 O9             5.5291     3.4871     0.3267 O.2     
  10 N10            5.2923     1.3710     0.9600 N.am    
  11 C11            6.7231     1.2526     1.2514 C.3     
  12 C12            7.1110     2.2715     2.3249 C.3     
  13 C13           -1.1864    -0.7080     0.0132 C.ar    
  14 C14           -2.3966    -0.0290     0.0238 C.ar    
  15 C15           -2.4187     1.3562     0.0269 C.ar    
  16 C16           -1.2371     2.0677     0.0150 C.ar    
  17 C17            0.3383     4.3744    -0.7951 C.3     
  18 C18            0.9333     5.4426    -1.7160 C.3     
  19 O19            1.4203     6.5382    -0.9391 O.3     
  20 C20            2.4603     6.2072    -0.0232 C.3     
  21 C21            3.3274     5.0928    -0.6181 C.3     
  22 C22            7.0256    -0.1598     1.7558 C.3     
  23 C23            7.5270     1.5225    -0.0221 C.3     
  24 F24           -3.5569    -0.7210     0.0307 F       
  25 F25           -1.1705    -2.0589     0.0094 F       
  26 H26            0.9440    -0.5325    -0.0024 H       
  27 H27            4.7047     0.6117     1.0981 H       
  28 H28            6.5382     2.0792     3.2322 H       
  29 H29            8.1755     2.1833     2.5418 H       
  30 H30            6.8954     3.2777     1.9656 H       
  31 H31           -3.3631     1.8800     0.0344 H       
  32 H32           -1.2564     3.1475     0.0178 H       
  33 H33           -0.4322     3.8202    -1.3312 H       
  34 H34           -0.0999     4.8525     0.0810 H       
  35 H35            1.7547     5.0109    -2.2879 H       
  36 H36            0.1643     5.7985    -2.4017 H       
  37 H37            3.0760     7.0875     0.1614 H       
  38 H38            2.0232     5.8659     0.9152 H       
  39 H39            4.3355     5.1559    -0.2084 H       
  40 H40            3.3640     5.1975    -1.7025 H       
  41 H41            6.7493    -0.8857     0.9910 H       
  42 H42            8.0902    -0.2480     1.9726 H       
  43 H43            6.4529    -0.3521     2.6631 H       
  44 H44            7.3115     2.5287    -0.3814 H       
  45 H45            8.5916     1.4344     0.1948 H       
  46 H46            7.2507     0.7966    -0.7868 H       
@<TRIPOS>BOND
   1    1    2 ar
   2    1    3 1
   3    1   16 ar
   4    2   13 ar
   5    2   26 1
   6    3    4 1
   7    3    7 2
   8    4    5 1
   9    4   17 1
  10    5    6 2
  11    5   21 1
  12    6    7 1
  13    6    8 1
  14    8    9 2
  15    8   10 am
  16   10   11 1
  17   10   27 1
  18   11   12 1
  19   11   22 1
  20   11   23 1
  21   12   28 1
  22   12   29 1
  23   12   30 1
  24   13   14 ar
  25   13   25 1
  26   14   15 ar
  27   14   24 1
  28   15   16 ar
  29   15   31 1
  30   16   32 1
  31   17   18 1
  32   17   33 1
  33   17   34 1
  34   18   19 1
  35   18   35 1
  36   18   36 1
  37   19   20 1
  38   20   21 1
  39   20   37 1
  40   20   38 1
  41   21   39 1
  42   21   40 1
  43   22   41 1
  44   22   42 1
  45   22   43 1
  46   23   44 1
  47   23   45 1
  48   23   46 1

#	End of record

