#	Name: ASD01918402
#	Creating user name:	WinNT
#	Creation time:	15. 06. 2019 20:11

#	Modifying user name:	WinNT
#	Modification time:	15. 06. 2019 20:11

#	Program:	/corina/corina34_cracker 3.40 0067  02.08.2006

@<TRIPOS>MOLECULE
ASD01918402
  55   59    0    0    0
SMALL
NO_CHARGES


@<TRIPOS>ATOM
   1 C1            -0.2786     1.8098     0.4484 C.3     
   2 C2            -0.3041     0.3078     0.3291 C.2     
   3 C3            -0.4290    -0.4001    -0.8088 C.2     
   4 N4            -0.4069    -1.7020    -0.4881 N.2     
   5 C5            -0.2719    -1.8113     0.8145 C.2     
   6 O6            -0.2003    -0.5759     1.3416 O.3     
   7 C7            -0.2042    -3.0727     1.5686 C.2     
   8 C8            -0.0731    -3.0007     2.8752 C.2     
   9 C9             0.0268    -4.2090     3.7643 C.3     
  10 N10           -0.3097    -5.4096     2.9859 N.am    
  11 C11            0.2561    -5.5178     1.6302 C.3     
  12 C12           -0.2953    -4.3557     0.7970 C.3     
  13 C13           -1.1040    -6.3734     3.4926 C.2     
  14 O14           -1.3661    -7.3542     2.8292 O.2     
  15 C15           -1.6664    -6.2323     4.8836 C.3     
  16 N16           -2.4910    -7.4017     5.1979 N.pl3   
  17 N17           -3.8564    -7.5684     4.9154 N.2     
  18 C18           -4.1979    -8.7569     5.3645 C.2     
  19 N19           -3.1248    -9.3400     5.9102 N.2     
  20 C20           -2.0860    -8.5374     5.8127 C.2     
  21 C21           -0.7167    -8.8251     6.2935 C.ar    
  22 C22           -0.5058    -9.8140     7.2549 C.ar    
  23 C23            0.7726   -10.0787     7.6996 C.ar    
  24 C24            1.8467    -9.3641     7.1933 C.ar    
  25 F25            3.0971    -9.6268     7.6324 F       
  26 C26            1.6426    -8.3811     6.2379 C.ar    
  27 C27            0.3687    -8.1125     5.7829 C.ar    
  28 C28           -5.5541    -9.3535     5.2802 C.ar    
  29 C29           -6.5932    -8.6446     4.6808 C.ar    
  30 C30           -7.8525    -9.2033     4.6041 C.ar    
  31 C31           -8.0845   -10.4672     5.1220 C.ar    
  32 F32           -9.3189   -11.0108     5.0444 F       
  33 C33           -7.0541   -11.1755     5.7188 C.ar    
  34 C34           -5.7906   -10.6265     5.7950 C.ar    
  35 H35            0.7490     2.1635     0.3650 H       
  36 H36           -0.8795     2.2478    -0.3486 H       
  37 H37           -0.6870     2.1045     1.4151 H       
  38 H38           -0.5296     0.0080    -1.8037 H       
  39 H39           -0.0348    -2.0233     3.3330 H       
  40 H40            1.0435    -4.2964     4.1474 H       
  41 H41           -0.6697    -4.1074     4.5966 H       
  42 H42            1.3434    -5.4576     1.6788 H       
  43 H43           -0.0414    -6.4653     1.1812 H       
  44 H44           -1.3375    -4.5512     0.5443 H       
  45 H45            0.2847    -4.2660    -0.1215 H       
  46 H46           -0.8486    -6.1610     5.6007 H       
  47 H47           -2.2776    -5.3314     4.9388 H       
  48 H48           -1.3423   -10.3710     7.6506 H       
  49 H49            0.9369   -10.8439     8.4437 H       
  50 H50            2.4829    -7.8270     5.8465 H       
  51 H51            0.2111    -7.3491     5.0353 H       
  52 H52           -6.4133    -7.6592     4.2772 H       
  53 H53           -8.6586    -8.6544     4.1400 H       
  54 H54           -7.2393   -12.1605     6.1213 H       
  55 H55           -4.9870   -11.1810     6.2568 H       
@<TRIPOS>BOND
   1    1    2 1
   2    1   35 1
   3    1   36 1
   4    1   37 1
   5    2    6 1
   6    2    3 2
   7    3    4 1
   8    3   38 1
   9    4    5 2
  10    5    6 1
  11    5    7 1
  12    7   12 1
  13    7    8 2
  14    8    9 1
  15    8   39 1
  16    9   10 1
  17    9   40 1
  18    9   41 1
  19   10   11 1
  20   10   13 am
  21   11   12 1
  22   11   42 1
  23   11   43 1
  24   12   44 1
  25   12   45 1
  26   13   14 2
  27   13   15 1
  28   15   16 1
  29   15   46 1
  30   15   47 1
  31   16   20 1
  32   16   17 1
  33   17   18 2
  34   18   19 1
  35   18   28 1
  36   19   20 2
  37   20   21 1
  38   21   27 ar
  39   21   22 ar
  40   22   23 ar
  41   22   48 1
  42   23   24 ar
  43   23   49 1
  44   24   25 1
  45   24   26 ar
  46   26   27 ar
  47   26   50 1
  48   27   51 1
  49   28   34 ar
  50   28   29 ar
  51   29   30 ar
  52   29   52 1
  53   30   31 ar
  54   30   53 1
  55   31   32 1
  56   31   33 ar
  57   33   34 ar
  58   33   54 1
  59   34   55 1

#	End of record

