#	Name: ASD03332002
#	Creating user name:	WinNT
#	Creation time:	15. 06. 2019 20:40

#	Modifying user name:	WinNT
#	Modification time:	15. 06. 2019 20:40

#	Program:	/corina/corina34_cracker 3.40 0067  02.08.2006

@<TRIPOS>MOLECULE
ASD03332002
  60   62    0    0    0
SMALL
NO_CHARGES


@<TRIPOS>ATOM
   1 C1            -0.1342     1.6206     1.4884 C.2     
   2 N2            -0.1614     0.3033     1.8283 N.pl3   
   3 C3             1.1097    -0.1778     1.7133 C.2     
   4 N4             1.8971     0.8026     1.3371 N.2     
   5 C5             1.1570     1.9318     1.1919 C.2     
   6 C6             1.6612     3.2554     0.7864 C.2     
   7 O7             0.8947     4.1950     0.6910 O.2     
   8 N8             2.9716     3.4251     0.5212 N.am    
   9 C9             3.4729     4.7412     0.1179 C.3     
  10 C10            3.2953     4.9140    -1.3919 C.3     
  11 C11            4.0069     3.7738    -2.1229 C.3     
  12 C12            4.9347     4.8507     0.4675 C.2     
  13 C13            1.8048     4.8889    -1.7362 C.3     
  14 C14            3.8966     6.2522    -1.8263 C.3     
  15 O15            5.5658     3.8555     0.7543 O.2     
  16 N16            5.5408     6.0545     0.4614 N.am    
  17 C17            6.9782     6.1523     0.7267 C.3     
  18 C18           -1.3505    -0.4397     2.2552 C.3     
  19 C19           -2.5042    -0.1356     1.2944 C.3     
  20 C20           -3.2524     1.1079     1.7635 C.3     
  21 N21           -2.3406     2.0663     2.3911 N.3     
  22 C22           -1.3259     2.5414     1.4388 C.3     
  23 C23           -3.0813     3.1919     2.9764 C.3     
  24 C24            1.5311    -1.5725     1.9706 C.2     
  25 C25            2.6843    -2.1623     1.5343 C.2     
  26 C26            0.8191    -2.5350     2.7163 C.2     
  27 N27            1.5135    -3.6412     2.7173 N.2     
  28 N28            2.6868    -3.4323     1.9827 N.pl3   
  29 C29            3.7371    -4.4251     1.7424 C.3     
  30 H30            3.5829     2.6757     0.5973 H       
  31 H31            2.9152     5.5183     0.6407 H       
  32 H32            3.5786     2.8205    -1.8134 H       
  33 H33            3.8804     3.8969    -3.1985 H       
  34 H34            5.0688     3.7917    -1.8776 H       
  35 H35            1.2978     5.7012    -1.2154 H       
  36 H36            1.6782     5.0119    -2.8118 H       
  37 H37            1.3764     3.9355    -1.4267 H       
  38 H38            4.9285     6.3160    -1.4811 H       
  39 H39            3.8719     6.3257    -2.9135 H       
  40 H40            3.3176     7.0682    -1.3937 H       
  41 H41            5.0252     6.8562     0.2814 H       
  42 H42            7.1925     5.7546     1.7187 H       
  43 H43            7.5255     5.5782    -0.0209 H       
  44 H44            7.2862     7.1968     0.6797 H       
  45 H45           -1.1368    -1.5085     2.2413 H       
  46 H46           -1.6272    -0.1356     3.2647 H       
  47 H47           -2.1069     0.0362     0.2940 H       
  48 H48           -3.1890    -0.9833     1.2707 H       
  49 H49           -3.7334     1.5802     0.9069 H       
  50 H50           -4.0156     0.8154     2.4846 H       
  51 H51           -1.0176     3.5515     1.7086 H       
  52 H52           -1.7435     2.5432     0.4320 H       
  53 H53           -3.7711     2.8186     3.7333 H       
  54 H54           -2.3801     3.8886     3.4359 H       
  55 H55           -3.6421     3.7037     2.1944 H       
  56 H56            3.4536    -1.6949     0.9376 H       
  57 H57           -0.1336    -2.3836     3.2019 H       
  58 H58            3.5154    -4.9743     0.8274 H       
  59 H59            4.6976    -3.9202     1.6396 H       
  60 H60            3.7796    -5.1193     2.5817 H       
@<TRIPOS>BOND
   1    1    2 1
   2    1    5 2
   3    1   22 1
   4    2    3 1
   5    2   18 1
   6    3    4 2
   7    3   24 1
   8    4    5 1
   9    5    6 1
  10    6    7 2
  11    6    8 am
  12    8    9 1
  13    8   30 1
  14    9   10 1
  15    9   12 1
  16    9   31 1
  17   10   11 1
  18   10   13 1
  19   10   14 1
  20   11   32 1
  21   11   33 1
  22   11   34 1
  23   12   15 2
  24   12   16 am
  25   13   35 1
  26   13   36 1
  27   13   37 1
  28   14   38 1
  29   14   39 1
  30   14   40 1
  31   16   17 1
  32   16   41 1
  33   17   42 1
  34   17   43 1
  35   17   44 1
  36   18   19 1
  37   18   45 1
  38   18   46 1
  39   19   20 1
  40   19   47 1
  41   19   48 1
  42   20   21 1
  43   20   49 1
  44   20   50 1
  45   21   22 1
  46   21   23 1
  47   22   51 1
  48   22   52 1
  49   23   53 1
  50   23   54 1
  51   23   55 1
  52   24   26 1
  53   24   25 2
  54   25   28 1
  55   25   56 1
  56   26   27 2
  57   26   57 1
  58   27   28 1
  59   28   29 1
  60   29   58 1
  61   29   59 1
  62   29   60 1

#	End of record

