#	Name: ASD02039251
#	Creating user name:	WinNT
#	Creation time:	15. 06. 2019 20:17

#	Modifying user name:	WinNT
#	Modification time:	15. 06. 2019 20:17

#	Program:	/corina/corina34_cracker 3.40 0067  02.08.2006

@<TRIPOS>MOLECULE
ASD02039251
  43   46    0    0    0
SMALL
NO_CHARGES


@<TRIPOS>ATOM
   1 N1            -0.0164     1.3038    -0.0296 N.2     
   2 C2             0.0018    -0.0038    -0.0021 C.2     
   3 C3             1.3717    -0.3807     0.0153 C.2     
   4 C4             2.0344     0.7977    -0.0047 C.2     
   5 O5             1.1027     1.7617    -0.0314 O.3     
   6 N6            -1.0994    -0.8549     0.0084 N.pl3   
   7 C7            -0.9164    -2.2357    -0.1058 C.ar    
   8 C8            -1.7562    -3.1079     0.5752 C.ar    
   9 C9            -1.5729    -4.4718     0.4598 C.ar    
  10 C10           -0.5545    -4.9696    -0.3323 C.ar    
  11 C11            0.2836    -4.1042    -1.0112 C.ar    
  12 C12            0.1020    -2.7393    -0.9051 C.ar    
  13 O13            4.0119     1.0223    -1.3419 O.3     
  14 C14            5.3500     1.1907    -1.5134 C.ar    
  15 C15            6.1798     1.3223    -0.4028 C.ar    
  16 C16            7.5380     1.4931    -0.5574 C.ar    
  17 C17            8.0921     1.5356    -1.8322 C.ar    
  18 C18            7.2570     1.4030    -2.9577 C.ar    
  19 C19            5.8804     1.2247    -2.7877 C.ar    
  20 C20            3.5291     0.9902     0.0027 C.3     
  21 C21           -0.3572    -6.4586    -0.4554 C.3     
  22 N22            9.4503     1.7070    -2.0081 N.am    
  23 C23            9.9883     1.7493    -3.2395 C.2     
  24 C24            9.1946     1.6217    -4.3994 C.2     
  25 C25            7.8537     1.4505    -4.2939 C.2     
  26 O26           11.1919     1.9021    -3.3570 O.2     
  27 F27           -0.7725    -7.0832     0.7254 F       
  28 F28           -1.1127    -6.9418    -1.5292 F       
  29 F29            0.9966    -6.7329    -0.6769 F       
  30 H30            1.7872    -1.3773     0.0396 H       
  31 H31           -1.9938    -0.4897     0.0950 H       
  32 H32           -2.5513    -2.7198     1.1945 H       
  33 H33           -2.2255    -5.1504     0.9890 H       
  34 H34            1.0782    -4.4962    -1.6287 H       
  35 H35            0.7567    -2.0639    -1.4359 H       
  36 H36            5.7544     1.2903     0.5894 H       
  37 H37            8.1721     1.5945     0.3110 H       
  38 H38            5.2353     1.1221    -3.6478 H       
  39 H39            3.7719     1.9300     0.4985 H       
  40 H40            3.9991     0.1651     0.5378 H       
  41 H41           10.0250     1.7986    -1.2321 H       
  42 H42            9.6570     1.6602    -5.3746 H       
  43 H43            7.2390     1.3513    -5.1764 H       
@<TRIPOS>BOND
   1    1    2 2
   2    1    5 1
   3    2    3 1
   4    2    6 1
   5    3    4 2
   6    3   30 1
   7    4    5 1
   8    4   20 1
   9    6    7 1
  10    6   31 1
  11    7    8 ar
  12    7   12 ar
  13    8    9 ar
  14    8   32 1
  15    9   10 ar
  16    9   33 1
  17   10   11 ar
  18   10   21 1
  19   11   12 ar
  20   11   34 1
  21   12   35 1
  22   13   14 1
  23   13   20 1
  24   14   15 ar
  25   14   19 ar
  26   15   16 ar
  27   15   36 1
  28   16   17 ar
  29   16   37 1
  30   17   18 ar
  31   17   22 1
  32   18   19 ar
  33   18   25 1
  34   19   38 1
  35   20   39 1
  36   20   40 1
  37   21   28 1
  38   21   29 1
  39   21   27 1
  40   22   23 am
  41   22   41 1
  42   23   24 1
  43   23   26 2
  44   24   25 2
  45   24   42 1
  46   25   43 1

#	End of record

