#	Name: ASD01913828
#	Creating user name:	WinNT
#	Creation time:	15. 06. 2019 20:02

#	Modifying user name:	WinNT
#	Modification time:	15. 06. 2019 20:02

#	Program:	/corina/corina34_cracker 3.40 0067  02.08.2006

@<TRIPOS>MOLECULE
ASD01913828
  42   44    0    0    0
SMALL
NO_CHARGES


@<TRIPOS>ATOM
   1 C1            -0.0235     1.4277    -0.0311 C.ar    
   2 C2            -0.0023    -0.0041    -0.0268 C.1     
   3 C3             0.0150    -1.1780    -0.0232 C.1     
   4 C4             0.0362    -2.6098    -0.0189 C.ar    
   5 C5            -1.1340    -3.3385     0.2417 C.ar    
   6 C6             0.1560    -5.3344    -0.0290 C.ar    
   7 N7             1.2426    -4.6187    -0.2772 N.ar    
   8 C8             1.2207    -3.3021    -0.2797 C.ar    
   9 C9            -1.0632    -4.7171     0.2343 C.ar    
  10 N10            0.2331    -6.7250    -0.0390 N.am    
  11 C11           -0.8140    -7.5604    -0.0348 C.2     
  12 N12           -0.4748    -8.8561    -0.0465 N.am    
  13 C13            0.9911    -8.9717    -0.0609 C.3     
  14 C14            1.4768    -7.5092    -0.0621 C.3     
  15 O15           -1.9677    -7.1772    -0.0211 O.2     
  16 C16           -1.4149    -9.9797    -0.0452 C.3     
  17 C17            1.4842    -9.7058     1.1877 C.3     
  18 C18            1.4608    -9.6892    -1.3280 C.3     
  19 C19            1.1461     2.1461    -0.2915 C.ar    
  20 C20            1.1177     3.5264    -0.2944 C.ar    
  21 C21           -0.0662     4.1980    -0.0396 C.ar    
  22 C22           -1.2280     3.4920     0.2190 C.ar    
  23 C23           -1.2156     2.1130     0.2194 C.ar    
  24 Cl24           2.5694     4.4219    -0.6175 Cl      
  25 H25           -2.0671    -2.8334     0.4434 H       
  26 H26            2.1273    -2.7524    -0.4858 H       
  27 H27           -1.9441    -5.3101     0.4311 H       
  28 H28            2.0523    -7.2980    -0.9634 H       
  29 H29            2.0696    -7.3022     0.8289 H       
  30 H30           -2.4362    -9.5989    -0.0336 H       
  31 H31           -1.2620   -10.5824    -0.9404 H       
  32 H32           -1.2461   -10.5937     0.8394 H       
  33 H33            1.0714   -10.7145     1.2028 H       
  34 H34            2.5728    -9.7589     1.1718 H       
  35 H35            1.1596    -9.1670     2.0779 H       
  36 H36            1.1198    -9.1387    -2.2048 H       
  37 H37            2.5495    -9.7423    -1.3330 H       
  38 H38            1.0477   -10.6977    -1.3488 H       
  39 H39            2.0700     1.6231    -0.4895 H       
  40 H40           -0.0828     5.2778    -0.0424 H       
  41 H41           -2.1476     4.0224     0.4172 H       
  42 H42           -2.1233     1.5638     0.4215 H       
@<TRIPOS>BOND
   1    1    2 1
   2    1   19 ar
   3    1   23 ar
   4    2    3 3
   5    3    4 1
   6    4    5 ar
   7    4    8 ar
   8    5    9 ar
   9    5   25 1
  10    6    7 ar
  11    6   10 1
  12    6    9 ar
  13    7    8 ar
  14    8   26 1
  15    9   27 1
  16   10   11 am
  17   10   14 1
  18   11   12 am
  19   11   15 2
  20   12   13 1
  21   12   16 1
  22   13   14 1
  23   13   17 1
  24   13   18 1
  25   14   28 1
  26   14   29 1
  27   16   30 1
  28   16   31 1
  29   16   32 1
  30   17   33 1
  31   17   34 1
  32   17   35 1
  33   18   36 1
  34   18   37 1
  35   18   38 1
  36   19   20 ar
  37   19   39 1
  38   20   21 ar
  39   20   24 1
  40   21   22 ar
  41   21   40 1
  42   22   23 ar
  43   22   41 1
  44   23   42 1

#	End of record

