#	Name: ASD01901395
#	Creating user name:	WinNT
#	Creation time:	15. 06. 2019 19:53

#	Modifying user name:	WinNT
#	Modification time:	15. 06. 2019 19:53

#	Program:	/corina/corina34_cracker 3.40 0067  02.08.2006

@<TRIPOS>MOLECULE
ASD01901395
  38   41    0    0    0
SMALL
NO_CHARGES


@<TRIPOS>ATOM
   1 C1            -0.0168     1.3878     0.0097 C.ar    
   2 N2             1.1076     2.0753     0.0026 N.ar    
   3 C3             2.2886     1.4792    -0.0119 C.ar    
   4 C4             2.3882     0.0933    -0.0203 C.ar    
   5 C5             1.2336    -0.6665    -0.0133 C.ar    
   6 C6             0.0021    -0.0041     0.0020 C.ar    
   7 C7            -1.2668    -0.7742     0.0105 C.2     
   8 N8            -2.7252    -2.2647     1.1177 N.2     
   9 C9            -1.6037    -1.5866     1.1149 C.2     
  10 C10           -2.1281    -0.7024    -1.0482 C.2     
  11 N11           -3.2853    -1.4228    -1.0082 N.pl3   
  12 C12           -3.5738    -2.2048     0.0804 C.2     
  13 C13           -4.3242    -1.5569    -1.8893 C.2     
  14 C14           -5.2124    -2.4052    -1.3291 C.2     
  15 N15           -4.7433    -2.7892    -0.1382 N.2     
  16 C16           -6.5152    -2.8467    -1.9446 C.3     
  17 O17           -6.6721    -2.2273    -3.2228 O.3     
  18 C18           -7.8035    -2.5218    -3.9166 C.ar    
  19 C19           -8.7451    -3.3844    -3.3751 C.ar    
  20 C20           -8.0200    -1.9555    -5.1642 C.ar    
  21 C21           -9.1704    -2.2553    -5.8679 C.ar    
  22 C22          -10.1072    -3.1202    -5.3283 C.ar    
  23 C23           -9.8947    -3.6825    -4.0811 C.ar    
  24 F24          -11.2322    -3.4118    -6.0172 F       
  25 O25            3.4179     2.2313    -0.0191 O.3     
  26 H26           -0.9623     1.9095     0.0260 H       
  27 H27            3.3565    -0.3847    -0.0325 H       
  28 H28            1.2814    -1.7454    -0.0200 H       
  29 H29           -0.9347    -1.6498     1.9603 H       
  30 H30           -1.8960    -0.0845    -1.9031 H       
  31 H31           -4.4161    -1.0748    -2.8514 H       
  32 H32           -6.5120    -3.9302    -2.0638 H       
  33 H33           -7.3410    -2.5550    -1.2957 H       
  34 H34           -8.5796    -3.8232    -2.4022 H       
  35 H35           -7.2897    -1.2802    -5.5850 H       
  36 H36           -9.3392    -1.8145    -6.8393 H       
  37 H37          -10.6280    -4.3541    -3.6597 H       
  38 H38            3.7538     2.4449     0.8622 H       
@<TRIPOS>BOND
   1    1    6 ar
   2    1    2 ar
   3    1   26 1
   4    2    3 ar
   5    3    4 ar
   6    3   25 1
   7    4    5 ar
   8    4   27 1
   9    5    6 ar
  10    5   28 1
  11    6    7 1
  12    7   10 2
  13    7    9 1
  14    8    9 2
  15    8   12 1
  16    9   29 1
  17   10   11 1
  18   10   30 1
  19   11   13 1
  20   11   12 1
  21   12   15 2
  22   13   14 2
  23   13   31 1
  24   14   15 1
  25   14   16 1
  26   16   17 1
  27   16   32 1
  28   16   33 1
  29   17   18 1
  30   18   20 ar
  31   18   19 ar
  32   19   23 ar
  33   19   34 1
  34   20   21 ar
  35   20   35 1
  36   21   22 ar
  37   21   36 1
  38   22   23 ar
  39   22   24 1
  40   23   37 1
  41   25   38 1

#	End of record

