#	Name: ASD01870426
#	Creating user name:	WinNT
#	Creation time:	15. 06. 2019 19:39

#	Modifying user name:	WinNT
#	Modification time:	15. 06. 2019 19:39

#	Program:	/corina/corina34_cracker 3.40 0067  02.08.2006

@<TRIPOS>MOLECULE
ASD01870426
  48   51    0    0    0
SMALL
NO_CHARGES


@<TRIPOS>ATOM
   1 N1            -0.0162     1.3436     0.0094 N.am    
   2 C2             0.0021    -0.0041     0.0020 C.2     
   3 C3            -1.2926    -0.7753     0.0102 C.3     
   4 O4             1.0605    -0.5961    -0.0113 O.2     
   5 C5            -1.1041    -2.3031     0.0002 C.3     
   6 N6            -2.1920    -2.3432     0.9966 N.am    
   7 C7            -1.8956    -0.9592     1.4147 C.3     
   8 S8            -3.3003    -3.4832     1.4596 S.o2    
   9 C9            -2.5707    -4.4221     2.7598 C.ar    
  10 C10           -1.4377    -5.2104     2.5124 C.ar    
  11 O11           -4.3876    -2.7742     2.0378 O.2     
  12 O12           -3.4480    -4.3695     0.3587 O.2     
  13 C13           -3.0996    -4.3835     4.0146 C.ar    
  14 C14           -2.5350    -5.1195     5.0549 C.ar    
  15 C15           -1.4379    -5.8996     4.8496 C.ar    
  16 C16           -0.8623    -5.9607     3.5708 C.ar    
  17 C17            1.2357     2.1156     0.0016 C.3     
  18 C18            1.1612     3.1524    -1.1243 C.3     
  19 N19           -0.0610     3.9524    -0.9688 N.3     
  20 C20           -1.2637     3.1194    -1.1013 C.3     
  21 C21           -1.2886     2.0812     0.0194 C.3     
  22 C22           -0.0853     5.0677    -1.9245 C.3     
  23 C23            0.2686    -6.7476     3.2987 C.ar    
  24 N24            0.7713    -6.7731     2.0866 N.ar    
  25 C25            0.2560    -6.0790     1.0810 C.ar    
  26 C26           -0.8413    -5.2885     1.2406 C.ar    
  27 H27           -2.0058    -0.4162    -0.7318 H       
  28 H28           -1.3611    -2.7713    -0.9500 H       
  29 H29           -0.1396    -2.6293     0.3895 H       
  30 H30           -1.1636    -0.8907     2.2195 H       
  31 H31           -2.7845    -0.3544     1.5939 H       
  32 H32           -3.9695    -3.7730     4.2064 H       
  33 H33           -2.9747    -5.0700     6.0401 H       
  34 H34           -1.0113    -6.4639     5.6656 H       
  35 H35            1.3592     2.6225     0.9586 H       
  36 H36            2.0778     1.4458    -0.1725 H       
  37 H37            2.0323     3.8057    -1.0753 H       
  38 H38            1.1421     2.6426    -2.0875 H       
  39 H39           -2.1512     3.7488    -1.0356 H       
  40 H40           -1.2490     2.6100    -2.0648 H       
  41 H41           -2.1158     1.3897    -0.1405 H       
  42 H42           -1.4069     2.5823     0.9801 H       
  43 H43           -0.0510     4.6759    -2.9411 H       
  44 H44           -1.0006     5.6436    -1.7877 H       
  45 H45            0.7778     5.7113    -1.7539 H       
  46 H46            0.7242    -7.3304     4.0856 H       
  47 H47            0.7184    -6.1443     0.1072 H       
  48 H48           -1.2447    -4.7315     0.4079 H       
@<TRIPOS>BOND
   1    1    2 am
   2    1   17 1
   3    1   21 1
   4    2    3 1
   5    2    4 2
   6    3    5 1
   7    3    7 1
   8    3   27 1
   9    5    6 1
  10    5   28 1
  11    5   29 1
  12    6    7 1
  13    6    8 am
  14    7   30 1
  15    7   31 1
  16    8    9 1
  17    8   11 2
  18    8   12 2
  19    9   13 ar
  20    9   10 ar
  21   10   16 ar
  22   10   26 ar
  23   13   14 ar
  24   13   32 1
  25   14   15 ar
  26   14   33 1
  27   15   16 ar
  28   15   34 1
  29   16   23 ar
  30   17   18 1
  31   17   35 1
  32   17   36 1
  33   18   19 1
  34   18   37 1
  35   18   38 1
  36   19   20 1
  37   19   22 1
  38   20   21 1
  39   20   39 1
  40   20   40 1
  41   21   41 1
  42   21   42 1
  43   22   43 1
  44   22   44 1
  45   22   45 1
  46   23   24 ar
  47   23   46 1
  48   24   25 ar
  49   25   26 ar
  50   25   47 1
  51   26   48 1

#	End of record

