#	Name: ASD01910001
#	Creating user name:	WinNT
#	Creation time:	15. 06. 2019 19:55

#	Modifying user name:	WinNT
#	Modification time:	15. 06. 2019 19:55

#	Program:	/corina/corina34_cracker 3.40 0067  02.08.2006

@<TRIPOS>MOLECULE
ASD01910001
  28   29    0    0    0
SMALL
NO_CHARGES


@<TRIPOS>ATOM
   1 C1            -0.0167     1.3795     0.0096 C.ar    
   2 C2             0.0021    -0.0041     0.0020 C.ar    
   3 C3             1.2079    -0.6878    -0.0128 C.ar    
   4 C4             2.4000     0.0094    -0.0200 C.ar    
   5 C5             2.3872     1.4080    -0.0128 C.ar    
   6 C6             1.1653     2.0894     0.0022 C.ar    
   7 C7             3.6518     2.1587    -0.0199 C.2     
   8 N8             3.6361     3.4659    -0.0132 N.2     
   9 N9             4.7454     4.1243    -0.0194 N.2     
  10 C10            4.7297     5.4315    -0.0127 C.2     
  11 C11            5.9943     6.1822    -0.0198 C.ar    
  12 C12            5.9815     7.5808    -0.0127 C.ar    
  13 C13            7.1736     8.2780    -0.0189 C.ar    
  14 C14            8.3794     7.5942    -0.0328 C.ar    
  15 C15            8.3982     6.2106    -0.0404 C.ar    
  16 C16            7.2162     5.5008    -0.0280 C.ar    
  17 F17            1.2169    -2.0388    -0.0197 F       
  18 F18            7.1646     9.6290    -0.0120 F       
  19 H19           -0.9602     1.9051     0.0170 H       
  20 H20           -0.9274    -0.5540     0.0080 H       
  21 H21            3.3393    -0.5237    -0.0308 H       
  22 H22            1.1480     3.1692     0.0074 H       
  23 H23            4.5935     1.6300    -0.0307 H       
  24 H24            3.7880     5.9602    -0.0019 H       
  25 H25            5.0422     8.1139    -0.0026 H       
  26 H26            9.3089     8.1442    -0.0380 H       
  27 H27            9.3417     5.6851    -0.0519 H       
  28 H28            7.2335     4.4209    -0.0339 H       
@<TRIPOS>BOND
   1    1    2 ar
   2    1    6 ar
   3    1   19 1
   4    2    3 ar
   5    2   20 1
   6    3    4 ar
   7    3   17 1
   8    4    5 ar
   9    4   21 1
  10    5    6 ar
  11    5    7 1
  12    6   22 1
  13    7    8 2
  14    7   23 1
  15    8    9 1
  16    9   10 2
  17   10   11 1
  18   10   24 1
  19   11   12 ar
  20   11   16 ar
  21   12   13 ar
  22   12   25 1
  23   13   14 ar
  24   13   18 1
  25   14   15 ar
  26   14   26 1
  27   15   16 ar
  28   15   27 1
  29   16   28 1

#	End of record

