#	Name: ASD01180270
#	Creating user name:	WinNT
#	Creation time:	15. 06. 2019 19:07

#	Modifying user name:	WinNT
#	Modification time:	15. 06. 2019 19:07

#	Program:	/corina/corina34_cracker 3.40 0067  02.08.2006

@<TRIPOS>MOLECULE
ASD01180270
  63   65    0    0    0
SMALL
NO_CHARGES


@<TRIPOS>ATOM
   1 C1            -1.0862     1.4706     0.4483 C.2     
   2 C2            -0.9170    -0.0253     0.3798 C.3     
   3 C3             0.5698    -0.3654     0.2586 C.3     
   4 O4            -0.1170     2.1908     0.4046 O.2     
   5 O5            -2.3139     2.0031     0.5523 O.3     
   6 C6             1.9666    -2.3541     0.0820 C.2     
   7 O7             2.9416    -1.6295     0.0381 O.2     
   8 N8             0.7342    -1.8196     0.1920 N.am    
   9 C9             2.1325    -3.8215     0.0149 C.ar    
  10 C10            3.4076    -4.3746    -0.0989 C.ar    
  11 N11            1.0642    -4.6160     0.0686 N.ar    
  12 N12            3.5553    -5.6851    -0.1589 N.ar    
  13 C13            2.4897    -6.4760    -0.1108 C.ar    
  14 C14            1.2116    -5.9211     0.0088 C.ar    
  15 N15            2.6445    -7.8500    -0.1737 N.pl3   
  16 C16            1.4811    -8.7261    -0.0151 C.3     
  17 C17            0.7984    -8.9178    -1.3709 C.3     
  18 C18           -0.4842    -9.7311    -1.1856 C.3     
  19 C19           -1.4865    -8.9218    -0.3602 C.3     
  20 C20            2.7500   -12.5209     1.4912 C.ar    
  21 C21            1.5738   -11.9399     1.9610 C.ar    
  22 C22            1.1688   -10.7149     1.4710 C.ar    
  23 C23            1.9282   -10.0638     0.5157 C.ar    
  24 C24            3.0964   -10.6361     0.0456 C.ar    
  25 C25            3.5109   -11.8608     0.5286 C.ar    
  26 C26            3.1937   -13.8350     2.0187 C.ar    
  27 C27            4.3698   -14.4160     1.5490 C.ar    
  28 C28            4.7779   -15.6384     2.0431 C.ar    
  29 C29            4.0213   -16.2868     3.0025 C.ar    
  30 C30            2.8527   -15.7149     3.4720 C.ar    
  31 C31            2.4388   -14.4897     2.9897 C.ar    
  32 C32            4.4717   -17.6216     3.5378 C.3     
  33 F33            5.2922   -17.4238     4.6535 F       
  34 F34            3.3538   -18.3764     3.9091 F       
  35 F35            5.1871   -18.3038     2.5479 F       
  36 C36           -1.0892   -10.0483    -2.5546 C.3     
  37 H37           -1.3207    -0.4785     1.2853 H       
  38 H38           -1.4502    -0.4119    -0.4887 H       
  39 H39            0.9735     0.0877    -0.6469 H       
  40 H40            1.1029     0.0211     1.1271 H       
  41 H41           -2.3722     2.9675     0.5929 H       
  42 H42           -0.0438    -2.3978     0.2271 H       
  43 H43            4.2740    -3.7310    -0.1383 H       
  44 H44            0.3455    -6.5648     0.0524 H       
  45 H45            3.5232    -8.2328    -0.3227 H       
  46 H46            0.7784    -8.2739     0.6848 H       
  47 H47            0.5531    -7.9441    -1.7951 H       
  48 H48            1.4711    -9.4486    -2.0446 H       
  49 H49           -0.2529   -10.6611    -0.6663 H       
  50 H50           -1.0416    -8.6642     0.6010 H       
  51 H51           -1.7461    -8.0092    -0.8967 H       
  52 H52           -2.3859    -9.5155    -0.1968 H       
  53 H53            0.9801   -12.4475     2.7068 H       
  54 H54            0.2573   -10.2636     1.8344 H       
  55 H55            3.6854   -10.1236    -0.7006 H       
  56 H56            4.4235   -12.3065     0.1613 H       
  57 H57            4.9609   -13.9108     0.7994 H       
  58 H58            5.6893   -16.0896     1.6797 H       
  59 H59            2.2656   -16.2257     4.2209 H       
  60 H60            1.5288   -14.0416     3.3608 H       
  61 H61           -0.3751   -10.6249    -3.1427 H       
  62 H62           -2.0030   -10.6277    -2.4227 H       
  63 H63           -1.3206    -9.1183    -3.0739 H       
@<TRIPOS>BOND
   1    1    2 1
   2    1    4 2
   3    1    5 1
   4    2    3 1
   5    2   37 1
   6    2   38 1
   7    3    8 1
   8    3   39 1
   9    3   40 1
  10    5   41 1
  11    6    7 2
  12    6    8 am
  13    6    9 1
  14    8   42 1
  15    9   10 ar
  16    9   11 ar
  17   10   12 ar
  18   10   43 1
  19   11   14 ar
  20   12   13 ar
  21   13   14 ar
  22   13   15 1
  23   14   44 1
  24   15   16 1
  25   15   45 1
  26   16   17 1
  27   16   23 1
  28   16   46 1
  29   17   18 1
  30   17   47 1
  31   17   48 1
  32   18   19 1
  33   18   36 1
  34   18   49 1
  35   19   50 1
  36   19   51 1
  37   19   52 1
  38   20   21 ar
  39   20   25 ar
  40   20   26 1
  41   21   22 ar
  42   21   53 1
  43   22   23 ar
  44   22   54 1
  45   23   24 ar
  46   24   25 ar
  47   24   55 1
  48   25   56 1
  49   26   27 ar
  50   26   31 ar
  51   27   28 ar
  52   27   57 1
  53   28   29 ar
  54   28   58 1
  55   29   30 ar
  56   29   32 1
  57   30   31 ar
  58   30   59 1
  59   31   60 1
  60   32   33 1
  61   32   34 1
  62   32   35 1
  63   36   61 1
  64   36   62 1
  65   36   63 1

#	End of record

