#	Name: ASD01870593
#	Creating user name:	WinNT
#	Creation time:	15. 06. 2019 19:39

#	Modifying user name:	WinNT
#	Modification time:	15. 06. 2019 19:39

#	Program:	/corina/corina34_cracker 3.40 0067  02.08.2006

@<TRIPOS>MOLECULE
ASD01870593
  44   48    0    0    0
SMALL
NO_CHARGES


@<TRIPOS>ATOM
   1 N1            -0.0184     1.3106     0.0344 N.ar    
   2 C2             0.0874     0.0004     0.0712 C.ar    
   3 C3            -0.7584    -0.8033    -0.6769 C.ar    
   4 C4            -1.7275    -0.2138    -1.4732 C.ar    
   5 C5            -1.8160     1.1694    -1.4925 C.ar    
   6 C6            -0.9327     1.9147    -0.7150 C.ar    
   7 C7            -1.0141     3.3937    -0.7244 C.2     
   8 O8            -1.8492     3.9520    -1.4086 O.2     
   9 N9            -0.1622     4.1203     0.0257 N.am    
  10 C10           -0.1739     5.5171    -0.0570 C.ar    
  11 C11           -1.3732     6.1917    -0.2449 C.ar    
  12 C12           -1.3842     7.5707    -0.3266 C.ar    
  13 C13           -0.1955     8.2820    -0.2206 C.ar    
  14 C14            1.0031     7.6071    -0.0327 C.ar    
  15 C15            1.0135     6.2296     0.0546 C.ar    
  16 Cl16          -2.8829     8.4146    -0.5621 Cl      
  17 N17           -0.2063     9.6830    -0.3040 N.am    
  18 C18           -0.0734    10.3397    -1.4618 C.2     
  19 C19           -0.1274    11.8286    -1.2059 C.3     
  20 C20           -0.3203    11.9188     0.3369 C.3     
  21 C21           -0.3559    10.4701     0.7673 C.2     
  22 C22           -1.4748    12.3746    -1.7746 C.3     
  23 C23           -2.5110    11.3250    -1.3548 C.2     
  24 C24           -2.6744    11.4005    -0.0492 C.2     
  25 C25           -1.7585    12.5081     0.4822 C.3     
  26 O26            0.0688     9.8210    -2.5483 O.2     
  27 O27           -0.4960    10.0817     1.9071 O.2     
  28 C28           -1.7931    13.5013    -0.7254 C.3     
  29 H29            0.8439    -0.4556     0.6926 H       
  30 H30           -0.6630    -1.8784    -0.6399 H       
  31 H31           -2.3983    -0.8184    -2.0657 H       
  32 H32           -2.5590     1.6623    -2.1019 H       
  33 H33            0.4590     3.6750     0.6230 H       
  34 H34           -2.2970     5.6383    -0.3276 H       
  35 H35            1.9270     8.1603     0.0496 H       
  36 H36            1.9456     5.7053     0.2056 H       
  37 H37            0.7463    12.3625    -1.5796 H       
  38 H38            0.4498    12.5005     0.8435 H       
  39 H39           -1.4740    12.6580    -2.8271 H       
  40 H40           -3.0204    10.6403    -2.0166 H       
  41 H41           -3.3403    10.7878     0.5404 H       
  42 H42           -2.0182    12.9092     1.4619 H       
  43 H43           -1.0090    14.2562    -0.6676 H       
  44 H44           -2.7784    13.9428    -0.8747 H       
@<TRIPOS>BOND
   1    1    2 ar
   2    1    6 ar
   3    2    3 ar
   4    2   29 1
   5    3    4 ar
   6    3   30 1
   7    4    5 ar
   8    4   31 1
   9    5    6 ar
  10    5   32 1
  11    6    7 1
  12    7    8 2
  13    7    9 am
  14    9   10 1
  15    9   33 1
  16   10   11 ar
  17   10   15 ar
  18   11   12 ar
  19   11   34 1
  20   12   13 ar
  21   12   16 1
  22   13   14 ar
  23   13   17 1
  24   14   15 ar
  25   14   35 1
  26   15   36 1
  27   17   18 am
  28   17   21 am
  29   18   26 2
  30   18   19 1
  31   19   22 1
  32   19   20 1
  33   19   37 1
  34   20   21 1
  35   20   25 1
  36   20   38 1
  37   21   27 2
  38   22   23 1
  39   22   28 1
  40   22   39 1
  41   23   24 2
  42   23   40 1
  43   24   25 1
  44   24   41 1
  45   25   28 1
  46   25   42 1
  47   28   43 1
  48   28   44 1

#	End of record

