#	Name: ASD01420171
#	Creating user name:	WinNT
#	Creation time:	15. 06. 2019 19:20

#	Modifying user name:	WinNT
#	Modification time:	15. 06. 2019 19:20

#	Program:	/corina/corina34_cracker 3.40 0067  02.08.2006

@<TRIPOS>MOLECULE
ASD01420171
  73   76    0    0    0
SMALL
NO_CHARGES


@<TRIPOS>ATOM
   1 N1            -0.0459    -2.0029    -0.7741 N.am    
   2 C2             0.2760    -3.3720    -0.3492 C.3     
   3 C3             1.1434    -3.3059     0.9118 C.3     
   4 C4             2.3672    -2.4284     0.6388 C.3     
   5 C5             1.9121    -1.0093     0.2906 C.3     
   6 C6             1.0534    -1.0494    -0.9774 C.3     
   7 C7            -1.3248    -1.6302    -0.9790 C.2     
   8 O8            -2.2246    -2.4296    -0.8124 O.2     
   9 O9            -1.6053    -0.3722    -1.3683 O.3     
  10 N10            3.2160    -2.3897     1.8322 N.pl3   
  11 C11            8.7674    -1.3415     1.6273 C.3     
  12 N12            9.0842    -1.4252     3.0565 N.am    
  13 C13            7.8301    -1.7264     3.7539 C.3     
  14 C14            6.7405    -1.8246     2.7162 C.ar    
  15 C15            5.3879    -2.0869     2.8390 C.ar    
  16 C16            4.5817    -2.1240     1.7096 C.ar    
  17 C17            5.1375    -1.8966     0.4567 C.ar    
  18 C18            6.4875    -1.6350     0.3406 C.ar    
  19 C19            7.2900    -1.5989     1.4691 C.ar    
  20 C20           10.2965    -1.2576     3.6211 C.2     
  21 C21           11.4857    -1.0737     2.7714 C.ar    
  22 C22           12.4402    -0.0980     3.0972 C.ar    
  23 C23           13.5549     0.0678     2.2937 C.ar    
  24 C24           13.7260    -0.7287     1.1708 C.ar    
  25 C25           12.7802    -1.6962     0.8463 C.ar    
  26 C26           11.6708    -1.8745     1.6404 C.ar    
  27 O27           10.4086    -1.2582     4.8321 O.2     
  28 C28           12.9745    -2.5558    -0.3761 C.3     
  29 C29           13.0424    -4.0265     0.0401 C.3     
  30 C30           11.8004    -2.3510    -1.3355 C.3     
  31 O31           14.8203    -0.5631     0.3853 O.3     
  32 O32           12.2709     0.6801     4.1954 O.3     
  33 C33           -3.0046    -0.0412    -1.5700 C.3     
  34 C34           -3.7711    -0.2473    -0.2620 C.3     
  35 C35           -3.1251     1.4202    -2.0068 C.3     
  36 C36           -3.5920    -0.9475    -2.6537 C.3     
  37 H37           -0.6448    -3.9130    -0.1313 H       
  38 H38            0.8227    -3.8818    -1.1425 H       
  39 H39            0.5640    -2.8779     1.7298 H       
  40 H40            1.4690    -4.3103     1.1824 H       
  41 H41            2.9327    -2.8433    -0.1955 H       
  42 H42            1.3255    -0.6029     1.1146 H       
  43 H43            2.7848    -0.3791     0.1192 H       
  44 H44            1.6635    -1.3698    -1.8219 H       
  45 H45            0.6455    -0.0579    -1.1739 H       
  46 H46            2.8295    -2.5486     2.7076 H       
  47 H47            9.0115    -0.3475     1.2524 H       
  48 H48            9.3343    -2.0937     1.0786 H       
  49 H49            7.9211    -2.6740     4.2848 H       
  50 H50            7.5983    -0.9278     4.4586 H       
  51 H51            4.9588    -2.2629     3.8144 H       
  52 H52            4.5141    -1.9249    -0.4248 H       
  53 H53            6.9197    -1.4582    -0.6333 H       
  54 H54           14.2916     0.8178     2.5408 H       
  55 H55           10.9414    -2.6298     1.3878 H       
  56 H56           13.9031    -2.2757    -0.8734 H       
  57 H57           13.1829    -4.6483    -0.8440 H       
  58 H58           13.8788    -4.1724     0.7236 H       
  59 H59           12.1137    -4.3066     0.5374 H       
  60 H60           11.7520    -1.3032    -1.6321 H       
  61 H61           11.9409    -2.9727    -2.2197 H       
  62 H62           10.8717    -2.6310    -0.8383 H       
  63 H63           15.5765    -1.1072     0.6446 H       
  64 H64           12.6606     0.3137     5.0010 H       
  65 H65           -3.3526     0.3983     0.5100 H       
  66 H66           -4.8216     0.0012    -0.4134 H       
  67 H67           -3.6853    -1.2884     0.0492 H       
  68 H68           -2.5790     1.5671    -2.9386 H       
  69 H69           -4.1755     1.6687    -2.1582 H       
  70 H70           -2.7066     2.0659    -1.2348 H       
  71 H71           -3.5062    -1.9886    -2.3425 H       
  72 H72           -4.6424    -0.6990    -2.8051 H       
  73 H73           -3.0459    -0.8006    -3.5855 H       
@<TRIPOS>BOND
   1    1    2 1
   2    1    6 1
   3    1    7 am
   4    2    3 1
   5    2   37 1
   6    2   38 1
   7    3    4 1
   8    3   39 1
   9    3   40 1
  10    4    5 1
  11    4   10 1
  12    4   41 1
  13    5    6 1
  14    5   42 1
  15    5   43 1
  16    6   44 1
  17    6   45 1
  18    7    8 2
  19    7    9 1
  20    9   33 1
  21   10   16 1
  22   10   46 1
  23   11   12 1
  24   11   19 1
  25   11   47 1
  26   11   48 1
  27   12   13 1
  28   12   20 am
  29   13   14 1
  30   13   49 1
  31   13   50 1
  32   14   15 ar
  33   14   19 ar
  34   15   16 ar
  35   15   51 1
  36   16   17 ar
  37   17   18 ar
  38   17   52 1
  39   18   19 ar
  40   18   53 1
  41   20   21 1
  42   20   27 2
  43   21   22 ar
  44   21   26 ar
  45   22   23 ar
  46   22   32 1
  47   23   24 ar
  48   23   54 1
  49   24   25 ar
  50   24   31 1
  51   25   26 ar
  52   25   28 1
  53   26   55 1
  54   28   29 1
  55   28   30 1
  56   28   56 1
  57   29   57 1
  58   29   58 1
  59   29   59 1
  60   30   60 1
  61   30   61 1
  62   30   62 1
  63   31   63 1
  64   32   64 1
  65   33   34 1
  66   33   36 1
  67   33   35 1
  68   34   65 1
  69   34   66 1
  70   34   67 1
  71   35   68 1
  72   35   69 1
  73   35   70 1
  74   36   71 1
  75   36   72 1
  76   36   73 1

#	End of record

