#	Name: ASD01948036
#	Creating user name:	WinNT
#	Creation time:	15. 06. 2019 20:13

#	Modifying user name:	WinNT
#	Modification time:	15. 06. 2019 20:13

#	Program:	/corina/corina34_cracker 3.40 0067  02.08.2006

@<TRIPOS>MOLECULE
ASD01948036
  35   37    0    0    0
SMALL
NO_CHARGES


@<TRIPOS>ATOM
   1 C1            -0.4462     1.3627    -0.5581 C.2     
   2 C2            -0.3709    -0.0020    -0.4240 C.2     
   3 C3             0.8433    -0.6114    -0.0866 C.2     
   4 C4             1.9664     0.1846     0.1096 C.2     
   5 C5             1.8493     1.5637    -0.0356 C.2     
   6 N6             0.6653     2.1241    -0.3618 N.am    
   7 N7            -1.5481     2.1238    -0.8879 N.pl3   
   8 C8            -1.1688     3.5400    -0.9176 C.3     
   9 C9             0.3269     3.5433    -0.5629 C.3     
  10 O10            2.8283     2.2747     0.1339 O.2     
  11 N11           -1.5784    -0.8316    -0.6366 N.pl3   
  12 O12           -2.6573    -0.2993    -0.8268 O.2     
  13 O13           -1.4930    -2.0465    -0.6214 O.2     
  14 C14            3.2901    -0.4365     0.4742 C.3     
  15 N15            0.9248    -1.9873     0.0504 N.pl3   
  16 C16            0.2226    -2.6311     1.0754 C.ar    
  17 C17            0.1949    -4.0208     1.1352 C.ar    
  18 C18           -0.4995    -4.6530     2.1498 C.ar    
  19 C19           -1.1662    -3.9046     3.1038 C.ar    
  20 C20           -1.1397    -2.5231     3.0460 C.ar    
  21 C21           -0.4428    -1.8848     2.0379 C.ar    
  22 I22           -2.2185    -4.8664     4.6389 I       
  23 F23            0.8451    -4.7513     0.2031 F       
  24 H24           -2.4349     1.7766    -1.0720 H       
  25 H25           -1.3221     3.9544    -1.9140 H       
  26 H26           -1.7393     4.1025    -0.1785 H       
  27 H27            0.5008     4.1088     0.3526 H       
  28 H28            0.9095     3.9601    -1.3844 H       
  29 H29            3.8190    -0.7244    -0.4343 H       
  30 H30            3.8891     0.2848     1.0302 H       
  31 H31            3.1198    -1.3192     1.0906 H       
  32 H32            1.4684    -2.5045    -0.5642 H       
  33 H33           -0.5220    -5.7317     2.1976 H       
  34 H34           -1.6612    -1.9422     3.7924 H       
  35 H35           -0.4197    -0.8058     1.9965 H       
@<TRIPOS>BOND
   1    1    2 2
   2    1    6 1
   3    1    7 1
   4    2    3 1
   5    2   11 1
   6    3    4 2
   7    3   15 1
   8    4    5 1
   9    4   14 1
  10    5    6 am
  11    5   10 2
  12    6    9 1
  13    7    8 1
  14    7   24 1
  15    8    9 1
  16    8   25 1
  17    8   26 1
  18    9   27 1
  19    9   28 1
  20   11   12 2
  21   11   13 2
  22   14   29 1
  23   14   30 1
  24   14   31 1
  25   15   16 1
  26   15   32 1
  27   16   17 ar
  28   16   21 ar
  29   17   18 ar
  30   17   23 1
  31   18   19 ar
  32   18   33 1
  33   19   20 ar
  34   19   22 1
  35   20   21 ar
  36   20   34 1
  37   21   35 1

#	End of record

