#	Name: ASD01913023
#	Creating user name:	WinNT
#	Creation time:	15. 06. 2019 20:00

#	Modifying user name:	WinNT
#	Modification time:	15. 06. 2019 20:00

#	Program:	/corina/corina34_cracker 3.40 0067  02.08.2006

@<TRIPOS>MOLECULE
ASD01913023
  32   34    0    0    0
SMALL
NO_CHARGES


@<TRIPOS>ATOM
   1 C1            -0.0173     1.4278     0.0099 C.2     
   2 C2             0.0021    -0.0041     0.0020 C.1     
   3 C3             0.0180    -1.1779    -0.0044 C.1     
   4 C4             0.0374    -2.6098    -0.0123 C.ar    
   5 C5            -1.1617    -3.3288    -0.0047 C.ar    
   6 C6             1.2555    -3.2958    -0.0334 C.ar    
   7 C7             1.2660    -4.6747    -0.0408 C.ar    
   8 C8             0.0750    -5.3795    -0.0275 C.ar    
   9 C9            -1.1348    -4.7074    -0.0123 C.ar    
  10 C10            1.1661     2.1484     0.0025 C.2     
  11 C11            1.1142     3.5571     0.0100 C.2     
  12 N12           -0.1116     4.2017     0.0251 N.pl3   
  13 C13           -1.2858     3.4999     0.0335 C.2     
  14 C14           -1.2906     2.1564     0.0198 C.2     
  15 C15            2.2904     4.2789     0.0027 C.2     
  16 C16            2.3168     5.6841     0.0095 C.2     
  17 C17            1.1854     6.4026     0.0241 C.2     
  18 C18           -0.1388     5.6722     0.0327 C.3     
  19 O19           -0.8810     6.1010    -1.1107 O.3     
  20 H20           -2.1065    -2.8057     0.0074 H       
  21 H21            2.1857    -2.7472    -0.0442 H       
  22 H22            2.2061    -5.2061    -0.0575 H       
  23 H23            0.0896    -6.4593    -0.0337 H       
  24 H24           -2.0601    -5.2643    -0.0016 H       
  25 H25            2.1171     1.6369    -0.0086 H       
  26 H26           -2.2241     4.0345     0.0456 H       
  27 H27           -2.2258     1.6162     0.0263 H       
  28 H28            3.2278     3.7427    -0.0083 H       
  29 H29            3.2681     6.1953     0.0032 H       
  30 H30            1.2187     7.4821     0.0292 H       
  31 H31           -0.6883     5.9899     0.9188 H       
  32 H32           -1.0618     7.0508    -1.1286 H       
@<TRIPOS>BOND
   1    1    2 1
   2    1   10 2
   3    1   14 1
   4    2    3 3
   5    3    4 1
   6    4    5 ar
   7    4    6 ar
   8    5    9 ar
   9    5   20 1
  10    6    7 ar
  11    6   21 1
  12    7    8 ar
  13    7   22 1
  14    8    9 ar
  15    8   23 1
  16    9   24 1
  17   10   11 1
  18   10   25 1
  19   11   12 1
  20   11   15 2
  21   12   13 1
  22   12   18 1
  23   13   14 2
  24   13   26 1
  25   14   27 1
  26   15   16 1
  27   15   28 1
  28   16   17 2
  29   16   29 1
  30   17   18 1
  31   17   30 1
  32   18   19 1
  33   18   31 1
  34   19   32 1

#	End of record

