#	Name: ASD01140472
#	Creating user name:	WinNT
#	Creation time:	15. 06. 2019 19:00

#	Modifying user name:	WinNT
#	Modification time:	15. 06. 2019 19:00

#	Program:	/corina/corina34_cracker 3.40 0067  02.08.2006

@<TRIPOS>MOLECULE
ASD01140472
  39   40    0    0    0
SMALL
NO_CHARGES


@<TRIPOS>ATOM
   1 N1            -0.0657     1.1061     0.0591 N.ar    
   2 C2             0.1220    -0.1952     0.0484 C.ar    
   3 C3             1.4198    -0.7195    -0.0049 C.ar    
   4 N4             2.4661     0.0951    -0.0454 N.ar    
   5 C5             2.2826     1.4098    -0.0353 C.ar    
   6 C6             0.9800     1.9324     0.0187 C.ar    
   7 C7             0.7696     3.3902     0.0307 C.2     
   8 O8             1.7230     4.1415     0.1026 O.2     
   9 N9            -0.4796     3.8913    -0.0381 N.am    
  10 C10           -0.6851     5.2511     0.0792 C.2     
  11 N11           -1.9646     5.7524     0.1143 N.pl3   
  12 N12            0.3331     6.0592     0.1565 N.2     
  13 N13            1.6109    -2.0901    -0.0150 N.pl3   
  14 N14            3.3707     2.2622    -0.0769 N.pl3   
  15 Cl15          -1.2427    -1.2668     0.1012 Cl      
  16 C16            2.9676    -2.6401    -0.0708 C.3     
  17 C17            2.9740    -4.0444     0.5366 C.3     
  18 C18            4.3909    -4.6188     0.4783 C.3     
  19 C19            4.8523    -4.6913    -0.9786 C.3     
  20 C20            4.8459    -3.2870    -1.5861 C.3     
  21 C21            3.4290    -2.7126    -1.5278 C.3     
  22 H22           -1.2343     3.2964    -0.1700 H       
  23 H23           -2.7223     5.1470     0.1299 H       
  24 H24           -2.1097     6.7114     0.1234 H       
  25 H25            0.1887     7.0149     0.2389 H       
  26 H26            0.8466    -2.6866     0.0149 H       
  27 H27            4.2704     1.9028    -0.0295 H       
  28 H28            3.2342     3.2195    -0.1536 H       
  29 H29            3.6437    -1.9973     0.4929 H       
  30 H30            2.6453    -3.9927     1.5746 H       
  31 H31            2.2979    -4.6872    -0.0271 H       
  32 H32            5.0671    -3.9760     1.0420 H       
  33 H33            4.3955    -5.6192     0.9111 H       
  34 H34            5.8617    -5.1005    -1.0201 H       
  35 H35            4.1762    -5.3341    -1.5423 H       
  36 H36            5.5220    -2.6442    -1.0224 H       
  37 H37            5.1746    -3.3387    -2.6241 H       
  38 H38            2.7529    -3.3554    -2.0915 H       
  39 H39            3.4244    -1.7122    -1.9606 H       
@<TRIPOS>BOND
   1    1    2 ar
   2    1    6 ar
   3    2    3 ar
   4    2   15 1
   5    3    4 ar
   6    3   13 1
   7    4    5 ar
   8    5    6 ar
   9    5   14 1
  10    6    7 1
  11    7    8 2
  12    7    9 am
  13    9   10 1
  14    9   22 1
  15   10   11 1
  16   10   12 2
  17   11   23 1
  18   11   24 1
  19   12   25 1
  20   13   16 1
  21   13   26 1
  22   14   27 1
  23   14   28 1
  24   16   17 1
  25   16   21 1
  26   16   29 1
  27   17   18 1
  28   17   30 1
  29   17   31 1
  30   18   19 1
  31   18   32 1
  32   18   33 1
  33   19   20 1
  34   19   34 1
  35   19   35 1
  36   20   21 1
  37   20   36 1
  38   20   37 1
  39   21   38 1
  40   21   39 1

#	End of record

