#	Name: ASD01911833
#	Creating user name:	WinNT
#	Creation time:	15. 06. 2019 19:58

#	Modifying user name:	WinNT
#	Modification time:	15. 06. 2019 19:58

#	Program:	/corina/corina34_cracker 3.40 0067  02.08.2006

@<TRIPOS>MOLECULE
ASD01911833
  39   41    0    0    0
SMALL
NO_CHARGES


@<TRIPOS>ATOM
   1 C1            -0.9098    -0.7046     2.0999 C.ar    
   2 C2            -0.4251    -0.9659     0.8219 C.ar    
   3 C3             0.8216    -1.5582     0.6823 C.ar    
   4 N4             1.5401    -1.8713     1.7424 N.ar    
   5 C5             1.1101    -1.6372     2.9666 C.ar    
   6 C6            -0.1219    -1.0493     3.1860 C.ar    
   7 O7            -1.1626    -0.6457    -0.2738 O.3     
   8 C8            -2.3772    -0.0685    -0.0788 C.ar    
   9 C9            -2.4614     1.2760     0.2567 C.ar    
  10 C10           -3.6957     1.8643     0.4553 C.ar    
  11 C11           -4.8499     1.1169     0.3207 C.ar    
  12 C12           -4.7719    -0.2287    -0.0153 C.ar    
  13 C13           -3.5330    -0.8203    -0.2203 C.ar    
  14 N14           -5.9401    -0.9854    -0.1511 N.am    
  15 C15           -5.9371    -2.2936     0.1727 C.2     
  16 C16           -7.1404    -3.1175    -0.0684 C.ar    
  17 C17           -7.1405    -4.4726     0.2658 C.ar    
  18 C18           -8.2667    -5.2366     0.0383 C.ar    
  19 C19           -9.3946    -4.6629    -0.5202 C.ar    
  20 C20           -9.4018    -3.3189    -0.8544 C.ar    
  21 C21           -8.2835    -2.5422    -0.6261 C.ar    
  22 O22           -4.9447    -2.7961     0.6631 O.2     
  23 Cl23         -10.8222    -2.6079    -1.5549 Cl      
  24 C24            1.3599    -1.8473    -0.6953 C.3     
  25 H25           -1.8746    -0.2404     2.2415 H       
  26 H26            1.7284    -1.9088     3.8094 H       
  27 H27           -0.4660    -0.8609     4.1922 H       
  28 H28           -1.5610     1.8628     0.3630 H       
  29 H29           -3.7584     2.9104     0.7166 H       
  30 H30           -5.8135     1.5790     0.4771 H       
  31 H31           -3.4695    -1.8663    -0.4816 H       
  32 H32           -6.7526    -0.5686    -0.4783 H       
  33 H33           -6.2605    -4.9224     0.7013 H       
  34 H34           -8.2675    -6.2853     0.2967 H       
  35 H35          -10.2732    -5.2656    -0.6968 H       
  36 H36           -8.2899    -1.4942    -0.8869 H       
  37 H37            1.9284    -0.9880    -1.0509 H       
  38 H38            2.0096    -2.7216    -0.6554 H       
  39 H39            0.5309    -2.0414    -1.3759 H       
@<TRIPOS>BOND
   1    1    2 ar
   2    1    6 ar
   3    1   25 1
   4    2    3 ar
   5    2    7 1
   6    3    4 ar
   7    3   24 1
   8    4    5 ar
   9    5    6 ar
  10    5   26 1
  11    6   27 1
  12    7    8 1
  13    8    9 ar
  14    8   13 ar
  15    9   10 ar
  16    9   28 1
  17   10   11 ar
  18   10   29 1
  19   11   12 ar
  20   11   30 1
  21   12   13 ar
  22   12   14 1
  23   13   31 1
  24   14   15 am
  25   14   32 1
  26   15   16 1
  27   15   22 2
  28   16   17 ar
  29   16   21 ar
  30   17   18 ar
  31   17   33 1
  32   18   19 ar
  33   18   34 1
  34   19   20 ar
  35   19   35 1
  36   20   21 ar
  37   20   23 1
  38   21   36 1
  39   24   37 1
  40   24   38 1
  41   24   39 1

#	End of record

