#	Name: ASD01884164
#	Creating user name:	WinNT
#	Creation time:	15. 06. 2019 19:47

#	Modifying user name:	WinNT
#	Modification time:	15. 06. 2019 19:47

#	Program:	/corina/corina34_cracker 3.40 0067  02.08.2006

@<TRIPOS>MOLECULE
ASD01884164
  24   26    0    0    0
SMALL
NO_CHARGES


@<TRIPOS>ATOM
   1 C1            -0.0167     1.3793     0.0096 C.ar    
   2 C2             0.0021    -0.0041     0.0020 C.ar    
   3 C3            -1.1859    -0.7084     0.0100 C.ar    
   4 C4            -2.3989    -0.0014     0.0259 C.ar    
   5 C5            -2.3220     1.3933     0.0326 C.ar    
   6 N6            -1.1654     2.0295     0.0296 N.ar    
   7 N7            -3.6852    -0.5082     0.0364 N.am    
   8 C8            -4.7099     0.3501     0.0515 C.2     
   9 S9            -3.9952     1.9708     0.0529 S.3     
  10 O10           -5.8951     0.0736     0.0616 O.2     
  11 Cl11           1.4770     2.2639     0.0001 Cl      
  12 C12           -3.9201    -1.9542     0.0305 C.3     
  13 C13           -3.9868    -2.4659     1.4709 C.3     
  14 C14           -4.3434    -3.9388     1.6815 C.3     
  15 C15           -2.9108    -3.4570     1.9191 C.3     
  16 F16           -1.9412    -3.8260     0.9805 F       
  17 F17           -2.4682    -3.3747     3.2437 F       
  18 H18            0.9440    -0.5323    -0.0105 H       
  19 H19           -1.1819    -1.7883     0.0038 H       
  20 H20           -4.8621    -2.1673    -0.4747 H       
  21 H21           -3.1053    -2.4525    -0.4947 H       
  22 H22           -4.3502    -1.7497     2.2078 H       
  23 H23           -4.9411    -4.1916     2.5573 H       
  24 H24           -4.5305    -4.5432     0.7940 H       
@<TRIPOS>BOND
   1    1    2 ar
   2    1   11 1
   3    1    6 ar
   4    2    3 ar
   5    2   18 1
   6    3    4 ar
   7    3   19 1
   8    4    5 ar
   9    4    7 1
  10    5    6 ar
  11    5    9 1
  12    7    8 am
  13    7   12 1
  14    8    9 1
  15    8   10 2
  16   12   13 1
  17   12   20 1
  18   12   21 1
  19   13   14 1
  20   13   15 1
  21   13   22 1
  22   14   15 1
  23   14   23 1
  24   14   24 1
  25   15   16 1
  26   15   17 1

#	End of record

