#	Name: ASD01815980
#	Creating user name:	WinNT
#	Creation time:	15. 06. 2019 19:34

#	Modifying user name:	WinNT
#	Modification time:	15. 06. 2019 19:34

#	Program:	/corina/corina34_cracker 3.40 0067  02.08.2006

@<TRIPOS>MOLECULE
ASD01815980
  50   55    0    0    0
SMALL
NO_CHARGES


@<TRIPOS>ATOM
   1 C1            -0.0167     1.3813     0.0096 C.ar    
   2 C2             0.0021    -0.0041     0.0020 C.ar    
   3 C3             1.1984    -0.6909    -0.0131 C.ar    
   4 C4             2.4015     0.0059    -0.0209 C.ar    
   5 C5             2.3790     1.4106    -0.0132 C.ar    
   6 C6             1.1663     2.0916     0.0022 C.ar    
   7 N7             3.6053    -0.6772    -0.0356 N.pl3   
   8 C8             4.7970    -0.0586    -0.0433 C.2     
   9 C9             4.9000     1.3103    -0.0373 C.2     
  10 C10            3.6670     2.1301    -0.0217 C.2     
  11 C11            5.9971     2.2729    -0.0432 C.2     
  12 N12            5.4245     3.4960    -0.0323 N.am    
  13 N13            4.0323     3.3799    -0.0195 N.2     
  14 C14            6.1264     4.7082    -0.0333 C.ar    
  15 O15            7.1914     2.0229    -0.0548 O.2     
  16 C16            3.5779    -2.1419    -0.0427 C.3     
  17 C17            3.5552    -2.6371    -1.4659 C.ar    
  18 C18            6.5546     5.2634    -1.2317 C.ar    
  19 C19            7.2466     6.4588    -1.2297 C.ar    
  20 C20            7.5142     7.1036    -0.0359 C.ar    
  21 C21            7.0900     6.5550     1.1603 C.ar    
  22 C22            6.3912     5.3614     1.1656 C.ar    
  23 F23            5.9763     4.8253     2.3342 F       
  24 C24            4.7421    -2.8860    -2.1287 C.ar    
  25 C25            4.7255    -3.3389    -3.4347 C.ar    
  26 C26            3.5172    -3.5448    -4.0832 C.ar    
  27 C27            2.3234    -3.2975    -3.4153 C.ar    
  28 C28            2.3471    -2.8469    -2.1042 C.ar    
  29 O29            3.5166    -3.9836    -5.3715 O.3     
  30 C30            2.2897    -4.5340    -5.8633 C.3     
  31 C31            1.1451    -3.5951    -5.4590 C.3     
  32 O32            1.1263    -3.5004    -4.0305 O.3     
  33 H33           -0.9602     1.9068     0.0170 H       
  34 H34           -0.9289    -0.5516     0.0083 H       
  35 H35            1.2004    -1.7709    -0.0186 H       
  36 H36            1.1506     3.1715     0.0077 H       
  37 H37            5.6983    -0.6536    -0.0540 H       
  38 H38            4.4657    -2.5244     0.4609 H       
  39 H39            2.6861    -2.4912     0.4778 H       
  40 H40            6.3471     4.7607    -2.1648 H       
  41 H41            7.5796     6.8905    -2.1620 H       
  42 H42            8.0561     8.0378    -0.0379 H       
  43 H43            7.3009     7.0609     2.0909 H       
  44 H44            5.6843    -2.7262    -1.6256 H       
  45 H45            5.6544    -3.5322    -3.9506 H       
  46 H46            1.4210    -2.6525    -1.5837 H       
  47 H47            2.3325    -4.6148    -6.9495 H       
  48 H48            2.1281    -5.5196    -5.4270 H       
  49 H49            1.3096    -2.6078    -5.8907 H       
  50 H50            0.1964    -3.9983    -5.8132 H       
@<TRIPOS>BOND
   1    1    2 ar
   2    1    6 ar
   3    1   33 1
   4    2    3 ar
   5    2   34 1
   6    3    4 ar
   7    3   35 1
   8    4    5 ar
   9    4    7 1
  10    5    6 ar
  11    5   10 1
  12    6   36 1
  13    7    8 1
  14    7   16 1
  15    8    9 2
  16    8   37 1
  17    9   10 1
  18    9   11 1
  19   10   13 2
  20   11   12 am
  21   11   15 2
  22   12   13 1
  23   12   14 1
  24   14   18 ar
  25   14   22 ar
  26   16   17 1
  27   16   38 1
  28   16   39 1
  29   17   24 ar
  30   17   28 ar
  31   18   19 ar
  32   18   40 1
  33   19   20 ar
  34   19   41 1
  35   20   21 ar
  36   20   42 1
  37   21   22 ar
  38   21   43 1
  39   22   23 1
  40   24   25 ar
  41   24   44 1
  42   25   26 ar
  43   25   45 1
  44   26   27 ar
  45   26   29 1
  46   27   28 ar
  47   27   32 1
  48   28   46 1
  49   29   30 1
  50   30   31 1
  51   30   47 1
  52   30   48 1
  53   31   32 1
  54   31   49 1
  55   31   50 1

#	End of record

