#	Name: ASD01150060
#	Creating user name:	WinNT
#	Creation time:	15. 06. 2019 19:03

#	Modifying user name:	WinNT
#	Modification time:	15. 06. 2019 19:03

#	Program:	/corina/corina34_cracker 3.40 0067  02.08.2006

@<TRIPOS>MOLECULE
ASD01150060
  20   18    0    0    0
SMALL
NO_CHARGES


@<TRIPOS>ATOM
   1 C1            -0.0187     1.5258     0.0104 C.3     
   2 C2             0.0021    -0.0041     0.0020 C.3     
   3 C3             0.7074    -0.4901    -1.2379 C.2     
   4 O4             0.8467    -1.8136    -1.4598 O.3     
   5 N5             1.1783     0.3596    -2.0872 N.2     
   6 C6             1.5259    -2.2030    -2.6552 C.3     
   7 C7             1.5860    -3.7298    -2.7334 C.3     
   8 H8             1.0039     1.9031     0.0027 H       
   9 H9            -0.5459     1.8868    -0.8726 H       
  10 H10           -0.5289     1.8773     0.9072 H       
  11 H11            0.5293    -0.3651     0.8851 H       
  12 H12           -1.0205    -0.3814     0.0098 H       
  13 H13            1.6323     0.0468    -2.8853 H       
  14 H14            0.9887    -1.8158    -3.5210 H       
  15 H15            2.5384    -1.7996    -2.6457 H       
  16 H16            2.1232    -4.1171    -1.8676 H       
  17 H17            0.5734    -4.1333    -2.7429 H       
  18 H18            2.1041    -4.0269    -3.6452 H       
  19 Cl19           7.5384     6.9031     5.9072 Cl      
  20 H20            7.5384     8.2731     5.9072 H       
@<TRIPOS>BOND
   1    1    2 1
   2    1    8 1
   3    1    9 1
   4    1   10 1
   5    2    3 1
   6    2   11 1
   7    2   12 1
   8    3    4 1
   9    3    5 2
  10    4    6 1
  11    5   13 1
  12    6    7 1
  13    6   14 1
  14    6   15 1
  15    7   16 1
  16    7   17 1
  17    7   18 1
  18   19   20 1

#	End of record

