#	Name: ASD01478063
#	Creating user name:	WinNT
#	Creation time:	15. 06. 2019 19:21

#	Modifying user name:	WinNT
#	Modification time:	15. 06. 2019 19:21

#	Program:	/corina/corina34_cracker 3.40 0067  02.08.2006

@<TRIPOS>MOLECULE
ASD01478063
  39   39    0    0    0
SMALL
NO_CHARGES


@<TRIPOS>ATOM
   1 O1            -0.0172     1.4160     0.0098 O.3     
   2 C2             0.0021    -0.0041     0.0020 C.3     
   3 C3             0.5594    -0.6046     1.2806 C.3     
   4 C4             2.0384    -0.2360     1.4415 C.3     
   5 C5             2.1200     1.1271     2.0912 C.2     
   6 C6             1.7551     2.1842     1.4270 C.2     
   7 C7             1.2636     2.0470     0.0010 C.3     
   8 O8             2.6672    -0.1966     0.1588 O.3     
   9 Si9            4.2515    -0.5833     0.1846 Si      
  10 C10            5.1651     0.6135     1.2817 C.3     
  11 C11            4.4579    -2.3130     0.8452 C.3     
  12 C12            4.9412    -0.4922    -1.5436 C.3     
  13 C13            4.7717     0.9283    -2.0861 C.3     
  14 C14            6.4274    -0.8550    -1.5195 C.3     
  15 C15            4.1909    -1.4751    -2.4446 C.3     
  16 H16           -1.0159    -0.3669    -0.1400 H       
  17 H17            0.6109    -0.3410    -0.8370 H       
  18 H18           -0.0022    -0.2228     2.1332 H       
  19 H19            0.4601    -1.6894     1.2430 H       
  20 H20            2.5345    -0.9738     2.0720 H       
  21 H21            2.4802     1.2227     3.1049 H       
  22 H22            1.8022     3.1581     1.8916 H       
  23 H23            1.9657     1.4393    -0.5699 H       
  24 H24            1.1807     3.0345    -0.4529 H       
  25 H25            4.7616     0.5602     2.2929 H       
  26 H26            6.2239     0.3551     1.2989 H       
  27 H27            5.0444     1.6255     0.8952 H       
  28 H28            3.9234    -3.0133     0.2033 H       
  29 H29            5.5167    -2.5714     0.8624 H       
  30 H30            4.0544    -2.3663     1.8563 H       
  31 H31            5.3062     1.6286    -1.4443 H       
  32 H32            5.1752     0.9816    -3.0973 H       
  33 H33            3.7129     1.1868    -2.1034 H       
  34 H34            6.5481    -1.8670    -1.1330 H       
  35 H35            6.8309    -0.8017    -2.5306 H       
  36 H36            6.9619    -0.1547    -0.8776 H       
  37 H37            3.1321    -1.2167    -2.4619 H       
  38 H38            4.5944    -1.4218    -3.4558 H       
  39 H39            4.3116    -2.4871    -2.0581 H       
@<TRIPOS>BOND
   1    1    2 1
   2    1    7 1
   3    2    3 1
   4    2   16 1
   5    2   17 1
   6    3    4 1
   7    3   18 1
   8    3   19 1
   9    4    5 1
  10    4    8 1
  11    4   20 1
  12    5    6 2
  13    5   21 1
  14    6    7 1
  15    6   22 1
  16    7   23 1
  17    7   24 1
  18    8    9 1
  19    9   10 1
  20    9   11 1
  21    9   12 1
  22   10   25 1
  23   10   26 1
  24   10   27 1
  25   11   28 1
  26   11   29 1
  27   11   30 1
  28   12   13 1
  29   12   15 1
  30   12   14 1
  31   13   31 1
  32   13   32 1
  33   13   33 1
  34   14   34 1
  35   14   35 1
  36   14   36 1
  37   15   37 1
  38   15   38 1
  39   15   39 1

#	End of record

