#	Name: ASD01870319
#	Creating user name:	WinNT
#	Creation time:	15. 06. 2019 19:39

#	Modifying user name:	WinNT
#	Modification time:	15. 06. 2019 19:39

#	Program:	/corina/corina34_cracker 3.40 0067  02.08.2006

@<TRIPOS>MOLECULE
ASD01870319
  32   33    0    0    0
SMALL
NO_CHARGES


@<TRIPOS>ATOM
   1 C1            -0.0149     1.3813     0.0100 C.ar    
   2 C2             0.0048    -0.0055     0.0232 C.ar    
   3 C3             1.2090    -0.6804     0.0400 C.ar    
   4 C4             2.4048     0.0194     0.0438 C.ar    
   5 C5             2.4040     1.3972     0.0303 C.ar    
   6 C6             1.1924     2.0930     0.0132 C.ar    
   7 C7             1.1842     3.5680    -0.0012 C.2     
   8 O8             0.1278     4.1700    -0.0161 O.2     
   9 N9             2.3476     4.2484     0.0020 N.am    
  10 C10            2.3420     5.6440    -0.0965 C.ar    
  11 C11            1.2312     7.7447     0.2252 C.ar    
  12 C12            1.2335     6.3667     0.3233 C.ar    
  13 C13            3.4487     6.3106    -0.6097 C.ar    
  14 C14            3.4396     7.6891    -0.7050 C.ar    
  15 C15            2.3311     8.4048    -0.2905 C.ar    
  16 N16            2.3244     9.8814    -0.3943 N.pl3   
  17 C17            3.7122    -0.7297     0.0632 C.3     
  18 Cl18           4.8404     5.4125    -1.1296 Cl      
  19 O19            1.3506    10.5134    -0.0257 O.2     
  20 O20            3.2926    10.4644    -0.8484 O.2     
  21 O21           -1.1974     2.0458    -0.0118 O.3     
  22 H22           -0.9232    -0.5581     0.0207 H       
  23 H23            1.2190    -1.7603     0.0507 H       
  24 H24            3.3385     1.9386     0.0337 H       
  25 H25            3.1888     3.7705     0.0726 H       
  26 H26            0.3688     8.3071     0.5514 H       
  27 H27            0.3736     5.8520     0.7259 H       
  28 H28            4.2989     8.2080    -1.1032 H       
  29 H29            4.0368    -0.9207    -0.9596 H       
  30 H30            4.4653    -0.1330     0.5779 H       
  31 H31            3.5803    -1.6773     0.5855 H       
  32 H32           -1.5518     2.2467     0.8652 H       
@<TRIPOS>BOND
   1    1    2 ar
   2    1    6 ar
   3    1   21 1
   4    2    3 ar
   5    2   22 1
   6    3    4 ar
   7    3   23 1
   8    4    5 ar
   9    4   17 1
  10    5    6 ar
  11    5   24 1
  12    6    7 1
  13    7    8 2
  14    7    9 am
  15    9   10 1
  16    9   25 1
  17   10   13 ar
  18   10   12 ar
  19   11   12 ar
  20   11   15 ar
  21   11   26 1
  22   12   27 1
  23   13   14 ar
  24   13   18 1
  25   14   15 ar
  26   14   28 1
  27   15   16 1
  28   16   19 2
  29   16   20 2
  30   17   29 1
  31   17   30 1
  32   17   31 1
  33   21   32 1

#	End of record

