#	Name: ASD02198164
#	Creating user name:	WinNT
#	Creation time:	15. 06. 2019 20:18

#	Modifying user name:	WinNT
#	Modification time:	15. 06. 2019 20:18

#	Program:	/corina/corina34_cracker 3.40 0067  02.08.2006

@<TRIPOS>MOLECULE
ASD02198164
  40   42    0    0    0
SMALL
NO_CHARGES


@<TRIPOS>ATOM
   1 C1            -0.0829     1.3835     0.7801 C.2     
   2 C2            -0.0653     0.0060     0.8092 C.2     
   3 C3            -1.2346    -0.7936     0.5996 C.1     
   4 S4             1.4730     2.0187     1.0670 S.3     
   5 C5             2.1695     0.4147     1.2306 C.2     
   6 C6             1.1915    -0.5389     1.0606 C.2     
   7 C7             3.5249     0.1447     1.4958 C.2     
   8 C8             4.4847     1.2620     1.6598 C.ar    
   9 O9             3.9095    -1.0081     1.5907 O.2     
  10 N10            1.4325    -1.9012     1.1327 N.pl3   
  11 N11           -1.2078     2.1464     0.5445 N.am    
  12 N12           -2.1622    -1.4280     0.4333 N.1     
  13 C13            5.8253     0.9882     1.9223 C.ar    
  14 C14           -1.1204     3.4913     0.5367 C.2     
  15 C15           -2.3255     4.3087     0.2843 C.ar    
  16 O16           -0.0504     4.0320     0.7373 O.2     
  17 C17           -3.5768     3.6990     0.1801 C.ar    
  18 C18           -4.6978     4.4679    -0.0557 C.ar    
  19 C19           -4.5836     5.8402    -0.1892 C.ar    
  20 C20           -3.3461     6.4510    -0.0869 C.ar    
  21 C21           -2.2182     5.6948     0.1548 C.ar    
  22 C22           -0.8713     6.3616     0.2659 C.3     
  23 C23            6.7108     2.0433     2.0727 C.ar    
  24 C24            6.2250     3.3365     1.9554 C.ar    
  25 C25            4.8794     3.5354     1.6933 C.ar    
  26 N26            4.0610     2.5153     1.5500 N.ar    
  27 H27            2.3288    -2.2263     1.3112 H       
  28 H28            0.7050    -2.5299     1.0048 H       
  29 H29           -2.0616     1.7150     0.3845 H       
  30 H30            6.1693    -0.0319     2.0077 H       
  31 H31           -3.6672     2.6277     0.2834 H       
  32 H32           -5.6666     3.9975    -0.1366 H       
  33 H33           -5.4642     6.4374    -0.3743 H       
  34 H34           -3.2638     7.5227    -0.1921 H       
  35 H35           -0.6336     6.5276     1.3166 H       
  36 H36           -0.1110     5.7217    -0.1820 H       
  37 H37           -0.8952     7.3179    -0.2567 H       
  38 H38            7.7558     1.8624     2.2770 H       
  39 H39            6.8892     4.1807     2.0676 H       
  40 H40            4.4977     4.5415     1.6013 H       
@<TRIPOS>BOND
   1    1    2 2
   2    1    4 1
   3    1   11 1
   4    2    3 1
   5    2    6 1
   6    3   12 3
   7    4    5 1
   8    5    6 2
   9    5    7 1
  10    6   10 1
  11    7    8 1
  12    7    9 2
  13    8   13 ar
  14    8   26 ar
  15   10   27 1
  16   10   28 1
  17   11   14 am
  18   11   29 1
  19   13   23 ar
  20   13   30 1
  21   14   15 1
  22   14   16 2
  23   15   17 ar
  24   15   21 ar
  25   17   18 ar
  26   17   31 1
  27   18   19 ar
  28   18   32 1
  29   19   20 ar
  30   19   33 1
  31   20   21 ar
  32   20   34 1
  33   21   22 1
  34   22   35 1
  35   22   36 1
  36   22   37 1
  37   23   24 ar
  38   23   38 1
  39   24   25 ar
  40   24   39 1
  41   25   26 ar
  42   25   40 1

#	End of record

