#	Name: ASD03370004
#	Creating user name:	WinNT
#	Creation time:	15. 06. 2019 20:40

#	Modifying user name:	WinNT
#	Modification time:	15. 06. 2019 20:40

#	Program:	/corina/corina34_cracker 3.40 0067  02.08.2006

@<TRIPOS>MOLECULE
ASD03370004
  43   45    0    0    0
SMALL
NO_CHARGES


@<TRIPOS>ATOM
   1 C1            -0.0579     1.7120    -0.7713 C.3     
   2 N2             0.4538     0.4482    -0.2226 N.am    
   3 C3            -0.0576    -0.7545    -0.8817 C.3     
   4 C4            -0.2699    -0.4509    -2.3921 C.3     
   5 S5            -1.0062     1.2335    -2.2680 S.3     
   6 C6             1.3660     2.1736    -1.0765 C.3     
   7 C7             1.7189     0.8503    -0.4519 C.2     
   8 C8             1.0603    -0.4235    -3.1476 C.3     
   9 C9            -1.2477    -1.4413    -3.0277 C.3     
  10 O10            2.7875     0.3217    -0.2290 O.2     
  11 N11            1.6771     2.2699    -2.5049 N.am    
  12 C12            2.7530     2.9706    -2.9145 C.2     
  13 C13            3.0730     3.0696    -4.3838 C.3     
  14 O14            3.4637     3.5214    -2.1006 O.2     
  15 C15            2.1958     4.1171    -5.0195 C.ar    
  16 C16            1.0702     3.7393    -5.7274 C.ar    
  17 C17            0.2655     4.7002    -6.3106 C.ar    
  18 C18            0.5862     6.0390    -6.1854 C.ar    
  19 C19            1.7113     6.4169    -5.4767 C.ar    
  20 C20            2.5136     5.4562    -4.8899 C.ar    
  21 N21            4.4835     3.4433    -4.5536 N.3     
  22 C22            0.9355    -1.8773    -0.7264 C.2     
  23 O23            1.9027    -1.7344    -0.0165 O.2     
  24 O24            0.7456    -3.0361    -1.3766 O.3     
  25 H25           -0.6034     2.3393    -0.0663 H       
  26 H26           -1.0064    -1.0439    -0.4299 H       
  27 H27            1.6897     3.0422    -0.5031 H       
  28 H28            1.4780    -1.4296    -3.1844 H       
  29 H29            0.8944    -0.0617    -4.1623 H       
  30 H30            1.7561     0.2402    -2.6343 H       
  31 H31           -2.2113    -1.3754    -2.5226 H       
  32 H32           -1.3736    -1.2008    -4.0833 H       
  33 H33           -0.8547    -2.4533    -2.9300 H       
  34 H34            1.1087     1.8293    -3.1558 H       
  35 H35            2.8924     2.1062    -4.8607 H       
  36 H36            0.8197     2.6933    -5.8252 H       
  37 H37           -0.6135     4.4049    -6.8643 H       
  38 H38           -0.0421     6.7897    -6.6416 H       
  39 H39            1.9620     7.4629    -5.3792 H       
  40 H40            3.3926     5.7515    -4.3362 H       
  41 H41            4.6765     4.3335    -4.1198 H       
  42 H42            5.0938     2.7253    -4.1928 H       
  43 H43            1.4094    -3.7269    -1.2458 H       
@<TRIPOS>BOND
   1    1    2 1
   2    1    6 1
   3    1    5 1
   4    1   25 1
   5    2    3 1
   6    2    7 am
   7    3    4 1
   8    3   22 1
   9    3   26 1
  10    4    5 1
  11    4    8 1
  12    4    9 1
  13    6    7 1
  14    6   11 1
  15    6   27 1
  16    7   10 2
  17    8   28 1
  18    8   29 1
  19    8   30 1
  20    9   31 1
  21    9   32 1
  22    9   33 1
  23   11   12 am
  24   11   34 1
  25   12   13 1
  26   12   14 2
  27   13   15 1
  28   13   21 1
  29   13   35 1
  30   15   16 ar
  31   15   20 ar
  32   16   17 ar
  33   16   36 1
  34   17   18 ar
  35   17   37 1
  36   18   19 ar
  37   18   38 1
  38   19   20 ar
  39   19   39 1
  40   20   40 1
  41   21   41 1
  42   21   42 1
  43   22   23 2
  44   22   24 1
  45   24   43 1

#	End of record

