#	Name: ASD05842007
#	Creating user name:	WinNT
#	Creation time:	15. 06. 2019 21:03

#	Modifying user name:	WinNT
#	Modification time:	15. 06. 2019 21:03

#	Program:	/corina/corina34_cracker 3.40 0067  02.08.2006

@<TRIPOS>MOLECULE
ASD05842007
  46   48    0    0    0
SMALL
NO_CHARGES


@<TRIPOS>ATOM
   1 C1            -0.1222     1.5444     0.1284 C.ar    
   2 C2            -0.0438     0.1786    -0.0699 C.ar    
   3 C3            -1.1973    -0.5826    -0.1009 C.ar    
   4 C4            -2.4291     0.0219     0.0670 C.ar    
   5 C5            -2.5074     1.3876     0.2662 C.ar    
   6 C6            -1.3536     2.1482     0.3015 C.ar    
   7 C7             1.1353     2.3743     0.1620 C.3     
   8 N8             1.4528     2.8374    -1.1954 N.3     
   9 C9             2.6756     3.6515    -1.2013 C.3     
  10 C10            2.9732     4.1144    -2.6289 C.3     
  11 C11            4.2276     4.9496    -2.6350 C.ar    
  12 C12            5.4580     4.3475    -2.8206 C.ar    
  13 C13            6.6086     5.1136    -2.8261 C.ar    
  14 C14            6.5288     6.4819    -2.6464 C.ar    
  15 C15            5.2983     7.0841    -2.4617 C.ar    
  16 C16            4.1473     6.3185    -2.4605 C.ar    
  17 C17           -3.6866    -0.8078     0.0322 C.3     
  18 Br18          -4.7495    -0.4547     1.6480 Br      
  19 C19           -4.4931    -0.4467    -1.1885 C.ar    
  20 C20           -4.6655    -1.3715    -2.2014 C.ar    
  21 C21           -5.4052    -1.0402    -3.3212 C.ar    
  22 C22           -5.9731     0.2156    -3.4278 C.ar    
  23 C23           -5.8016     1.1400    -2.4144 C.ar    
  24 C24           -5.0654     0.8073    -1.2927 C.ar    
  25 H25            0.9185    -0.2937    -0.2010 H       
  26 H26           -1.1361    -1.6496    -0.2565 H       
  27 H27           -3.4698     1.8599     0.3969 H       
  28 H28           -1.4148     3.2152     0.4571 H       
  29 H29            0.9852     3.2350     0.8138 H       
  30 H30            1.9592     1.7702     0.5419 H       
  31 H31            1.5332     2.0597    -1.8332 H       
  32 H32            2.5362     4.5211    -0.5590 H       
  33 H33            3.5102     3.0563    -0.8309 H       
  34 H34            3.1126     3.2448    -3.2712 H       
  35 H35            2.1386     4.7096    -2.9993 H       
  36 H36            5.5203     3.2784    -2.9610 H       
  37 H37            7.5700     4.6430    -2.9704 H       
  38 H38            7.4278     7.0803    -2.6500 H       
  39 H39            5.2360     8.1531    -2.3210 H       
  40 H40            3.1860     6.7891    -2.3162 H       
  41 H41           -3.4235    -1.8649    -0.0058 H       
  42 H42           -4.2218    -2.3526    -2.1182 H       
  43 H43           -5.5393    -1.7624    -4.1129 H       
  44 H44           -6.5505     0.4747    -4.3030 H       
  45 H45           -6.2449     2.1213    -2.4978 H       
  46 H46           -4.9314     1.5295    -0.5010 H       
@<TRIPOS>BOND
   1    1    2 ar
   2    1    7 1
   3    1    6 ar
   4    2    3 ar
   5    2   25 1
   6    3    4 ar
   7    3   26 1
   8    4    5 ar
   9    4   17 1
  10    5    6 ar
  11    5   27 1
  12    6   28 1
  13    7    8 1
  14    7   29 1
  15    7   30 1
  16    8    9 1
  17    8   31 1
  18    9   10 1
  19    9   32 1
  20    9   33 1
  21   10   11 1
  22   10   34 1
  23   10   35 1
  24   11   12 ar
  25   11   16 ar
  26   12   13 ar
  27   12   36 1
  28   13   14 ar
  29   13   37 1
  30   14   15 ar
  31   14   38 1
  32   15   16 ar
  33   15   39 1
  34   16   40 1
  35   17   18 1
  36   17   19 1
  37   17   41 1
  38   19   20 ar
  39   19   24 ar
  40   20   21 ar
  41   20   42 1
  42   21   22 ar
  43   21   43 1
  44   22   23 ar
  45   22   44 1
  46   23   24 ar
  47   23   45 1
  48   24   46 1

#	End of record

