#	Name: ASD01880169
#	Creating user name:	WinNT
#	Creation time:	15. 06. 2019 19:40

#	Modifying user name:	WinNT
#	Modification time:	15. 06. 2019 19:40

#	Program:	/corina/corina34_cracker 3.40 0067  02.08.2006

@<TRIPOS>MOLECULE
ASD01880169
  60   63    0    0    0
SMALL
NO_CHARGES


@<TRIPOS>ATOM
   1 C1            -0.0167     1.3774     0.0096 C.ar    
   2 C2             0.0021    -0.0041     0.0020 C.ar    
   3 C3            -1.1905    -0.7218     0.0096 C.ar    
   4 C4            -2.4028    -0.0681     0.0251 C.ar    
   5 C5            -2.4435     1.3219     0.0330 C.ar    
   6 C6            -1.2405     2.0505     0.0308 C.ar    
   7 O7             1.1905    -0.6653    -0.0134 O.3     
   8 C8             1.1384    -2.0933    -0.0205 C.3     
   9 C9             5.0629    -6.8352    -0.0850 C.ar    
  10 C10            5.0829    -8.2238    -0.0926 C.ar    
  11 C11            6.2854    -8.8973    -0.1135 C.ar    
  12 C12            7.4836    -8.1821    -0.1274 C.ar    
  13 C13            7.4596    -6.7868    -0.1201 C.ar    
  14 C14            6.2534    -6.1201    -0.0988 C.ar    
  15 C15            8.7762    -8.9012    -0.1493 C.2     
  16 N16            8.9455   -10.2070    -0.1582 N.2     
  17 N17           10.1961   -10.4979    -0.1779 N.2     
  18 N18           10.9075    -9.4231    -0.1829 N.2     
  19 N19           10.0109    -8.3403    -0.1699 N.pl3   
  20 Br20           1.6045     2.3508    -0.0006 Br      
  21 N21           -3.4733     2.2389     0.0478 N.pl3   
  22 C22           -2.9644     3.5090     0.0497 C.2     
  23 C23           -1.6228     3.4647     0.0405 C.2     
  24 C24           -4.8993     1.9033     0.0592 C.3     
  25 C25           -5.3535     1.6560     1.4991 C.3     
  26 C26           -5.1200     2.9183     2.3315 C.3     
  27 C27           -6.8428     1.3055     1.5110 C.3     
  28 C28            2.5612    -2.6556    -0.0377 C.3     
  29 C29            2.5053    -4.1845    -0.0453 C.3     
  30 C30            3.9282    -4.7468    -0.0625 C.3     
  31 O31            3.8760    -6.1748    -0.0696 O.3     
  32 C32           -4.5520     0.4968     2.0948 C.3     
  33 H33           -1.1650    -1.8015     0.0028 H       
  34 H34           -3.3220    -0.6352     0.0309 H       
  35 H35            0.6205    -2.4425     0.8728 H       
  36 H36            0.6028    -2.4329    -0.9070 H       
  37 H37            4.1552    -8.7767    -0.0819 H       
  38 H38            6.3003    -9.9772    -0.1187 H       
  39 H39            8.3849    -6.2300    -0.1305 H       
  40 H40            6.2340    -5.0403    -0.0931 H       
  41 H41           10.2286    -7.3951    -0.1702 H       
  42 H42           -3.5547     4.4134     0.0597 H       
  43 H43           -0.9522     4.3113     0.0398 H       
  44 H44           -5.4703     2.7291    -0.3652 H       
  45 H45           -5.0657     1.0040    -0.5338 H       
  46 H46           -5.6910     3.7441     1.9072 H       
  47 H47           -5.4436     2.7421     3.3573 H       
  48 H48           -4.0590     3.1680     2.3230 H       
  49 H49           -7.0091     0.4062     0.9180 H       
  50 H50           -7.1664     1.1293     2.5369 H       
  51 H51           -7.4138     2.1313     1.0867 H       
  52 H52            3.0791    -2.3065    -0.9310 H       
  53 H53            3.0968    -2.3160     0.8489 H       
  54 H54            1.9875    -4.5337     0.8480 H       
  55 H55            1.9698    -4.5241    -0.9318 H       
  56 H56            4.4461    -4.3977    -0.9558 H       
  57 H57            4.4638    -4.4072     0.8240 H       
  58 H58           -3.4910     0.7465     2.0863 H       
  59 H59           -4.8756     0.3206     3.1206 H       
  60 H60           -4.7183    -0.4025     1.5017 H       
@<TRIPOS>BOND
   1    1    2 ar
   2    1   20 1
   3    1    6 ar
   4    2    3 ar
   5    2    7 1
   6    3    4 ar
   7    3   33 1
   8    4    5 ar
   9    4   34 1
  10    5    6 ar
  11    5   21 1
  12    6   23 1
  13    7    8 1
  14    8   28 1
  15    8   35 1
  16    8   36 1
  17    9   10 ar
  18    9   14 ar
  19    9   31 1
  20   10   11 ar
  21   10   37 1
  22   11   12 ar
  23   11   38 1
  24   12   13 ar
  25   12   15 1
  26   13   14 ar
  27   13   39 1
  28   14   40 1
  29   15   16 2
  30   15   19 1
  31   16   17 1
  32   17   18 2
  33   18   19 1
  34   19   41 1
  35   21   22 1
  36   21   24 1
  37   22   23 2
  38   22   42 1
  39   23   43 1
  40   24   25 1
  41   24   44 1
  42   24   45 1
  43   25   26 1
  44   25   27 1
  45   25   32 1
  46   26   46 1
  47   26   47 1
  48   26   48 1
  49   27   49 1
  50   27   50 1
  51   27   51 1
  52   28   29 1
  53   28   52 1
  54   28   53 1
  55   29   30 1
  56   29   54 1
  57   29   55 1
  58   30   31 1
  59   30   56 1
  60   30   57 1
  61   32   58 1
  62   32   59 1
  63   32   60 1

#	End of record

