#	Name: ASD08178098
#	Creating user name:	WinNT
#	Creation time:	15. 06. 2019 21:18

#	Modifying user name:	WinNT
#	Modification time:	15. 06. 2019 21:18

#	Program:	/corina/corina34_cracker 3.40 0067  02.08.2006

@<TRIPOS>MOLECULE
ASD08178098
  65   70    0    0    0
SMALL
NO_CHARGES


@<TRIPOS>ATOM
   1 C1            -0.0184     1.5028     0.0103 C.2     
   2 C2             0.0021    -0.0041     0.0020 C.3     
   3 C3             0.0221    -0.5218     1.4416 C.3     
   4 C4             0.0906    -4.2741     3.3609 C.3     
   5 C5             0.1086    -4.6210     4.8273 C.2     
   6 N6            -0.9281    -4.8115     5.5801 N.2     
   7 N7            -0.7035    -5.0951     6.7896 N.2     
   8 C8             0.5358    -5.1706     7.1711 C.2     
   9 S9             1.5453    -4.8479     5.8252 S.3     
  10 N10            0.9711    -5.4695     8.4577 N.am    
  11 N11            1.0171     2.2809     0.0046 N.2     
  12 C12            0.0736    -5.7112     9.4337 C.2     
  13 O13           -1.1137    -5.6681     9.1899 O.2     
  14 C14            0.5452    -6.0351    10.8278 C.3     
  15 C15           -0.6469    -6.2610    11.7217 C.2     
  16 N16            0.7904     3.5228     0.0134 N.2     
  17 C17           -0.4495     3.9094     0.0274 C.2     
  18 S18           -1.4568     2.5237     0.0218 S.3     
  19 N19           -0.8870     5.2295     0.0390 N.am    
  20 C20            0.0089     6.2364     0.0358 C.2     
  21 O21            1.1967     5.9912     0.0228 O.2     
  22 C22           -0.4651     7.6668     0.0485 C.3     
  23 C23            0.7256     8.5906     0.0419 C.2     
  24 C24            0.0684    -2.7531     3.1968 C.3     
  25 S25            0.0467    -2.3356     1.4317 S.3     
  26 O26            1.3448     9.0560     1.1409 O.3     
  27 C27            2.3748     9.8596     0.8083 C.ar    
  28 C28            2.4235     9.9167    -0.5946 C.ar    
  29 C29            1.3240     9.0628    -1.0601 C.2     
  30 C30            3.3080    10.5743     1.5490 C.ar    
  31 C31            4.2653    11.3268     0.9027 C.ar    
  32 C32            4.3081    11.3791    -0.4831 C.ar    
  33 C33            3.3993    10.6826    -1.2306 C.ar    
  34 C34           -1.3928    -7.5131    11.8965 C.ar    
  35 C35           -2.4058    -7.2198    12.8247 C.ar    
  36 O36           -2.2730    -5.9224    13.1658 O.3     
  37 C37           -1.2354    -5.3609    12.5210 C.2     
  38 C38           -1.2829    -8.7960    11.3623 C.ar    
  39 C39           -2.1653    -9.7677    11.7456 C.ar    
  40 C40           -3.1678    -9.4843    12.6619 C.ar    
  41 C41           -3.2920    -8.2216    13.2007 C.ar    
  42 H42           -0.8875    -0.3767    -0.5057 H       
  43 H43            0.8922    -0.3525    -0.5218 H       
  44 H44            0.9118    -0.1491     1.9494 H       
  45 H45           -0.8680    -0.1733     1.9655 H       
  46 H46            0.9818    -4.6784     2.8810 H       
  47 H47           -0.7979    -4.7026     2.8970 H       
  48 H48            1.9207    -5.5040     8.6527 H       
  49 H49            1.1575    -6.9366    10.8040 H       
  50 H50            1.1363    -5.2045    11.2136 H       
  51 H51           -1.8369     5.4256     0.0495 H       
  52 H52           -1.0758     7.8550    -0.8345 H       
  53 H53           -1.0583     7.8451     0.9454 H       
  54 H54           -0.8229    -2.3488     3.6768 H       
  55 H55            0.9569    -2.3246     3.6607 H       
  56 H56            1.0485     8.8612    -2.0847 H       
  57 H57            3.2833    10.5408     2.6282 H       
  58 H58            4.9892    11.8816     1.4811 H       
  59 H59            5.0642    11.9735    -0.9745 H       
  60 H60            3.4371    10.7262    -2.3090 H       
  61 H61           -0.9254    -4.3317    12.6266 H       
  62 H62           -0.5044    -9.0214    10.6485 H       
  63 H63           -2.0815   -10.7620    11.3323 H       
  64 H64           -3.8581   -10.2611    12.9560 H       
  65 H65           -4.0760    -8.0116    13.9132 H       
@<TRIPOS>BOND
   1    1    2 1
   2    1   11 2
   3    1   18 1
   4    2    3 1
   5    2   42 1
   6    2   43 1
   7    3   25 1
   8    3   44 1
   9    3   45 1
  10    4    5 1
  11    4   24 1
  12    4   46 1
  13    4   47 1
  14    5    6 2
  15    5    9 1
  16    6    7 1
  17    7    8 2
  18    8    9 1
  19    8   10 1
  20   10   12 am
  21   10   48 1
  22   11   16 1
  23   12   13 2
  24   12   14 1
  25   14   15 1
  26   14   49 1
  27   14   50 1
  28   15   34 1
  29   15   37 2
  30   16   17 2
  31   17   18 1
  32   17   19 1
  33   19   20 am
  34   19   51 1
  35   20   21 2
  36   20   22 1
  37   22   23 1
  38   22   52 1
  39   22   53 1
  40   23   26 1
  41   23   29 2
  42   24   25 1
  43   24   54 1
  44   24   55 1
  45   26   27 1
  46   27   28 ar
  47   27   30 ar
  48   28   29 1
  49   28   33 ar
  50   29   56 1
  51   30   31 ar
  52   30   57 1
  53   31   32 ar
  54   31   58 1
  55   32   33 ar
  56   32   59 1
  57   33   60 1
  58   34   35 ar
  59   34   38 ar
  60   35   36 1
  61   35   41 ar
  62   36   37 1
  63   37   61 1
  64   38   39 ar
  65   38   62 1
  66   39   40 ar
  67   39   63 1
  68   40   41 ar
  69   40   64 1
  70   41   65 1

#	End of record

