#	Name: ASD01180258
#	Creating user name:	WinNT
#	Creation time:	15. 06. 2019 19:07

#	Modifying user name:	WinNT
#	Modification time:	15. 06. 2019 19:07

#	Program:	/corina/corina34_cracker 3.40 0067  02.08.2006

@<TRIPOS>MOLECULE
ASD01180258
  61   63    0    0    0
SMALL
NO_CHARGES


@<TRIPOS>ATOM
   1 C1            -0.0184     1.5028     0.0103 C.2     
   2 C2             0.0021    -0.0041     0.0020 C.3     
   3 C3             1.4513    -0.4944    -0.0145 C.3     
   4 O4             1.0197     2.1211     0.0037 O.2     
   5 O5            -1.1898     2.1580     0.0194 O.3     
   6 C6             2.6473    -2.6171    -0.0373 C.2     
   7 C7             2.6674    -4.0954    -0.0454 C.ar    
   8 C8             3.8837    -4.7799    -0.0607 C.ar    
   9 C9             3.8954    -6.1594    -0.0677 C.ar    
  10 C10            2.7049    -6.8644    -0.0601 C.ar    
  11 C11            1.4958    -6.1920    -0.0450 C.ar    
  12 C12            1.4701    -4.8127    -0.0320 C.ar    
  13 O13            3.6916    -1.9951    -0.0439 O.2     
  14 N14            1.4712    -1.9592    -0.0225 N.am    
  15 C15            2.7254    -8.3712    -0.0689 C.3     
  16 C16            2.4957    -8.8926     1.3511 C.3     
  17 C17            2.6401   -10.4157     1.3646 C.3     
  18 C18            2.4104   -10.9372     2.7846 C.3     
  19 N19            1.6654    -8.8688    -0.9493 N.pl3   
  20 C20            2.8985   -10.9201    -1.2930 C.ar    
  21 C21            1.7810   -10.1299    -1.5373 C.ar    
  22 C22            0.7772   -10.6116    -2.3759 C.ar    
  23 C23            0.9329   -11.8661    -2.9365 C.ar    
  24 C24            2.0802   -12.6018    -2.6463 C.ar    
  25 N25            3.0149   -12.1107    -1.8428 N.ar    
  26 C26            2.2583   -13.9484    -3.2417 C.ar    
  27 C27            3.4020   -14.6929    -2.9583 C.ar    
  28 C28            3.5623   -15.9454    -3.5151 C.ar    
  29 C29            2.5907   -16.4622    -4.3531 C.ar    
  30 C30            1.4536   -15.7278    -4.6379 C.ar    
  31 C31            1.2799   -14.4766    -4.0822 C.ar    
  32 C32            2.7719   -17.8303    -4.9585 C.3     
  33 F33            2.2196   -18.7937    -4.1075 F       
  34 F34            2.1279   -17.8802    -6.1995 F       
  35 F35            4.1363   -18.0872    -5.1305 F       
  36 H36           -0.4983    -0.3791     0.8948 H       
  37 H37           -0.5153    -0.3696    -0.8850 H       
  38 H38            1.9516    -0.1193    -0.9073 H       
  39 H39            1.9686    -0.1289     0.8726 H       
  40 H40           -1.1523     3.1243     0.0245 H       
  41 H41            4.8137    -4.2307    -0.0674 H       
  42 H42            4.8359    -6.6902    -0.0796 H       
  43 H43            0.5700    -6.7482    -0.0391 H       
  44 H44            0.5257    -4.2891    -0.0157 H       
  45 H45            0.6378    -2.4556    -0.0172 H       
  46 H46            3.6924    -8.7193    -0.4318 H       
  47 H47            3.2317    -8.4519     2.0234 H       
  48 H48            1.4932    -8.6197     1.6806 H       
  49 H49            1.9040   -10.8565     0.6922 H       
  50 H50            3.6426   -10.6886     1.0351 H       
  51 H51            3.1464   -10.4964     3.4570 H       
  52 H52            1.4079   -10.6643     3.1141 H       
  53 H53            2.5132   -12.0223     2.7942 H       
  54 H54            0.8833    -8.3222    -1.1236 H       
  55 H55            3.6822   -10.5513    -0.6479 H       
  56 H56           -0.1017   -10.0191    -2.5827 H       
  57 H57            0.1747   -12.2707    -3.5906 H       
  58 H58            4.1614   -14.2902    -2.3044 H       
  59 H59            4.4483   -16.5231    -3.2965 H       
  60 H60            0.6984   -16.1361    -5.2932 H       
  61 H61            0.3896   -13.9059    -4.3017 H       
@<TRIPOS>BOND
   1    1    2 1
   2    1    4 2
   3    1    5 1
   4    2    3 1
   5    2   36 1
   6    2   37 1
   7    3   14 1
   8    3   38 1
   9    3   39 1
  10    5   40 1
  11    6    7 1
  12    6   13 2
  13    6   14 am
  14    7    8 ar
  15    7   12 ar
  16    8    9 ar
  17    8   41 1
  18    9   10 ar
  19    9   42 1
  20   10   11 ar
  21   10   15 1
  22   11   12 ar
  23   11   43 1
  24   12   44 1
  25   14   45 1
  26   15   16 1
  27   15   19 1
  28   15   46 1
  29   16   17 1
  30   16   47 1
  31   16   48 1
  32   17   18 1
  33   17   49 1
  34   17   50 1
  35   18   51 1
  36   18   52 1
  37   18   53 1
  38   19   21 1
  39   19   54 1
  40   20   21 ar
  41   20   25 ar
  42   20   55 1
  43   21   22 ar
  44   22   23 ar
  45   22   56 1
  46   23   24 ar
  47   23   57 1
  48   24   25 ar
  49   24   26 1
  50   26   27 ar
  51   26   31 ar
  52   27   28 ar
  53   27   58 1
  54   28   29 ar
  55   28   59 1
  56   29   30 ar
  57   29   32 1
  58   30   31 ar
  59   30   60 1
  60   31   61 1
  61   32   33 1
  62   32   34 1
  63   32   35 1

#	End of record

