#	Name: ASD05430183
#	Creating user name:	WinNT
#	Creation time:	15. 06. 2019 20:59

#	Modifying user name:	WinNT
#	Modification time:	15. 06. 2019 20:59

#	Program:	/corina/corina34_cracker 3.40 0067  02.08.2006

@<TRIPOS>MOLECULE
ASD05430183
  64   69    0    0    0
SMALL
NO_CHARGES


@<TRIPOS>ATOM
   1 C1             5.0729    -1.2335     0.7721 C.ar    
   2 C2             6.1382    -0.9085     1.6080 C.ar    
   3 C3             6.3978     0.4200     1.9100 C.ar    
   4 C4             5.6000     1.4171     1.3817 C.ar    
   5 C5             4.5422     1.0939     0.5517 C.ar    
   6 C6             4.2774    -0.2278     0.2462 C.ar    
   7 C7             5.5617     3.1641    -1.3164 C.3     
   8 C8             4.1719     2.5479    -1.4226 C.3     
   9 C9             3.6758     2.1858    -0.0213 C.3     
  10 C10            5.8213     4.2027    -2.3957 C.3     
  11 C11            4.9681     4.0342    -3.6548 C.3     
  12 N12            3.5651     4.1159    -3.2424 N.pl3   
  13 C13            3.1976     3.5034    -2.0590 C.2     
  14 N14            2.0583     3.7564    -1.5253 N.2     
  15 C15            1.7684     3.8110    -4.8461 C.ar    
  16 C16            1.4097     4.1052    -6.1484 C.ar    
  17 N17            6.9470    -1.9229     2.1439 N.pl3   
  18 C18            6.5202    -3.0417     2.7844 C.2     
  19 C19            8.3164    -1.9742     2.1141 C.2     
  20 C20            8.6778    -3.1118     2.7378 C.2     
  21 N21            7.5635    -3.7430     3.1361 N.2     
  22 C22           10.0900    -3.5944     2.9477 C.3     
  23 C23            2.5551     4.8103    -4.0378 C.3     
  24 C24            1.6178     5.5514    -3.0767 C.3     
  25 O25            1.1304     4.6530    -2.0859 O.3     
  26 C26            0.6879     3.1897    -6.8905 C.ar    
  27 C27            0.3240     1.9774    -6.3293 C.ar    
  28 C28            0.6839     1.6838    -5.0249 C.ar    
  29 C29            1.4012     2.6030    -4.2830 C.ar    
  30 F30           -0.3820     1.0818    -7.0536 F       
  31 C31            3.7082    -2.7921    -0.3952 C.3     
  32 O32            4.8172    -2.5336     0.4682 O.3     
  33 C33            5.8382     5.6472    -1.8692 C.3     
  34 O34            6.9993     5.8172    -2.7078 O.3     
  35 C35            7.3135     4.4096    -2.7041 C.3     
  36 H36            7.2230     0.6753     2.5582 H       
  37 H37            5.8030     2.4512     1.6180 H       
  38 H38            3.4503    -0.4769    -0.4020 H       
  39 H39            5.6640     3.6372    -0.3397 H       
  40 H40            6.3060     2.3724    -1.4024 H       
  41 H41            4.2282     1.6421    -2.0263 H       
  42 H42            2.6444     1.8383    -0.0795 H       
  43 H43            3.7273     3.0651     0.6208 H       
  44 H44            5.1931     4.8301    -4.3647 H       
  45 H45            5.1653     3.0634    -4.1095 H       
  46 H46            1.6933     5.0510    -6.5859 H       
  47 H47            5.4901    -3.3065     2.9720 H       
  48 H48            8.9784    -1.2428     1.6745 H       
  49 H49           10.4693    -3.2075     3.8935 H       
  50 H50           10.1020    -4.6841     2.9698 H       
  51 H51           10.7199    -3.2405     2.1316 H       
  52 H52            3.0386     5.5246    -4.7042 H       
  53 H53            2.1625     6.3625    -2.5934 H       
  54 H54            0.7781     5.9638    -3.6360 H       
  55 H55            0.4074     3.4199    -7.9077 H       
  56 H56            0.4007     0.7385    -4.5861 H       
  57 H57            1.6820     2.3742    -3.2655 H       
  58 H58            2.7948    -2.4134     0.0634 H       
  59 H59            3.8683    -2.2938    -1.3513 H       
  60 H60            3.6157    -3.8661    -0.5562 H       
  61 H61            4.9784     6.2404    -2.1806 H       
  62 H62            6.0489     5.7256    -0.8027 H       
  63 H63            7.9774     4.1078    -1.8940 H       
  64 H64            7.6208     4.0235    -3.6760 H       
@<TRIPOS>BOND
   1    1    2 ar
   2    1    6 ar
   3    1   32 1
   4    2    3 ar
   5    2   17 1
   6    3    4 ar
   7    3   36 1
   8    4    5 ar
   9    4   37 1
  10    5    6 ar
  11    5    9 1
  12    6   38 1
  13    7    8 1
  14    7   10 1
  15    7   39 1
  16    7   40 1
  17    8    9 1
  18    8   13 1
  19    8   41 1
  20    9   42 1
  21    9   43 1
  22   10   11 1
  23   10   33 1
  24   10   35 1
  25   11   12 1
  26   11   44 1
  27   11   45 1
  28   12   13 1
  29   12   23 1
  30   13   14 2
  31   14   25 1
  32   15   16 ar
  33   15   23 1
  34   15   29 ar
  35   16   26 ar
  36   16   46 1
  37   17   18 1
  38   17   19 1
  39   18   21 2
  40   18   47 1
  41   19   20 2
  42   19   48 1
  43   20   21 1
  44   20   22 1
  45   22   49 1
  46   22   50 1
  47   22   51 1
  48   23   24 1
  49   23   52 1
  50   24   25 1
  51   24   53 1
  52   24   54 1
  53   26   27 ar
  54   26   55 1
  55   27   28 ar
  56   27   30 1
  57   28   29 ar
  58   28   56 1
  59   29   57 1
  60   31   32 1
  61   31   58 1
  62   31   59 1
  63   31   60 1
  64   33   34 1
  65   33   61 1
  66   33   62 1
  67   34   35 1
  68   35   63 1
  69   35   64 1

#	End of record

