#	Name: ASD03330162
#	Creating user name:	WinNT
#	Creation time:	15. 06. 2019 20:36

#	Modifying user name:	WinNT
#	Modification time:	15. 06. 2019 20:36

#	Program:	/corina/corina34_cracker 3.40 0067  02.08.2006

@<TRIPOS>MOLECULE
ASD03330162
  40   41    0    0    0
SMALL
NO_CHARGES


@<TRIPOS>ATOM
   1 C1             0.0005     1.3114    -0.0463 C.2     
   2 C2             0.0462    -0.1301    -0.2937 C.2     
   3 C3             1.1915    -0.8279    -0.0483 C.2     
   4 O4             0.9510     1.8711     0.4696 O.2     
   5 C5            -1.1530    -0.8319    -0.8113 C.ar    
   6 C6            -2.2934    -0.9447    -0.0175 C.ar    
   7 C7            -3.4075    -1.5978    -0.5022 C.ar    
   8 C8            -3.3940    -2.1423    -1.7788 C.ar    
   9 C9            -2.2601    -2.0322    -2.5716 C.ar    
  10 C10           -1.1446    -1.3754    -2.0951 C.ar    
  11 O11           -4.4935    -2.7853    -2.2535 O.3     
  12 C12           -4.4111    -3.3219    -3.5754 C.3     
  13 N13            1.1515    -2.1857     0.0639 N.pl3   
  14 C14           -0.1375    -2.8815     0.0820 C.3     
  15 C15            2.3976    -2.9493     0.1665 C.3     
  16 C16           -1.1973     2.0893    -0.4282 C.ar    
  17 C17           -1.4382     2.3936    -1.7707 C.ar    
  18 C18           -2.5592     3.1207    -2.1195 C.ar    
  19 C19           -3.4418     3.5470    -1.1434 C.ar    
  20 C20           -3.2084     3.2492     0.1877 C.ar    
  21 C21           -2.0960     2.5184     0.5500 C.ar    
  22 Cl22          -0.3310     1.8595    -2.9964 Cl      
  23 H23            2.1305    -0.3047     0.0571 H       
  24 H24           -2.3045    -0.5215     0.9761 H       
  25 H25           -4.2912    -1.6858     0.1124 H       
  26 H26           -2.2525    -2.4576    -3.5643 H       
  27 H27           -0.2643    -1.2858    -2.7143 H       
  28 H28           -3.6025    -4.0513    -3.6217 H       
  29 H29           -5.3533    -3.8072    -3.8299 H       
  30 H30           -4.2146    -2.5163    -4.2829 H       
  31 H31           -0.4579    -3.0797    -0.9408 H       
  32 H32           -0.0341    -3.8242     0.6195 H       
  33 H33           -0.8798    -2.2585     0.5810 H       
  34 H34            3.2461    -2.2658     0.1357 H       
  35 H35            2.4094    -3.5010     1.1065 H       
  36 H36            2.4644    -3.6492    -0.6665 H       
  37 H37           -2.7471     3.3572    -3.1564 H       
  38 H38           -4.3171     4.1154    -1.4215 H       
  39 H39           -3.9014     3.5860     0.9444 H       
  40 H40           -1.9182     2.2829     1.5889 H       
@<TRIPOS>BOND
   1    1    2 1
   2    1    4 2
   3    1   16 1
   4    2    3 2
   5    2    5 1
   6    3   13 1
   7    3   23 1
   8    5    6 ar
   9    5   10 ar
  10    6    7 ar
  11    6   24 1
  12    7    8 ar
  13    7   25 1
  14    8    9 ar
  15    8   11 1
  16    9   10 ar
  17    9   26 1
  18   10   27 1
  19   11   12 1
  20   12   28 1
  21   12   29 1
  22   12   30 1
  23   13   14 1
  24   13   15 1
  25   14   31 1
  26   14   32 1
  27   14   33 1
  28   15   34 1
  29   15   35 1
  30   15   36 1
  31   16   17 ar
  32   16   21 ar
  33   17   18 ar
  34   17   22 1
  35   18   19 ar
  36   18   37 1
  37   19   20 ar
  38   19   38 1
  39   20   21 ar
  40   20   39 1
  41   21   40 1

#	End of record

