#	Name: ASD03200050
#	Creating user name:	WinNT
#	Creation time:	15. 06. 2019 20:34

#	Modifying user name:	WinNT
#	Modification time:	15. 06. 2019 20:34

#	Program:	/corina/corina34_cracker 3.40 0067  02.08.2006

@<TRIPOS>MOLECULE
ASD03200050
  58   61    0    0    0
SMALL
NO_CHARGES


@<TRIPOS>ATOM
   1 C1            -0.0627     1.5037    -0.0282 C.3     
   2 N2            -0.0288     0.0357    -0.0149 N.3     
   3 C3             0.6344    -0.4692     1.1942 C.3     
   4 C4             2.0854     0.0165     1.2223 C.3     
   5 C5             2.1064     1.5475     1.2075 C.3     
   6 C6             1.3675     2.0482    -0.0366 C.3     
   7 C7            -1.3119    -0.4949    -0.1394 C.ar    
   8 C8            -2.2750    -0.2744     0.8421 C.ar    
   9 C9            -3.5342    -0.8163     0.6819 C.ar    
  10 N10           -3.8335    -1.5361    -0.3828 N.ar    
  11 C11           -2.9528    -1.7706    -1.3375 C.ar    
  12 C12           -1.6684    -1.2586    -1.2573 C.ar    
  13 N13           -0.7369    -1.5105    -2.2736 N.am    
  14 C14           -0.7593    -2.6864    -2.9320 C.2     
  15 C15            0.1295    -2.9023    -4.0756 C.2     
  16 O16           -1.5186    -3.5691    -2.5758 O.2     
  17 C17            0.1549    -4.0784    -4.7888 C.2     
  18 S18            1.3556    -3.9107    -6.0675 S.3     
  19 C19            1.7143    -2.2747    -5.5270 C.2     
  20 N20            0.9803    -1.9713    -4.5178 N.2     
  21 C21            2.7310    -1.3603    -6.1605 C.3     
  22 N22            2.7405    -0.4699     2.4390 N.am    
  23 C23            4.0700    -1.5634    -5.4996 C.ar    
  24 C24            4.9501    -2.5064    -5.9965 C.ar    
  25 C25            4.0794    -0.6209     2.4692 C.2     
  26 C26            4.7533    -1.1212     3.7208 C.3     
  27 O27            4.7419    -0.3541     1.4890 O.2     
  28 F28            6.1344    -1.1938     3.5097 F       
  29 F29            4.4885    -0.2421     4.7763 F       
  30 F30            4.2626    -2.3923     4.0383 F       
  31 C31            4.4205    -0.8027    -4.3998 C.ar    
  32 C32            5.6488    -0.9890    -3.7936 C.ar    
  33 C33            6.5264    -1.9363    -4.2868 C.ar    
  34 C34            6.1784    -2.6928    -5.3902 C.ar    
  35 N35           -0.6229    -5.1939    -4.5450 N.pl3   
  36 H36           -0.5872     1.8467    -0.9201 H       
  37 H37           -0.5830     1.8630     0.8596 H       
  38 H38            0.1109    -0.1006     2.0763 H       
  39 H39            0.6162    -1.5590     1.1902 H       
  40 H40            2.6132    -0.3632     0.3475 H       
  41 H41            1.6126     1.9272     2.1019 H       
  42 H42            3.1384     1.8974     1.1837 H       
  43 H43            1.8840     1.7006    -0.9312 H       
  44 H44            1.3420     3.1379    -0.0307 H       
  45 H45           -2.0395     0.3128     1.7174 H       
  46 H46           -4.2857    -0.6491     1.4394 H       
  47 H47           -3.2380    -2.3653    -2.1927 H       
  48 H48           -0.0761    -0.8386    -2.5033 H       
  49 H49            2.8121    -1.5880    -7.2233 H       
  50 H50            2.4167    -0.3243    -6.0338 H       
  51 H51            2.2106    -0.6833     3.2230 H       
  52 H52            4.6780    -3.0979    -6.8582 H       
  53 H53            3.7348    -0.0626    -4.0145 H       
  54 H54            5.9228    -0.3942    -2.9348 H       
  55 H55            7.4862    -2.0816    -3.8134 H       
  56 H56            6.8641    -3.4328    -5.7756 H       
  57 H57           -1.2593    -5.1910    -3.8129 H       
  58 H58           -0.5326    -5.9801    -5.1059 H       
@<TRIPOS>BOND
   1    1    2 1
   2    1    6 1
   3    1   36 1
   4    1   37 1
   5    2    3 1
   6    2    7 1
   7    3    4 1
   8    3   38 1
   9    3   39 1
  10    4    5 1
  11    4   22 1
  12    4   40 1
  13    5    6 1
  14    5   41 1
  15    5   42 1
  16    6   43 1
  17    6   44 1
  18    7    8 ar
  19    7   12 ar
  20    8    9 ar
  21    8   45 1
  22    9   10 ar
  23    9   46 1
  24   10   11 ar
  25   11   12 ar
  26   11   47 1
  27   12   13 1
  28   13   14 am
  29   13   48 1
  30   14   15 1
  31   14   16 2
  32   15   17 2
  33   15   20 1
  34   17   18 1
  35   17   35 1
  36   18   19 1
  37   19   20 2
  38   19   21 1
  39   21   23 1
  40   21   49 1
  41   21   50 1
  42   22   25 am
  43   22   51 1
  44   23   24 ar
  45   23   31 ar
  46   24   34 ar
  47   24   52 1
  48   25   26 1
  49   25   27 2
  50   26   28 1
  51   26   29 1
  52   26   30 1
  53   31   32 ar
  54   31   53 1
  55   32   33 ar
  56   32   54 1
  57   33   34 ar
  58   33   55 1
  59   34   56 1
  60   35   57 1
  61   35   58 1

#	End of record

