#	Name: ASD06170030
#	Creating user name:	WinNT
#	Creation time:	15. 06. 2019 21:05

#	Modifying user name:	WinNT
#	Modification time:	15. 06. 2019 21:05

#	Program:	/corina/corina34_cracker 3.40 0067  02.08.2006

@<TRIPOS>MOLECULE
ASD06170030
  66   71    0    0    0
SMALL
NO_CHARGES


@<TRIPOS>ATOM
   1 N1             0.6241     0.3318     1.1360 N.pl3   
   2 N2             0.1803    -0.3620     0.0067 N.am    
   3 C3             1.2229    -0.5675    -0.8223 C.2     
   4 C4             2.4018     0.0291    -0.1868 C.2     
   5 C5             1.9644     0.5725     1.0283 C.2     
   6 C6             3.7655     0.0520    -0.7165 C.2     
   7 O7             4.6325     0.6822    -0.1389 O.2     
   8 N8             4.0619    -0.6245    -1.8439 N.am    
   9 C9            -1.1351    -0.7765    -0.2259 C.ar    
  10 C10           -1.8943    -1.2985     0.8134 C.ar    
  11 C11           -3.1931    -1.7064     0.5805 C.ar    
  12 C12           -3.7377    -1.5956    -0.6857 C.ar    
  13 C13           -2.9845    -1.0762    -1.7226 C.ar    
  14 C14           -1.6869    -0.6616    -1.4953 C.ar    
  15 O15            1.1917    -1.1404    -1.8961 O.2     
  16 S16            3.6244     2.4203     4.0823 S.3     
  17 C17            4.6602     2.2484     2.7360 C.2     
  18 N18            4.0627     1.6391     1.7746 N.2     
  19 C19            2.7983     1.2756     2.0111 C.2     
  20 C20            2.3582     1.6229     3.2559 C.2     
  21 C21            6.0824     2.7438     2.6820 C.3     
  22 C22           -0.2202     0.7433     2.2602 C.3     
  23 C23            5.3918    -0.7259    -2.2704 C.ar    
  24 C24            6.3031     0.2709    -1.9462 C.ar    
  25 C25            7.6157     0.1697    -2.3673 C.ar    
  26 C26            8.0224    -0.9293    -3.1145 C.ar    
  27 C27            7.1119    -1.9237    -3.4374 C.ar    
  28 C28            5.8010    -1.8256    -3.0124 C.ar    
  29 O29            9.3138    -1.0291    -3.5293 O.3     
  30 N30           12.1750    -1.9009    -0.6899 N.ar    
  31 C31           10.9030    -1.8990    -0.3664 C.ar    
  32 C32            9.9116    -1.6101    -1.2952 C.ar    
  33 C33           10.2600    -1.3144    -2.6016 C.ar    
  34 C34           11.6326    -1.3194    -2.9389 C.ar    
  35 C35           12.0624    -1.0292    -4.2420 C.ar    
  36 C36           13.3913    -1.0416    -4.5354 C.ar    
  37 C37           14.3381    -1.3409    -3.5516 C.ar    
  38 C38           13.9478    -1.6300    -2.2635 C.ar    
  39 C39           12.5831    -1.6241    -1.9341 C.ar    
  40 O40           15.6585    -1.3470    -3.8703 O.3     
  41 C41           16.0007    -1.0396    -5.2233 C.3     
  42 F42            8.5029     1.1389    -2.0529 F       
  43 H43            3.3541    -1.0411    -2.3599 H       
  44 H44           -1.4694    -1.3856     1.8025 H       
  45 H45           -3.7838    -2.1128     1.3881 H       
  46 H46           -4.7534    -1.9156    -0.8653 H       
  47 H47           -3.4126    -0.9913    -2.7105 H       
  48 H48           -1.1005    -0.2523    -2.3046 H       
  49 H49            1.3732     1.4263     3.6529 H       
  50 H50            6.3369     3.2215     3.6282 H       
  51 H51            6.7537     1.9029     2.5075 H       
  52 H52            6.1854     3.4652     1.8715 H       
  53 H53           -1.2609     0.5068     2.0387 H       
  54 H54            0.0893     0.2125     3.1605 H       
  55 H55           -0.1172     1.8169     2.4180 H       
  56 H56            5.9862     1.1248    -1.3658 H       
  57 H57            7.4285    -2.7775    -4.0181 H       
  58 H58            5.0934    -2.6027    -3.2610 H       
  59 H59           10.6195    -2.1287     0.6501 H       
  60 H60            8.8730    -1.6166    -0.9993 H       
  61 H61           11.3405    -0.7968    -5.0109 H       
  62 H62           13.7181    -0.8179    -5.5402 H       
  63 H63           14.6873    -1.8603    -1.5108 H       
  64 H64           15.5351    -1.7657    -5.8898 H       
  65 H65           15.6445    -0.0394    -5.4699 H       
  66 H66           17.0834    -1.0793    -5.3422 H       
@<TRIPOS>BOND
   1    1    2 1
   2    1    5 1
   3    1   22 1
   4    2    3 am
   5    2    9 1
   6    3    4 1
   7    3   15 2
   8    4    5 2
   9    4    6 1
  10    5   19 1
  11    6    7 2
  12    6    8 am
  13    8   23 1
  14    8   43 1
  15    9   10 ar
  16    9   14 ar
  17   10   11 ar
  18   10   44 1
  19   11   12 ar
  20   11   45 1
  21   12   13 ar
  22   12   46 1
  23   13   14 ar
  24   13   47 1
  25   14   48 1
  26   16   17 1
  27   16   20 1
  28   17   18 2
  29   17   21 1
  30   18   19 1
  31   19   20 2
  32   20   49 1
  33   21   50 1
  34   21   51 1
  35   21   52 1
  36   22   53 1
  37   22   54 1
  38   22   55 1
  39   23   24 ar
  40   23   28 ar
  41   24   25 ar
  42   24   56 1
  43   25   26 ar
  44   25   42 1
  45   26   27 ar
  46   26   29 1
  47   27   28 ar
  48   27   57 1
  49   28   58 1
  50   29   33 1
  51   30   31 ar
  52   30   39 ar
  53   31   32 ar
  54   31   59 1
  55   32   33 ar
  56   32   60 1
  57   33   34 ar
  58   34   35 ar
  59   34   39 ar
  60   35   36 ar
  61   35   61 1
  62   36   37 ar
  63   36   62 1
  64   37   38 ar
  65   37   40 1
  66   38   39 ar
  67   38   63 1
  68   40   41 1
  69   41   64 1
  70   41   65 1
  71   41   66 1

#	End of record

