#	Name: ASD01410898
#	Creating user name:	WinNT
#	Creation time:	15. 06. 2019 19:18

#	Modifying user name:	WinNT
#	Modification time:	15. 06. 2019 19:18

#	Program:	/corina/corina34_cracker 3.40 0067  02.08.2006

@<TRIPOS>MOLECULE
ASD01410898
  69   70    0    0    0
SMALL
NO_CHARGES


@<TRIPOS>ATOM
   1 S1            -0.6855     1.3675    -0.8122 S.3     
   2 C2            -0.3087    -0.3498    -0.8084 C.2     
   3 C3             0.8999    -0.5565    -0.1853 C.2     
   4 C4             1.5068     0.5885     0.2714 C.2     
   5 C5             0.8113     1.7382     0.0317 C.2     
   6 C6             1.2380     3.0515     0.4109 C.1     
   7 C7             1.5877     4.1282     0.7217 C.1     
   8 C8             2.0263     5.4782     1.1115 C.3     
   9 C9             3.3771     5.3896     1.8244 C.3     
  10 C10            2.1654     6.3499    -0.1382 C.3     
  11 C11           -1.1242    -1.3639    -1.3612 C.2     
  12 N12            1.4628    -1.8240    -0.0292 N.am    
  13 O13           -2.3448    -1.0573    -1.8497 O.3     
  14 O14           -0.7257    -2.5136    -1.3967 O.2     
  15 C15            1.3456    -2.5248     1.2519 C.3     
  16 C16            2.1141    -2.4033    -1.0572 C.2     
  17 C17            2.6298    -3.8130    -0.9239 C.3     
  18 O18            2.2852    -1.7901    -2.0895 O.2     
  19 C19            1.9611    -1.6680     2.3601 C.3     
  20 C20           -0.1091    -2.7725     1.5578 C.2     
  21 C21            3.1373    -4.3010    -2.2822 C.3     
  22 C22            4.2671    -3.3879    -2.7626 C.3     
  23 C23            5.4130    -3.4181    -1.7492 C.3     
  24 C24            4.9055    -2.9301    -0.3908 C.3     
  25 C25            3.7757    -3.8432     0.0895 C.3     
  26 C26            6.5428    -2.5050    -2.2296 C.3     
  27 N27           -0.4728    -3.8578     2.2693 N.am    
  28 O28           -0.9525    -1.9951     1.1638 O.2     
  29 C29           -1.8869    -4.0986     2.5667 C.3     
  30 C30            0.5460    -4.7968     2.7453 C.3     
  31 O31            3.3554    -1.4878     2.1039 O.3     
  32 C32            4.0292    -0.6973     3.0854 C.3     
  33 C33            0.9922     6.0983     2.0533 C.3     
  34 H34            2.4592     0.5794     0.7805 H       
  35 H35            4.1138     4.9479     1.1534 H       
  36 H36            3.7019     6.3893     2.1130 H       
  37 H37            3.2781     4.7686     2.7147 H       
  38 H38            1.2030     6.4130    -0.6461 H       
  39 H39            2.4901     7.3496     0.1504 H       
  40 H40            2.9021     5.9082    -0.8092 H       
  41 H41           -2.8276    -1.8154    -2.2063 H       
  42 H42            1.8721    -3.4775     1.1944 H       
  43 H43            1.8249    -4.4635    -0.5816 H       
  44 H44            1.4676    -0.6965     2.3847 H       
  45 H45            1.8296    -2.1667     3.3203 H       
  46 H46            3.5103    -5.3206    -2.1858 H       
  47 H47            2.3210    -4.2795    -3.0042 H       
  48 H48            4.6287    -3.7356    -3.7303 H       
  49 H49            3.8941    -2.3683    -2.8590 H       
  50 H50            5.7860    -4.4378    -1.6528 H       
  51 H51            5.7219    -2.9516     0.3311 H       
  52 H52            4.5325    -1.9105    -0.4872 H       
  53 H53            3.4142    -3.4955     1.0573 H       
  54 H54            4.1487    -4.8628     0.1859 H       
  55 H55            6.1698    -1.4854    -2.3260 H       
  56 H56            7.3592    -2.5265    -1.5076 H       
  57 H57            6.9044    -2.8527    -3.1973 H       
  58 H58           -2.3287    -4.6980     1.7707 H       
  59 H59           -1.9734    -4.6316     3.5135 H       
  60 H60           -2.4108    -3.1453     2.6371 H       
  61 H61            1.2440    -4.2747     3.3998 H       
  62 H62            0.0659    -5.6050     3.2970 H       
  63 H63            1.0863    -5.2094     1.8933 H       
  64 H64            3.5786     0.2944     3.1250 H       
  65 H65            3.9406    -1.1758     4.0607 H       
  66 H66            5.0823    -0.6075     2.8190 H       
  67 H67            0.8931     5.4773     2.9436 H       
  68 H68            1.3170     7.0980     2.3420 H       
  69 H69            0.0299     6.1614     1.5454 H       
@<TRIPOS>BOND
   1    1    2 1
   2    1    5 1
   3    2    3 2
   4    2   11 1
   5    3    4 1
   6    3   12 1
   7    4    5 2
   8    4   34 1
   9    5    6 1
  10    6    7 3
  11    7    8 1
  12    8    9 1
  13    8   10 1
  14    8   33 1
  15    9   35 1
  16    9   36 1
  17    9   37 1
  18   10   38 1
  19   10   39 1
  20   10   40 1
  21   11   13 1
  22   11   14 2
  23   12   15 1
  24   12   16 am
  25   13   41 1
  26   15   19 1
  27   15   20 1
  28   15   42 1
  29   16   17 1
  30   16   18 2
  31   17   21 1
  32   17   25 1
  33   17   43 1
  34   19   31 1
  35   19   44 1
  36   19   45 1
  37   20   27 am
  38   20   28 2
  39   21   22 1
  40   21   46 1
  41   21   47 1
  42   22   23 1
  43   22   48 1
  44   22   49 1
  45   23   24 1
  46   23   26 1
  47   23   50 1
  48   24   25 1
  49   24   51 1
  50   24   52 1
  51   25   53 1
  52   25   54 1
  53   26   55 1
  54   26   56 1
  55   26   57 1
  56   27   29 1
  57   27   30 1
  58   29   58 1
  59   29   59 1
  60   29   60 1
  61   30   61 1
  62   30   62 1
  63   30   63 1
  64   31   32 1
  65   32   64 1
  66   32   65 1
  67   32   66 1
  68   33   67 1
  69   33   68 1
  70   33   69 1

#	End of record

