#	Name: ASD01140360
#	Creating user name:	WinNT
#	Creation time:	15. 06. 2019 19:00

#	Modifying user name:	WinNT
#	Modification time:	15. 06. 2019 19:00

#	Program:	/corina/corina34_cracker 3.40 0067  02.08.2006

@<TRIPOS>MOLECULE
ASD01140360
  30   33    0    0    0
SMALL
NO_CHARGES


@<TRIPOS>ATOM
   1 N1            -0.0165     1.3631     0.0095 N.pl3   
   2 C2             0.0021    -0.0041     0.0020 C.2     
   3 C3             1.2436    -0.8634    -0.0467 C.3     
   4 N4             1.9813    -0.4803    -1.2564 N.pl3   
   5 C5             2.4101     0.7669    -1.5447 C.2     
   6 C6             2.2354     1.9842    -0.7265 C.ar    
   7 C7             1.0721     2.2360     0.0038 C.ar    
   8 C8             3.2844     2.9060    -0.6926 C.ar    
   9 C9             3.1726     4.0670     0.0679 C.ar    
  10 C10            2.0051     4.3080     0.7989 C.ar    
  11 C11            0.9718     3.4014     0.7638 C.ar    
  12 N12            2.3724    -1.3058    -2.3143 N.2     
  13 C13            3.0025    -0.5423    -3.1719 C.2     
  14 N14            3.0269     0.7058    -2.7117 N.2     
  15 C15           -1.3270     1.7340     0.0356 C.2     
  16 N16           -2.0644     0.6574     0.0556 N.2     
  17 C17           -1.2712    -0.4261     0.0358 C.2     
  18 C18           -1.7298    -1.8615     0.0488 C.3     
  19 F19           -2.9768    -1.9584    -0.5780 F       
  20 F20           -0.8014    -2.6539    -0.6349 F       
  21 C21            4.2494     5.0105     0.1017 C.1     
  22 N22            5.1035     5.7589     0.1285 N.1     
  23 H23            1.8567    -0.6819     0.8361 H       
  24 H24            0.9658    -1.9161    -0.0980 H       
  25 H25            4.1852     2.7173    -1.2577 H       
  26 H26            1.9152     5.2064     1.3915 H       
  27 H27            0.0730     3.5937     1.3309 H       
  28 H28            3.4342    -0.8735    -4.1048 H       
  29 H29           -1.6944     2.7496     0.0391 H       
  30 H30           -1.8133    -2.2070     1.0792 H       
@<TRIPOS>BOND
   1    1    2 1
   2    1    7 1
   3    1   15 1
   4    2    3 1
   5    2   17 2
   6    3    4 1
   7    3   23 1
   8    3   24 1
   9    4    5 1
  10    4   12 1
  11    5    6 1
  12    5   14 2
  13    6    7 ar
  14    6    8 ar
  15    7   11 ar
  16    8    9 ar
  17    8   25 1
  18    9   10 ar
  19    9   21 1
  20   10   11 ar
  21   10   26 1
  22   11   27 1
  23   12   13 2
  24   13   14 1
  25   13   28 1
  26   15   16 2
  27   15   29 1
  28   16   17 1
  29   17   18 1
  30   18   19 1
  31   18   20 1
  32   18   30 1
  33   21   22 3

#	End of record

