#	Name: ASD01208582
#	Creating user name:	WinNT
#	Creation time:	15. 06. 2019 19:10

#	Modifying user name:	WinNT
#	Modification time:	15. 06. 2019 19:10

#	Program:	/corina/corina34_cracker 3.40 0067  02.08.2006

@<TRIPOS>MOLECULE
ASD01208582
  94   96    0    0    0
SMALL
NO_CHARGES


@<TRIPOS>ATOM
   1 N1            -0.8690     1.7301     1.3283 N.pl3   
   2 C2            -0.6552     0.4495     0.8702 C.2     
   3 C3             0.7045     0.2116     0.8884 C.2     
   4 C4             1.3240     1.3656     1.3647 C.2     
   5 C5             0.3374     2.2904     1.6304 C.2     
   6 C6            -1.6897    -0.4956     0.4394 C.2     
   7 O7            -1.3763    -1.6061     0.0521 O.2     
   8 N8            -2.9878    -0.1348     0.4721 N.am    
   9 C9             0.5503     3.6566     2.1532 C.ar    
  10 C10            1.8427     4.1094     2.4222 C.ar    
  11 C11            2.0378     5.3901     2.9114 C.ar    
  12 C12            0.9504     6.2229     3.1346 C.ar    
  13 C13           -0.3361     5.7768     2.8685 C.ar    
  14 C14           -0.5397     4.4990     2.3735 C.ar    
  15 O15           -1.3976     6.5961     3.0893 O.3     
  16 C16           -2.1720     6.3562     4.1772 C.ar    
  17 C17           -3.2194     7.2165     4.4908 C.ar    
  18 N18           -1.9357     5.2989     4.9404 N.ar    
  19 N19           -3.9706     6.9802     5.5498 N.ar    
  20 C20           -3.7285     5.9272     6.3122 C.ar    
  21 C21           -2.6922     5.0678     6.0001 C.ar    
  22 S22           -4.7334     5.6155     7.7256 S.o2    
  23 O23           -3.8911     4.8751     8.5982 O.2     
  24 O24           -5.2259     6.8963     8.0947 O.2     
  25 C25           -6.0796     4.5714     7.1025 C.3     
  26 O26            3.2959     5.8320     3.1737 O.3     
  27 C27            3.4286     7.1808     3.6266 C.3     
  28 C28            4.8436     7.6815     3.3300 C.3     
  29 C29            3.1721     7.2403     5.1338 C.3     
  30 O30            5.7856     6.9303     4.0983 O.3     
  31 C31            7.1450     7.3206     3.8942 C.3     
  32 C32           -4.0217    -1.0793     0.0415 C.3     
  33 C33           -5.3982    -0.4252     0.1768 C.3     
  34 C34           -6.4779    -1.4116    -0.2729 C.3     
  35 O35           -7.7514    -0.7636    -0.2573 O.3     
  36 Si36          -9.0028    -1.7518    -0.6002 Si      
  37 C37           -8.8176    -3.3419     0.3525 C.3     
  38 C38           -9.0683    -3.0782     1.8387 C.3     
  39 C39           -9.8315    -4.3658    -0.1619 C.3     
  40 C40          -10.5996    -0.9217    -0.1186 C.3     
  41 C41          -11.7235    -1.9593    -0.0835 C.3     
  42 C42          -10.4476    -0.2876     1.2655 C.3     
  43 C43           -9.0207    -2.1204    -2.4263 C.3     
  44 C44           -8.9795    -0.8082    -3.2119 C.3     
  45 C45           -7.8002    -2.9695    -2.7872 C.3     
  46 O46           -5.6218    -0.0637     1.5411 O.3     
  47 H47           -1.7326     2.1629     1.4173 H       
  48 H48            1.1976    -0.7013     0.5888 H       
  49 H49            2.3857     1.5090     1.5015 H       
  50 H50           -3.2376     0.7502     0.7807 H       
  51 H51            2.6895     3.4617     2.2495 H       
  52 H52            1.1060     7.2209     3.5169 H       
  53 H53           -1.5411     4.1540     2.1624 H       
  54 H54           -3.4173     8.0769     3.8686 H       
  55 H55           -2.5002     4.2061     6.6221 H       
  56 H56           -5.6646     3.6527     6.6877 H       
  57 H57           -6.7580     4.3270     7.9199 H       
  58 H58           -6.6250     5.1070     6.3255 H       
  59 H59            2.7045     7.8105     3.1097 H       
  60 H60            5.0583     7.5563     2.2687 H       
  61 H61            4.9184     8.7365     3.5938 H       
  62 H62            3.8962     6.6105     5.6507 H       
  63 H63            3.2733     8.2691     5.4792 H       
  64 H64            2.1640     6.8835     5.3451 H       
  65 H65            7.7969     6.7035     4.5126 H       
  66 H66            7.4074     7.1879     2.8447 H       
  67 H67            7.2676     8.3681     4.1698 H       
  68 H68           -3.8512    -1.3550    -0.9992 H       
  69 H69           -3.9807    -1.9721     0.6654 H       
  70 H70           -5.4392     0.4676    -0.4471 H       
  71 H71           -6.2576    -1.7556    -1.2835 H       
  72 H72           -6.4960    -2.2646     0.4054 H       
  73 H73           -7.8083    -3.7308     0.2177 H       
  74 H74          -10.1152    -2.8151     1.9894 H       
  75 H75           -8.8329    -3.9751     2.4116 H       
  76 H76           -8.4353    -2.2566     2.1737 H       
  77 H77          -10.8407    -4.0273     0.0730 H       
  78 H78           -9.7257    -4.4711    -1.2416 H       
  79 H79           -9.6505    -5.3283     0.3165 H       
  80 H80          -10.8416    -0.1485    -0.8478 H       
  81 H81          -11.5595    -2.6446     0.7481 H       
  82 H82          -12.6806    -1.4540     0.0454 H       
  83 H83          -11.7310    -2.5185    -1.0191 H       
  84 H84          -10.1778    -1.0563     1.9897 H       
  85 H85           -9.6662     0.4717     1.2334 H       
  86 H86          -11.3904     0.1736     1.5594 H       
  87 H87           -9.9302    -2.6661    -2.6779 H       
  88 H88           -8.0701    -0.2625    -2.9603 H       
  89 H89           -8.9900    -1.0239    -4.2803 H       
  90 H90           -9.8491    -0.2033    -2.9548 H       
  91 H91           -7.9018    -3.3362    -3.8086 H       
  92 H92           -6.8986    -2.3621    -2.7072 H       
  93 H93           -7.7305    -3.8150    -2.1028 H       
  94 H94           -5.5992    -0.8107     2.1547 H       
@<TRIPOS>BOND
   1    1    2 1
   2    1    5 1
   3    1   47 1
   4    2    3 2
   5    2    6 1
   6    3    4 1
   7    3   48 1
   8    4    5 2
   9    4   49 1
  10    5    9 1
  11    6    7 2
  12    6    8 am
  13    8   32 1
  14    8   50 1
  15    9   10 ar
  16    9   14 ar
  17   10   11 ar
  18   10   51 1
  19   11   12 ar
  20   11   26 1
  21   12   13 ar
  22   12   52 1
  23   13   14 ar
  24   13   15 1
  25   14   53 1
  26   15   16 1
  27   16   17 ar
  28   16   18 ar
  29   17   19 ar
  30   17   54 1
  31   18   21 ar
  32   19   20 ar
  33   20   21 ar
  34   20   22 1
  35   21   55 1
  36   22   23 2
  37   22   24 2
  38   22   25 1
  39   25   56 1
  40   25   57 1
  41   25   58 1
  42   26   27 1
  43   27   28 1
  44   27   29 1
  45   27   59 1
  46   28   30 1
  47   28   60 1
  48   28   61 1
  49   29   62 1
  50   29   63 1
  51   29   64 1
  52   30   31 1
  53   31   65 1
  54   31   66 1
  55   31   67 1
  56   32   33 1
  57   32   68 1
  58   32   69 1
  59   33   34 1
  60   33   46 1
  61   33   70 1
  62   34   35 1
  63   34   71 1
  64   34   72 1
  65   35   36 1
  66   36   37 1
  67   36   40 1
  68   36   43 1
  69   37   38 1
  70   37   39 1
  71   37   73 1
  72   38   74 1
  73   38   75 1
  74   38   76 1
  75   39   77 1
  76   39   78 1
  77   39   79 1
  78   40   41 1
  79   40   42 1
  80   40   80 1
  81   41   81 1
  82   41   82 1
  83   41   83 1
  84   42   84 1
  85   42   85 1
  86   42   86 1
  87   43   44 1
  88   43   45 1
  89   43   87 1
  90   44   88 1
  91   44   89 1
  92   44   90 1
  93   45   91 1
  94   45   92 1
  95   45   93 1
  96   46   94 1

#	End of record

