#	Name: ASD01850043
#	Creating user name:	WinNT
#	Creation time:	15. 06. 2019 19:38

#	Modifying user name:	WinNT
#	Modification time:	15. 06. 2019 19:38

#	Program:	/corina/corina34_cracker 3.40 0067  02.08.2006

@<TRIPOS>MOLECULE
ASD01850043
  56   58    0    0    0
SMALL
NO_CHARGES


@<TRIPOS>ATOM
   1 C1             0.2748     2.7068     0.4421 C.ar    
   2 C2            -0.1235     1.3833     0.4146 C.ar    
   3 C3             0.8179     0.3810     0.2734 C.ar    
   4 C4             2.1576     0.7021     0.1592 C.ar    
   5 C5             2.5558     2.0255     0.1857 C.ar    
   6 C6             1.6146     3.0278     0.3283 C.ar    
   7 C7             4.2393     3.8794    -1.9699 C.3     
   8 N8             4.3569     2.5564    -1.3516 N.am    
   9 C9             4.0164     2.3755     0.0617 C.3     
  10 C10            5.5870     4.5996    -1.8935 C.3     
  11 C11            4.7783     1.5058    -2.0831 C.2     
  12 C12            5.0051     1.6617    -3.5648 C.3     
  13 O13            4.9750     0.4349    -1.5489 O.2     
  14 C14            5.9247     0.5433    -4.0603 C.3     
  15 C15            3.6634     1.5833    -4.2969 C.3     
  16 C16            3.8939     1.7768    -5.7990 C.3     
  17 N17            4.8884     0.7960    -6.2550 N.am    
  18 C18            6.1808     0.7249    -5.5597 C.3     
  19 C19            5.0896     0.6112    -8.9936 C.ar    
  20 C20            6.3807     0.4356    -9.4553 C.ar    
  21 C21            6.7972     1.0803   -10.6050 C.ar    
  22 C22            5.9225     1.9001   -11.2932 C.ar    
  23 C23            4.6312     2.0749   -10.8320 C.ar    
  24 C24            4.2133     1.4269    -9.6847 C.ar    
  25 C25            6.3769     2.6036   -12.5461 C.3     
  26 F26            6.1206     1.7915   -13.6560 F       
  27 F27            5.6825     3.8106   -12.6811 F       
  28 F28            7.7494     2.8619   -12.4642 F       
  29 S29            4.5587    -0.2104    -7.5280 S.o2    
  30 O30            5.4039    -1.3423    -7.3740 O.2     
  31 O31            3.1431    -0.3029    -7.6103 O.2     
  32 H32           -0.4611     3.4901     0.5479 H       
  33 H33           -1.1702     1.1325     0.5038 H       
  34 H34            0.5067    -0.6530     0.2526 H       
  35 H35            2.8931    -0.0811     0.0495 H       
  36 H36            1.9257     4.0618     0.3487 H       
  37 H37            3.9456     3.7678    -3.0136 H       
  38 H38            3.4854     4.4621    -1.4406 H       
  39 H39            4.2160     3.2993     0.6047 H       
  40 H40            4.6198     1.5702     0.4806 H       
  41 H41            5.4995     5.5839    -2.3535 H       
  42 H42            5.8807     4.7112    -0.8497 H       
  43 H43            6.3409     4.0169    -2.4228 H       
  44 H44            5.4699     2.6279    -3.7613 H       
  45 H45            6.8714     0.5853    -3.5218 H       
  46 H46            5.4494    -0.4222    -3.8867 H       
  47 H47            3.2095     0.6081    -4.1211 H       
  48 H48            3.0008     2.3656    -3.9268 H       
  49 H49            2.9573     1.6237    -6.3351 H       
  50 H50            4.2633     2.7852    -5.9851 H       
  51 H51            6.7366     1.6476    -5.7263 H       
  52 H52            6.7530    -0.1222    -5.9379 H       
  53 H53            7.0641    -0.2049    -8.9176 H       
  54 H54            7.8061     0.9437   -10.9653 H       
  55 H55            3.9479     2.7157   -11.3696 H       
  56 H56            3.2044     1.5635    -9.3244 H       
@<TRIPOS>BOND
   1    1    2 ar
   2    1    6 ar
   3    1   32 1
   4    2    3 ar
   5    2   33 1
   6    3    4 ar
   7    3   34 1
   8    4    5 ar
   9    4   35 1
  10    5    6 ar
  11    5    9 1
  12    6   36 1
  13    7    8 1
  14    7   10 1
  15    7   37 1
  16    7   38 1
  17    8    9 1
  18    8   11 am
  19    9   39 1
  20    9   40 1
  21   10   41 1
  22   10   42 1
  23   10   43 1
  24   11   12 1
  25   11   13 2
  26   12   14 1
  27   12   15 1
  28   12   44 1
  29   14   18 1
  30   14   45 1
  31   14   46 1
  32   15   16 1
  33   15   47 1
  34   15   48 1
  35   16   17 1
  36   16   49 1
  37   16   50 1
  38   17   29 am
  39   17   18 1
  40   18   51 1
  41   18   52 1
  42   19   29 1
  43   19   20 ar
  44   19   24 ar
  45   20   21 ar
  46   20   53 1
  47   21   22 ar
  48   21   54 1
  49   22   23 ar
  50   22   25 1
  51   23   24 ar
  52   23   55 1
  53   24   56 1
  54   25   26 1
  55   25   27 1
  56   25   28 1
  57   29   30 2
  58   29   31 2

#	End of record

