#	Name: ASD02590053
#	Creating user name:	WinNT
#	Creation time:	15. 06. 2019 20:25

#	Modifying user name:	WinNT
#	Modification time:	15. 06. 2019 20:25

#	Program:	/corina/corina34_cracker 3.40 0067  02.08.2006

@<TRIPOS>MOLECULE
ASD02590053
  29   31    0    0    0
SMALL
NO_CHARGES


@<TRIPOS>ATOM
   1 C1            -0.0167     1.3828     0.0096 C.ar    
   2 C2             0.0021    -0.0041     0.0020 C.ar    
   3 C3             1.1997    -0.6882    -0.0127 C.ar    
   4 C4             2.3983     0.0121    -0.0204 C.ar    
   5 C5             2.3901     1.4173    -0.0132 C.ar    
   6 C6             1.1641     2.0991     0.0022 C.ar    
   7 N7             3.7275    -0.3670    -0.0348 N.pl3   
   8 C8             4.4766     0.7826    -0.0360 C.2     
   9 N9             3.6816     1.8278    -0.0233 N.2     
  10 C10            5.9461     0.8362    -0.0488 C.2     
  11 C11            6.7059     1.9678    -0.0503 C.2     
  12 O12            1.1384     3.4579     0.0089 O.3     
  13 C13           -0.1468     4.0825     0.0247 C.3     
  14 C14            0.0250     5.6028     0.0301 C.3     
  15 C15            8.0500     1.5528    -0.0633 C.2     
  16 C16            8.0482     0.2038    -0.0691 C.2     
  17 O17            6.7769    -0.2254    -0.0553 O.3     
  18 H18           -0.9614     1.9062     0.0170 H       
  19 H19           -0.9283    -0.5526     0.0080 H       
  20 H20            1.2049    -1.7682    -0.0178 H       
  21 H21            4.0672    -1.2756    -0.0421 H       
  22 H22            6.3457     2.9859    -0.0431 H       
  23 H23           -0.7070     3.7833    -0.8612 H       
  24 H24           -0.6892     3.7749     0.9187 H       
  25 H25            0.5853     5.9020     0.9159 H       
  26 H26            0.5675     5.9103    -0.8639 H       
  27 H27           -0.9553     6.0792     0.0421 H       
  28 H28            8.9195     2.1934    -0.0681 H       
  29 H29            8.9251    -0.4266    -0.0792 H       
@<TRIPOS>BOND
   1    1    2 ar
   2    1    6 ar
   3    1   18 1
   4    2    3 ar
   5    2   19 1
   6    3    4 ar
   7    3   20 1
   8    4    5 ar
   9    4    7 1
  10    5    6 ar
  11    5    9 1
  12    6   12 1
  13    7    8 1
  14    7   21 1
  15    8    9 2
  16    8   10 1
  17   10   11 2
  18   10   17 1
  19   11   15 1
  20   11   22 1
  21   12   13 1
  22   13   14 1
  23   13   23 1
  24   13   24 1
  25   14   25 1
  26   14   26 1
  27   14   27 1
  28   15   16 2
  29   15   28 1
  30   16   17 1
  31   16   29 1

#	End of record

