#	Name: ASD02500867
#	Creating user name:	WinNT
#	Creation time:	15. 06. 2019 20:23

#	Modifying user name:	WinNT
#	Modification time:	15. 06. 2019 20:23

#	Program:	/corina/corina34_cracker 3.40 0067  02.08.2006

@<TRIPOS>MOLECULE
ASD02500867
  31   32    0    0    0
SMALL
NO_CHARGES


@<TRIPOS>ATOM
   1 C1             0.0275     1.3766    -0.2809 C.ar    
   2 C2            -0.7940     1.7275    -1.3595 C.ar    
   3 C3            -1.9323     0.9985    -1.6205 C.ar    
   4 C4            -2.2675    -0.0840    -0.8157 C.ar    
   5 C5            -1.4557    -0.4374     0.2568 C.ar    
   6 C6            -0.3113     0.2817     0.5235 C.ar    
   7 O7            -3.3919    -0.7989    -1.0773 O.3     
   8 C8            -4.1808    -0.3820    -2.1934 C.3     
   9 Br9           -1.9200    -1.9113     1.3467 Br      
  10 C10            1.2431     2.1504     0.0017 C.2     
  11 C11            1.2232     3.5043    -0.0933 C.2     
  12 C12            0.0618     4.3781    -0.2963 C.2     
  13 N13            0.3385     5.6703    -0.3505 N.am    
  14 C14            1.6060     6.0790    -0.2220 C.2     
  15 S15            2.5948     4.6262     0.0072 S.3     
  16 O16           -1.0707     3.9462    -0.4069 O.2     
  17 S17            2.1649     7.6967    -0.2636 S.2     
  18 C18           -0.7350     6.6470    -0.5502 C.3     
  19 C19           -1.2772     7.0782     0.7881 C.2     
  20 O20           -2.2743     7.9746     0.8510 O.3     
  21 O21           -0.8144     6.6170     1.8045 O.2     
  22 H22           -0.5352     2.5688    -1.9853 H       
  23 H23           -2.5663     1.2685    -2.4521 H       
  24 H24            0.3189     0.0065     1.3563 H       
  25 H25           -3.5814    -0.4358    -3.1023 H       
  26 H26           -5.0474    -1.0360    -2.2904 H       
  27 H27           -4.5153     0.6439    -2.0390 H       
  28 H28            2.1529     1.6422     0.2852 H       
  29 H29           -0.3426     7.5150    -1.0800 H       
  30 H30           -1.5340     6.1938    -1.1371 H       
  31 H31           -2.5889     8.2202     1.7318 H       
@<TRIPOS>BOND
   1    1    2 ar
   2    1   10 1
   3    1    6 ar
   4    2    3 ar
   5    2   22 1
   6    3    4 ar
   7    3   23 1
   8    4    5 ar
   9    4    7 1
  10    5    6 ar
  11    5    9 1
  12    6   24 1
  13    7    8 1
  14    8   25 1
  15    8   26 1
  16    8   27 1
  17   10   11 2
  18   10   28 1
  19   11   12 1
  20   11   15 1
  21   12   13 am
  22   12   16 2
  23   13   14 am
  24   13   18 1
  25   14   15 1
  26   14   17 2
  27   18   19 1
  28   18   29 1
  29   18   30 1
  30   19   20 1
  31   19   21 2
  32   20   31 1

#	End of record

