#	Name: ASD01820145
#	Creating user name:	WinNT
#	Creation time:	15. 06. 2019 19:36

#	Modifying user name:	WinNT
#	Modification time:	15. 06. 2019 19:36

#	Program:	/corina/corina34_cracker 3.40 0067  02.08.2006

@<TRIPOS>MOLECULE
ASD01820145
 114  128    0    0    0
SMALL
NO_CHARGES


@<TRIPOS>ATOM
   1 N1            -0.0154     1.3686     0.0607 N.3     
   2 C2             0.0085    -0.0375     0.2079 C.3     
   3 C3             1.1372    -0.7399     0.9506 C.3     
   4 C4             2.3981     0.1198     1.0807 C.3     
   5 N5             3.1165     0.0618    -0.1884 N.3     
   6 C6             2.6444     0.5917    -1.4081 C.3     
   7 C7             1.8064     1.8599    -1.4529 C.3     
   8 C8             1.1659     2.2122    -0.1047 C.3     
   9 C9             3.4377    -0.6143     1.9728 C.3     
  10 C10            4.0143    -1.6284     1.0630 C.ar    
  11 C11            3.7878    -1.1521    -0.2478 C.ar    
  12 C12            4.6660    -2.8214     1.2947 C.ar    
  13 C13            5.0971    -3.5481     0.1912 C.ar    
  14 C14            4.8784    -3.0906    -1.0925 C.ar    
  15 C15            4.2239    -1.8934    -1.3420 C.ar    
  16 C16            2.7339     2.9911    -1.9036 C.3     
  17 C17            1.9722     4.2948    -2.1059 C.3     
  18 C18            1.3525     4.6808    -0.7871 C.3     
  19 C19            0.4594     3.5890    -0.2231 C.3     
  20 C20           -0.7871     3.2730    -0.9504 C.ar    
  21 C21           -1.0383     1.9043    -0.7093 C.ar    
  22 C22           -1.6367     4.0350    -1.7270 C.ar    
  23 C23           -2.7644     3.4141    -2.2498 C.ar    
  24 C24           -3.0264     2.0814    -2.0045 C.ar    
  25 C25           -2.1762     1.2994    -1.2365 C.ar    
  26 C26            0.1949     4.1659     1.1919 C.3     
  27 C27            3.7356     3.1832    -0.7832 C.2     
  28 N28            2.3188     4.9815     0.2775 N.4     
  29 C29            3.4958     4.1277     0.3341 C.3     
  30 C30            1.5930     4.7247     1.5665 C.3     
  31 H31            0.7413     5.5697    -0.9411 H       
  32 H32            1.8833     2.2671     0.7035 H       
  33 H33            1.0128     1.7453    -2.2036 H       
  34 H34            3.2452     2.7190    -2.8251 H       
  35 O35            3.7436     0.6930    -2.3420 O.3     
  36 C36            4.7726     2.3840    -0.8429 C.2     
  37 C37            4.8973     1.3570    -1.8904 C.3     
  38 H38            1.9961    -0.2047    -1.8351 H       
  39 H39            2.2054     1.0900     1.5258 H       
  40 O40           -1.2620    -0.4720     0.7507 O.3     
  41 C41            2.8717    -1.1091     3.2896 C.3     
  42 C42            0.6120    -1.1064     2.3398 C.3     
  43 C43            1.6265    -1.9419     3.1104 C.3     
  44 H44            1.3904    -1.6713     0.4238 H       
  45 C45            0.4005     0.1982     3.0788 C.2     
  46 C46            1.4105     0.7502     4.0119 C.3     
  47 N47            2.6985     0.0862     4.1214 N.4     
  48 C48            4.4794     0.4170     2.4727 C.3     
  49 C49            3.7290     1.0681     3.6625 C.3     
  50 H50            3.6300    -1.7341     3.7656 H       
  51 H51           -0.3264    -1.6522     2.2612 H       
  52 C52           -0.7354     0.7943     2.8169 C.2     
  53 C53           -1.7219     0.2407     1.8750 C.3     
  54 H54            0.0251    -0.4429    -0.8215 H       
  55 C55            2.7199     6.3931     0.2105 C.3     
  56 C56            2.9507    -0.2578     5.5271 C.3     
  57 C57            1.4707     7.2767     0.2281 C.3     
  58 C58            1.9099     8.7339     0.4199 C.3     
  59 C59            2.4944     8.8821     1.8263 C.3     
  60 C60            3.5033     7.8013     2.0833 C.2     
  61 C61            3.5986     6.7167     1.3832 C.2     
  62 C62            2.8729     0.9848     6.3649 C.2     
  63 C63            2.2827     1.0482     7.5152 C.2     
  64 C64            1.5845    -0.1094     8.1669 C.3     
  65 C65            2.0241    -1.4234     7.5175 C.3     
  66 C66            1.9080    -1.2752     5.9952 C.3     
  67 H67            4.8359    -3.1724     2.3020 H       
  68 H68            5.6158    -4.4835     0.3434 H       
  69 H69            5.2304    -3.6790    -1.9263 H       
  70 H70            4.0578    -1.5515    -2.3525 H       
  71 H71            2.6547     5.0759    -2.4409 H       
  72 H72            1.1884     4.1514    -2.8511 H       
  73 H73           -1.4286     5.0780    -1.9163 H       
  74 H74           -3.4505     3.9883    -2.8548 H       
  75 H75           -3.9186     1.6364    -2.4185 H       
  76 H76           -2.3913     0.2568    -1.0571 H       
  77 H77           -0.5404     4.9669     1.1483 H       
  78 H78           -0.1065     3.3805     1.8802 H       
  79 H79            3.4776     3.5517     1.2553 H       
  80 H80            4.3674     4.7865     0.3934 H       
  81 H81            1.4736     5.6657     2.1085 H       
  82 H82            2.1277     4.0109     2.1821 H       
  83 H83            5.5548     2.4714    -0.1089 H       
  84 H84            5.5926     0.6016    -1.5256 H       
  85 H85            5.3655     1.8293    -2.7538 H       
  86 H86            1.8657    -2.8429     2.5449 H       
  87 H87            1.2194    -2.2166     4.0827 H       
  88 H88            1.5742     1.7918     3.7409 H       
  89 H89            0.9617     0.7559     5.0092 H       
  90 H90            5.3822    -0.0859     2.8160 H       
  91 H91            4.7016     1.1510     1.7031 H       
  92 H92            3.2680     1.9995     3.3448 H       
  93 H93            4.4355     1.2660     4.4719 H       
  94 H94           -0.9600     1.7298     3.3025 H       
  95 H95           -2.3366     1.0654     1.5173 H       
  96 H96           -2.3770    -0.4235     2.4404 H       
  97 H97            3.2732     6.5680    -0.7122 H       
  98 H98            3.9453    -0.6941     5.6194 H       
  99 H99            0.9374     7.1762    -0.7172 H       
 100 H100           0.8222     6.9781     1.0517 H       
 101 H101           2.6680     8.9886    -0.3207 H       
 102 H102           1.0492     9.3935     0.3094 H       
 103 H103           2.9767     9.8554     1.9164 H       
 104 H104           1.6921     8.8093     2.5605 H       
 105 H105           4.1931     7.9371     2.9031 H       
 106 H106           4.3573     6.0000     1.6605 H       
 107 H107           3.3387     1.8819     5.9847 H       
 108 H108           2.2936     1.9928     8.0386 H       
 109 H109           1.8326    -0.1300     9.2280 H       
 110 H110           0.5069     0.0076     8.0521 H       
 111 H111           3.0585    -1.6371     7.7867 H       
 112 H112           1.3790    -2.2337     7.8571 H       
 113 H113           0.9098    -0.9221     5.7365 H       
 114 H114           2.0947    -2.2373     5.5182 H       
@<TRIPOS>BOND
   1    1    2 1
   2    1    8 1
   3    1   21 1
   4    2    3 1
   5    2   40 1
   6    2   54 1
   7    3    4 1
   8    3   44 1
   9    3   42 1
  10    4    5 1
  11    4    9 1
  12    4   39 1
  13    5    6 1
  14    5   11 1
  15    6    7 1
  16    6   35 1
  17    6   38 1
  18    7    8 1
  19    7   33 1
  20    7   16 1
  21    8   19 1
  22    8   32 1
  23    9   10 1
  24    9   41 1
  25    9   48 1
  26   10   11 ar
  27   10   12 ar
  28   11   15 ar
  29   12   13 ar
  30   12   67 1
  31   13   14 ar
  32   13   68 1
  33   14   15 ar
  34   14   69 1
  35   15   70 1
  36   16   17 1
  37   16   27 1
  38   16   34 1
  39   17   18 1
  40   17   71 1
  41   17   72 1
  42   18   19 1
  43   18   28 1
  44   18   31 1
  45   19   20 1
  46   19   26 1
  47   20   21 ar
  48   20   22 ar
  49   21   25 ar
  50   22   23 ar
  51   22   73 1
  52   23   24 ar
  53   23   74 1
  54   24   25 ar
  55   24   75 1
  56   25   76 1
  57   26   30 1
  58   26   77 1
  59   26   78 1
  60   27   36 2
  61   27   29 1
  62   28   29 1
  63   28   55 1
  64   28   30 1
  65   29   79 1
  66   29   80 1
  67   30   81 1
  68   30   82 1
  69   35   37 1
  70   36   37 1
  71   36   83 1
  72   37   84 1
  73   37   85 1
  74   40   53 1
  75   41   47 1
  76   41   50 1
  77   41   43 1
  78   42   43 1
  79   42   45 1
  80   42   51 1
  81   43   86 1
  82   43   87 1
  83   45   46 1
  84   45   52 2
  85   46   47 1
  86   46   88 1
  87   46   89 1
  88   47   56 1
  89   47   49 1
  90   48   49 1
  91   48   90 1
  92   48   91 1
  93   49   92 1
  94   49   93 1
  95   52   53 1
  96   52   94 1
  97   53   95 1
  98   53   96 1
  99   55   57 1
 100   55   61 1
 101   55   97 1
 102   56   62 1
 103   56   66 1
 104   56   98 1
 105   57   58 1
 106   57   99 1
 107   57  100 1
 108   58   59 1
 109   58  101 1
 110   58  102 1
 111   59   60 1
 112   59  103 1
 113   59  104 1
 114   60   61 2
 115   60  105 1
 116   61  106 1
 117   62   63 2
 118   62  107 1
 119   63   64 1
 120   63  108 1
 121   64   65 1
 122   64  109 1
 123   64  110 1
 124   65   66 1
 125   65  111 1
 126   65  112 1
 127   66  113 1
 128   66  114 1

#	End of record

