#	Name: ASD01209183
#	Creating user name:	WinNT
#	Creation time:	15. 06. 2019 19:11

#	Modifying user name:	WinNT
#	Modification time:	15. 06. 2019 19:11

#	Program:	/corina/corina34_cracker 3.40 0067  02.08.2006

@<TRIPOS>MOLECULE
ASD01209183
  70   72    0    0    0
SMALL
NO_CHARGES


@<TRIPOS>ATOM
   1 O1            -0.0532     1.4667    -0.0040 O.3     
   2 O2             2.1078     2.1039     1.3511 O.3     
   3 C3             8.8625     9.4707     1.1828 C.ar    
   4 C4             8.8021     9.5034     2.5682 C.ar    
   5 C5             7.7708     8.8598     3.2371 C.ar    
   6 C6             6.7968     8.1817     2.5234 C.ar    
   7 C7             6.8536     8.1463     1.1296 C.ar    
   8 C8             7.8894     8.7991     0.4608 C.ar    
   9 O9             7.7164     8.8950     4.5947 O.3     
  10 C10            5.8163     7.4232     0.3635 C.2     
  11 N11            4.8139     6.7971     1.0113 N.am    
  12 O12            5.8675     7.3934    -0.8507 O.2     
  13 C13            3.8310     6.1119     0.2854 C.2     
  14 P14            1.2885     2.3566    -0.0116 P.3     
  15 O15            2.1273     1.9747    -1.1696 O.2     
  16 C16            0.8468     4.1209    -0.1369 C.3     
  17 N17            2.8081     5.4654     0.7930 N.2     
  18 C18            3.7648     6.0019    -1.1130 C.2     
  19 C19            2.6734     5.2648    -1.4199 C.2     
  20 N20            2.0668     4.9219    -0.2639 N.pl3   
  21 C21           -0.0395     0.0379    -0.0195 C.3     
  22 C22           -1.4769    -0.4861    -0.0068 C.3     
  23 C23            2.6854     0.8414     1.6893 C.3     
  24 C24            3.3881     0.9485     3.0441 C.3     
  25 O25            9.8745    10.1031     0.5325 O.3     
  26 C26            9.9432     9.9304    -0.8843 C.3     
  27 C27            9.0278    10.9486    -1.5671 C.3     
  28 C28           11.3834    10.1434    -1.3548 C.3     
  29 C29            8.7533     9.6123     5.2671 C.3     
  30 C30            8.5252     9.5413     6.7784 C.3     
  31 C31            8.5418     8.1010     7.2217 C.ar    
  32 C32            9.7307     7.5100     7.6066 C.ar    
  33 C33            7.3672     7.3727     7.2489 C.ar    
  34 C34            7.3824     6.0516     7.6556 C.ar    
  35 C35            8.5723     5.4587     8.0346 C.ar    
  36 C36            9.7459     6.1889     8.0132 C.ar    
  37 F37            9.5404    10.2436     7.4367 F       
  38 F38            7.2861    10.1110     7.0903 F       
  39 H39            9.5603    10.0310     3.1279 H       
  40 H40            5.9948     7.6804     3.0449 H       
  41 H41            7.9371     8.7742    -0.6178 H       
  42 H42            4.7731     6.8208     1.9801 H       
  43 H43            0.2171     4.2765    -1.0129 H       
  44 H44            0.3046     4.4242     0.7588 H       
  45 H45            4.4617     6.4301    -1.8182 H       
  46 H46            2.3440     4.9997    -2.4137 H       
  47 H47            0.4664    -0.3109    -0.9198 H       
  48 H48            0.4891    -0.3300     0.8599 H       
  49 H49           -2.0055    -0.1182    -0.8862 H       
  50 H50           -1.4665    -1.5760    -0.0187 H       
  51 H51           -1.9828    -0.1373     0.8935 H       
  52 H52            1.9012     0.0864     1.7454 H       
  53 H53            3.4095     0.5570     0.9258 H       
  54 H54            3.8287    -0.0145     3.3020 H       
  55 H55            4.1723     1.7035     2.9880 H       
  56 H56            2.6640     1.2329     3.8075 H       
  57 H57            9.6218     8.9217    -1.1435 H       
  58 H58            9.0802    10.8169    -2.6479 H       
  59 H59            8.0018    10.7969    -1.2320 H       
  60 H60            9.3493    11.9574    -1.3080 H       
  61 H61           12.0356     9.4180    -0.8684 H       
  62 H62           11.4359    10.0117    -2.4355 H       
  63 H63           11.7049    11.1522    -1.0957 H       
  64 H64            9.7187     9.1684     5.0241 H       
  65 H65            8.7413    10.6540     4.9465 H       
  66 H66           10.6477     8.0802     7.5893 H       
  67 H67            6.4376     7.8359     6.9527 H       
  68 H68            6.4646     5.4827     7.6775 H       
  69 H69            8.5841     4.4267     8.3527 H       
  70 H70           10.6755     5.7257     8.3094 H       
@<TRIPOS>BOND
   1    1   21 1
   2    1   14 1
   3    2   23 1
   4    2   14 1
   5    3    4 ar
   6    3   25 1
   7    3    8 ar
   8    4    5 ar
   9    4   39 1
  10    5    6 ar
  11    5    9 1
  12    6    7 ar
  13    6   40 1
  14    7    8 ar
  15    7   10 1
  16    8   41 1
  17    9   29 1
  18   10   11 am
  19   10   12 2
  20   11   13 1
  21   11   42 1
  22   13   17 2
  23   13   18 1
  24   14   15 2
  25   14   16 1
  26   16   20 1
  27   16   43 1
  28   16   44 1
  29   17   20 1
  30   18   19 2
  31   18   45 1
  32   19   20 1
  33   19   46 1
  34   21   22 1
  35   21   47 1
  36   21   48 1
  37   22   49 1
  38   22   50 1
  39   22   51 1
  40   23   24 1
  41   23   52 1
  42   23   53 1
  43   24   54 1
  44   24   55 1
  45   24   56 1
  46   25   26 1
  47   26   27 1
  48   26   28 1
  49   26   57 1
  50   27   58 1
  51   27   59 1
  52   27   60 1
  53   28   61 1
  54   28   62 1
  55   28   63 1
  56   29   30 1
  57   29   64 1
  58   29   65 1
  59   30   31 1
  60   30   37 1
  61   30   38 1
  62   31   32 ar
  63   31   33 ar
  64   32   36 ar
  65   32   66 1
  66   33   34 ar
  67   33   67 1
  68   34   35 ar
  69   34   68 1
  70   35   36 ar
  71   35   69 1
  72   36   70 1

#	End of record

