#	Name: ASD02560520
#	Creating user name:	WinNT
#	Creation time:	15. 06. 2019 20:25

#	Modifying user name:	WinNT
#	Modification time:	15. 06. 2019 20:25

#	Program:	/corina/corina34_cracker 3.40 0067  02.08.2006

@<TRIPOS>MOLECULE
ASD02560520
  43   46    0    0    0
SMALL
NO_CHARGES


@<TRIPOS>ATOM
   1 C1            -0.1592     1.9740    -0.2258 C.2     
   2 C2             0.0146     0.5776    -0.1995 C.2     
   3 C3            -1.0554    -0.2412    -0.1704 C.2     
   4 N4            -2.3251     0.2707    -0.1655 N.pl3   
   5 C5            -2.5270     1.6318    -0.1903 C.2     
   6 C6            -1.4144     2.4990    -0.2161 C.2     
   7 C7            -3.5573    -0.3231    -0.1386 C.2     
   8 C8            -4.4898     0.6922    -0.1475 C.2     
   9 N9            -3.8293     1.8647    -0.1790 N.2     
  10 C10           -5.9616     0.5225    -0.1265 C.ar    
  11 N11           -3.8197    -1.6934    -0.1084 N.3     
  12 C12           -2.5868    -2.4698    -0.2959 C.3     
  13 C13           -6.5732    -0.3909    -0.9842 C.ar    
  14 C14           -6.7410     1.2722     0.7560 C.ar    
  15 C15           -1.8839    -2.6440     1.0518 C.3     
  16 C16           -2.9324    -3.8443    -0.8723 C.3     
  17 C17           -1.6483    -4.6529    -1.0676 C.3     
  18 C18           -0.9454    -4.8271     0.2801 C.3     
  19 C19           -0.5998    -3.4527     0.8565 C.3     
  20 C20           -7.9446    -0.5446    -0.9602 C.ar    
  21 C21           -8.7127     0.2051    -0.0876 C.ar    
  22 C22           -8.1120     1.1091     0.7704 C.ar    
  23 Cl23          -5.9884     2.4064     1.8334 Cl      
  24 Cl24           1.2233     3.0233    -0.2631 Cl      
  25 H25            1.0107     0.1601    -0.2030 H       
  26 H26           -0.9098    -1.3112    -0.1512 H       
  27 H27           -1.5578     3.5692    -0.2357 H       
  28 H28           -4.2842    -1.9538     0.7487 H       
  29 H29           -1.9266    -1.9425    -0.9846 H       
  30 H30           -5.9750    -0.9767    -1.6664 H       
  31 H31           -1.6377    -1.6648     1.4625 H       
  32 H32           -2.5441    -3.1712     1.7405 H       
  33 H33           -3.5926    -4.3715    -0.1836 H       
  34 H34           -3.4332    -3.7202    -1.8325 H       
  35 H35           -1.8945    -5.6321    -1.4782 H       
  36 H36           -0.9881    -4.1257    -1.7563 H       
  37 H37           -1.6056    -5.3544     0.9688 H       
  38 H38           -0.0306    -5.4032     0.1410 H       
  39 H39            0.0604    -2.9254     0.1679 H       
  40 H40           -0.0990    -3.5768     1.8167 H       
  41 H41           -8.4191    -1.2516    -1.6245 H       
  42 H42           -9.7854     0.0812    -0.0731 H       
  43 H43           -8.7170     1.6916     1.4494 H       
@<TRIPOS>BOND
   1    1    2 1
   2    1   24 1
   3    1    6 2
   4    2    3 2
   5    2   25 1
   6    3    4 1
   7    3   26 1
   8    4    5 1
   9    4    7 1
  10    5    6 1
  11    5    9 2
  12    6   27 1
  13    7    8 2
  14    7   11 1
  15    8    9 1
  16    8   10 1
  17   10   13 ar
  18   10   14 ar
  19   11   12 1
  20   11   28 1
  21   12   16 1
  22   12   15 1
  23   12   29 1
  24   13   20 ar
  25   13   30 1
  26   14   23 1
  27   14   22 ar
  28   15   19 1
  29   15   31 1
  30   15   32 1
  31   16   17 1
  32   16   33 1
  33   16   34 1
  34   17   18 1
  35   17   35 1
  36   17   36 1
  37   18   19 1
  38   18   37 1
  39   18   38 1
  40   19   39 1
  41   19   40 1
  42   20   21 ar
  43   20   41 1
  44   21   22 ar
  45   21   42 1
  46   22   43 1

#	End of record

