#	Name: ASD01001201
#	Creating user name:	WinNT
#	Creation time:	15. 06. 2019 18:55

#	Modifying user name:	WinNT
#	Modification time:	15. 06. 2019 18:55

#	Program:	/corina/corina34_cracker 3.40 0067  02.08.2006

@<TRIPOS>MOLECULE
ASD01001201
  70   74    0    0    0
SMALL
NO_CHARGES


@<TRIPOS>ATOM
   1 C1            -0.2425     1.5498    -1.2357 C.3     
   2 C2             1.0010     2.2614    -1.7621 C.3     
   3 C3             0.1422     0.1596    -0.7209 C.3     
   4 C4             1.9763     2.5403    -0.6148 C.3     
   5 C5             1.7006     1.4066    -2.8166 C.3     
   6 C6             0.8245    -0.6145    -1.8530 C.3     
   7 N7             3.0907     3.3298    -1.1590 N.pl3   
   8 C8             1.2794     3.3203     0.4701 C.ar    
   9 C9             3.0037     2.0519    -3.2182 C.ar    
  10 C10            1.2467    -1.9952    -1.3466 C.3     
  11 C11            3.6402     2.9666    -2.3936 C.ar    
  12 C12            3.5690     1.7175    -4.4364 C.ar    
  13 C13            4.8435     3.5392    -2.7914 C.ar    
  14 C14            5.4017     3.1998    -4.0076 C.ar    
  15 C15            4.7642     2.2890    -4.8298 C.ar    
  16 H16            3.4396     4.0912    -0.6697 H       
  17 O17            1.9775     0.1084    -2.2853 O.3     
  18 C18            0.8136     2.6707     1.5979 C.ar    
  19 C19            0.1743     3.3861     2.5931 C.ar    
  20 C20            0.0012     4.7512     2.4607 C.ar    
  21 C21            0.4679     5.4009     1.3333 C.ar    
  22 C22            1.1110     4.6861     0.3401 C.ar    
  23 N23            1.8990    -2.7343    -2.4302 N.am    
  24 C24            3.2322    -2.6392    -2.6036 C.2     
  25 C25            3.9046    -3.4625    -3.6311 C.ar    
  26 C26            5.0906    -4.1325    -3.3266 C.ar    
  27 C27            5.7128    -4.8995    -4.2899 C.ar    
  28 C28            5.1639    -5.0049    -5.5556 C.ar    
  29 C29            3.9885    -4.3434    -5.8639 C.ar    
  30 C30            3.3532    -3.5778    -4.9081 C.ar    
  31 C31            5.8496    -5.8438    -6.6031 C.3     
  32 O32            3.8817    -1.8765    -1.9151 O.2     
  33 C33            1.1022    -3.5769    -3.3254 C.3     
  34 C34            0.4309    -2.7020    -4.3860 C.3     
  35 N35           -0.2645    -3.5568    -5.3574 N.3     
  36 C36            5.3731     1.9199    -6.1579 C.3     
  37 F37            6.5703     2.6223    -6.3334 F       
  38 F38            5.6305     0.5451    -6.1870 F       
  39 F39            4.4839     2.2498    -7.1864 F       
  40 H40           -0.6765     2.1310    -0.4221 H       
  41 H41           -0.9717     1.4502    -2.0398 H       
  42 H42            0.7072     3.2054    -2.2211 H       
  43 H43            0.8290     0.2585     0.1197 H       
  44 H44           -0.7539    -0.3730    -0.4025 H       
  45 H45            2.3518     1.5997    -0.2119 H       
  46 H46            1.0578     1.3110    -3.6917 H       
  47 H47            0.1310    -0.7284    -2.6861 H       
  48 H48            1.9421    -1.8802    -0.5151 H       
  49 H49            0.3666    -2.5438    -1.0109 H       
  50 H50            3.0743     1.0070    -5.0820 H       
  51 H51            5.3415     4.2501    -2.1487 H       
  52 H52            6.3359     3.6450    -4.3166 H       
  53 H53            0.9488     1.6042     1.7014 H       
  54 H54           -0.1902     2.8785     3.4739 H       
  55 H55           -0.4988     5.3100     3.2379 H       
  56 H56            0.3323     6.4673     1.2296 H       
  57 H57            1.4755     5.1937    -0.5407 H       
  58 H58            5.5205    -4.0504    -2.3393 H       
  59 H59            6.6305    -5.4184    -4.0557 H       
  60 H60            3.5652    -4.4298    -6.8537 H       
  61 H61            2.4356    -3.0621    -5.1499 H       
  62 H62            5.4744    -6.8659    -6.5529 H       
  63 H63            5.6456    -5.4299    -7.5907 H       
  64 H64            6.9247    -5.8421    -6.4234 H       
  65 H65            1.7511    -4.3048    -3.8125 H       
  66 H66            0.3388    -4.0992    -2.7489 H       
  67 H67           -0.2880    -2.0374    -3.9068 H       
  68 H68            1.1874    -2.1091    -4.8999 H       
  69 H69           -0.7164    -3.0021    -6.0688 H       
  70 H70            0.3688    -4.2261    -5.7686 H       
@<TRIPOS>BOND
   1    1    3 1
   2    1    2 1
   3    1   40 1
   4    1   41 1
   5    2    4 1
   6    2    5 1
   7    2   42 1
   8    3    6 1
   9    3   43 1
  10    3   44 1
  11    4    7 1
  12    4    8 1
  13    4   45 1
  14    5    9 1
  15    5   17 1
  16    5   46 1
  17    6   10 1
  18    6   17 1
  19    6   47 1
  20    7   11 1
  21    7   16 1
  22    8   18 ar
  23    8   22 ar
  24    9   11 ar
  25    9   12 ar
  26   10   23 1
  27   10   48 1
  28   10   49 1
  29   11   13 ar
  30   12   15 ar
  31   12   50 1
  32   13   14 ar
  33   13   51 1
  34   14   15 ar
  35   14   52 1
  36   15   36 1
  37   18   19 ar
  38   18   53 1
  39   19   20 ar
  40   19   54 1
  41   20   21 ar
  42   20   55 1
  43   21   22 ar
  44   21   56 1
  45   22   57 1
  46   23   24 am
  47   23   33 1
  48   24   25 1
  49   24   32 2
  50   25   26 ar
  51   25   30 ar
  52   26   27 ar
  53   26   58 1
  54   27   28 ar
  55   27   59 1
  56   28   29 ar
  57   28   31 1
  58   29   30 ar
  59   29   60 1
  60   30   61 1
  61   31   62 1
  62   31   63 1
  63   31   64 1
  64   33   34 1
  65   33   65 1
  66   33   66 1
  67   34   35 1
  68   34   67 1
  69   34   68 1
  70   35   69 1
  71   35   70 1
  72   36   37 1
  73   36   38 1
  74   36   39 1

#	End of record

