#	Name: ASD02560203
#	Creating user name:	WinNT
#	Creation time:	15. 06. 2019 20:24

#	Modifying user name:	WinNT
#	Modification time:	15. 06. 2019 20:24

#	Program:	/corina/corina34_cracker 3.40 0067  02.08.2006

@<TRIPOS>MOLECULE
ASD02560203
  47   49    0    0    0
SMALL
NO_CHARGES


@<TRIPOS>ATOM
   1 N1             0.1050     1.2600    -0.6366 N.ar    
   2 C2             0.1374    -0.0667    -0.6003 C.ar    
   3 C3             1.3529    -0.7085    -0.3674 C.ar    
   4 C4             2.4834     0.0658    -0.1822 C.ar    
   5 N5             2.3798     1.3850    -0.2310 N.ar    
   6 C6             1.2104     1.9678    -0.4543 C.ar    
   7 O7            -0.9953    -0.7870    -0.7867 O.3     
   8 C8            -2.1513    -0.1107    -1.0093 C.ar    
   9 C9            -4.5105     1.2698    -1.4636 C.ar    
  10 C10           -4.1246     0.9523    -0.1585 C.ar    
  11 C11           -2.9508     0.2665     0.0629 C.ar    
  12 C12           -2.5289     0.2072    -2.3084 C.ar    
  13 C13           -3.7006     0.8935    -2.5387 C.ar    
  14 C14           -2.5332    -0.0756     1.4699 C.3     
  15 C15           -1.6548    -0.1992    -3.4668 C.3     
  16 C16           -5.7300     1.9828    -1.6985 C.1     
  17 N17           -6.6974     2.5483    -1.8848 N.1     
  18 S18            1.1236     3.7268    -0.5103 S.3     
  19 C19            2.8604     4.1370    -0.2078 C.3     
  20 C20            3.0309     5.6343    -0.2116 C.2     
  21 N21            4.2484     6.1743    -0.0053 N.am    
  22 C22            4.4252     7.5549    -0.1050 C.ar    
  23 O23            2.0726     6.3533    -0.4001 O.2     
  24 C24            3.5903     9.7787     0.2250 C.ar    
  25 C25            3.4195     8.4158     0.3222 C.ar    
  26 C26            5.6090     8.0670    -0.6259 C.ar    
  27 C27            5.7870     9.4288    -0.7257 C.ar    
  28 C28            4.7764    10.2968    -0.3028 C.ar    
  29 C29            4.9576    11.7136    -0.4054 C.1     
  30 N30            5.1014    12.8375    -0.4869 N.1     
  31 H31            1.4102    -1.7864    -0.3320 H       
  32 H32            3.4404    -0.4002     0.0007 H       
  33 H33           -4.7475     1.2413     0.6751 H       
  34 H34           -3.9952     1.1370    -3.5488 H       
  35 H35           -2.9405    -1.0489     1.7433 H       
  36 H36           -1.4452    -0.1076     1.5283 H       
  37 H37           -2.9117     0.6824     2.1557 H       
  38 H38           -1.9516    -1.1879    -3.8166 H       
  39 H39           -1.7669     0.5216    -4.2769 H       
  40 H40           -0.6138    -0.2250    -3.1449 H       
  41 H41            3.1644     3.7390     0.7603 H       
  42 H42            3.4789     3.6989    -0.9912 H       
  43 H43            5.0017     5.6034     0.2123 H       
  44 H44            2.8091    10.4465     0.5568 H       
  45 H45            2.5035     8.0148     0.7302 H       
  46 H46            6.3896     7.3957    -0.9521 H       
  47 H47            6.7065     9.8257    -1.1299 H       
@<TRIPOS>BOND
   1    1    2 ar
   2    1    6 ar
   3    2    3 ar
   4    2    7 1
   5    3    4 ar
   6    3   31 1
   7    4    5 ar
   8    4   32 1
   9    5    6 ar
  10    6   18 1
  11    7    8 1
  12    8   12 ar
  13    8   11 ar
  14    9   10 ar
  15    9   13 ar
  16    9   16 1
  17   10   11 ar
  18   10   33 1
  19   11   14 1
  20   12   13 ar
  21   12   15 1
  22   13   34 1
  23   14   35 1
  24   14   36 1
  25   14   37 1
  26   15   38 1
  27   15   39 1
  28   15   40 1
  29   16   17 3
  30   18   19 1
  31   19   20 1
  32   19   41 1
  33   19   42 1
  34   20   21 am
  35   20   23 2
  36   21   22 1
  37   21   43 1
  38   22   26 ar
  39   22   25 ar
  40   24   25 ar
  41   24   28 ar
  42   24   44 1
  43   25   45 1
  44   26   27 ar
  45   26   46 1
  46   27   28 ar
  47   27   47 1
  48   28   29 1
  49   29   30 3

#	End of record

