#	Name: ASD01811718
#	Creating user name:	WinNT
#	Creation time:	15. 06. 2019 19:27

#	Modifying user name:	WinNT
#	Modification time:	15. 06. 2019 19:27

#	Program:	/corina/corina34_cracker 3.40 0067  02.08.2006

@<TRIPOS>MOLECULE
ASD01811718
  54   58    0    0    0
SMALL
NO_CHARGES


@<TRIPOS>ATOM
   1 C1            -0.0167     1.3805     0.0096 C.ar    
   2 C2             0.0021    -0.0041     0.0020 C.ar    
   3 C3             1.2075    -0.6836    -0.0127 C.ar    
   4 C4             2.3988     0.0118    -0.0203 C.ar    
   5 C5             2.3881     1.4079    -0.0132 C.ar    
   6 C6             1.1658     2.0836     0.0021 C.ar    
   7 C7            -1.2939    -0.7731     0.0103 C.3     
   8 C8             1.2188    -2.1905    -0.0199 C.3     
   9 C9             1.0853    -2.6871    -1.4364 C.ar    
  10 C10            2.2168    -2.9050    -2.2008 C.ar    
  11 C11            2.0976    -3.3605    -3.4992 C.ar    
  12 C12            0.8401    -3.5996    -4.0368 C.ar    
  13 C13           -0.2942    -3.3799    -3.2669 C.ar    
  14 C14           -0.1684    -2.9294    -1.9673 C.ar    
  15 N15            0.7158    -4.0616    -5.3545 N.pl3   
  16 N16            1.7700    -4.3243    -6.2389 N.2     
  17 C17            1.2606    -4.7388    -7.3710 C.2     
  18 C18           -0.1328    -4.7536    -7.2450 C.2     
  19 C19           -0.4426    -4.3380    -5.9950 C.2     
  20 C20            3.4708     2.4102    -0.0183 C.2     
  21 N21            2.9565     3.6521    -0.0072 N.am    
  22 C22            1.4923     3.5561     0.0064 C.3     
  23 O23            4.6581     2.1501    -0.0300 O.2     
  24 C24            3.7301     4.8962    -0.0086 C.3     
  25 C25            4.6348     4.9557     1.2347 C.3     
  26 C26            6.0871     5.0298     0.7197 C.3     
  27 C27            5.9542     5.6127    -0.7091 C.3     
  28 C28            4.6642     4.9362    -1.2357 C.3     
  29 O29            4.4558     3.7800     2.0270 O.3     
  30 H30           -0.9590     1.9081     0.0170 H       
  31 H31            3.3374    -0.5224    -0.0314 H       
  32 H32           -1.6162    -0.9530    -1.0154 H       
  33 H33           -1.1473    -1.7267     0.5176 H       
  34 H34           -2.0556    -0.1960     0.5345 H       
  35 H35            2.1570    -2.5488     0.4038 H       
  36 H36            0.3854    -2.5629     0.5758 H       
  37 H37            3.1947    -2.7184    -1.7822 H       
  38 H38            2.9817    -3.5301    -4.0959 H       
  39 H39           -1.2737    -3.5648    -3.6825 H       
  40 H40           -1.0503    -2.7583    -1.3679 H       
  41 H41            1.8196    -5.0205    -8.2511 H       
  42 H42           -0.8367    -5.0485    -8.0092 H       
  43 H43           -1.4367    -4.2393    -5.5846 H       
  44 H44            1.0774     4.0343    -0.8809 H       
  45 H45            1.0945     4.0255     0.9061 H       
  46 H46            3.0581     5.7542    -0.0227 H       
  47 H47            4.4019     5.8426     1.8239 H       
  48 H48            6.6814     5.6928     1.3485 H       
  49 H49            6.5312     4.0349     0.6861 H       
  50 H50            5.8361     6.6958    -0.6750 H       
  51 H51            6.8129     5.3358    -1.3207 H       
  52 H52            4.8785     3.9262    -1.5851 H       
  53 H53            4.2201     5.5309    -2.0339 H       
  54 H54            4.9997     3.7578     2.8263 H       
@<TRIPOS>BOND
   1    1    2 ar
   2    1    6 ar
   3    1   30 1
   4    2    3 ar
   5    2    7 1
   6    3    4 ar
   7    3    8 1
   8    4    5 ar
   9    4   31 1
  10    5    6 ar
  11    5   20 1
  12    6   22 1
  13    7   32 1
  14    7   33 1
  15    7   34 1
  16    8    9 1
  17    8   35 1
  18    8   36 1
  19    9   10 ar
  20    9   14 ar
  21   10   11 ar
  22   10   37 1
  23   11   12 ar
  24   11   38 1
  25   12   13 ar
  26   12   15 1
  27   13   14 ar
  28   13   39 1
  29   14   40 1
  30   15   16 1
  31   15   19 1
  32   16   17 2
  33   17   18 1
  34   17   41 1
  35   18   19 2
  36   18   42 1
  37   19   43 1
  38   20   21 am
  39   20   23 2
  40   21   22 1
  41   21   24 1
  42   22   44 1
  43   22   45 1
  44   24   25 1
  45   24   28 1
  46   24   46 1
  47   25   26 1
  48   25   29 1
  49   25   47 1
  50   26   27 1
  51   26   48 1
  52   26   49 1
  53   27   28 1
  54   27   50 1
  55   27   51 1
  56   28   52 1
  57   28   53 1
  58   29   54 1

#	End of record

