#	Name: ASD06390030
#	Creating user name:	WinNT
#	Creation time:	15. 06. 2019 21:06

#	Modifying user name:	WinNT
#	Modification time:	15. 06. 2019 21:06

#	Program:	/corina/corina34_cracker 3.40 0067  02.08.2006

@<TRIPOS>MOLECULE
ASD06390030
  46   47    0    0    0
SMALL
NO_CHARGES


@<TRIPOS>ATOM
   1 Cl1            0.0021    -0.0041     0.0020 Cl      
   2 Cl2            2.6816     1.5876    -0.0139 Cl      
   3 C3            -0.0215     1.7317     0.0116 C.ar    
   4 C4             1.1686     2.4386     0.0040 C.ar    
   5 C5             1.1545     3.8221     0.0111 C.ar    
   6 C6            -0.0537     4.5027     0.0258 C.ar    
   7 N7            -0.0702     5.9028     0.0326 N.pl3   
   8 C8             1.1898     6.6502     0.0241 C.3     
   9 C9             0.8970     8.1285     0.0338 C.2     
  10 N10            1.9110     9.0164     0.0283 N.am    
  11 C11            1.6414    10.4606     0.0377 C.3     
  12 C12            2.4075    11.0977     1.2014 C.3     
  13 C13            3.8903    10.7357     1.0896 C.3     
  14 N14            4.6313    11.3706     2.1823 N.am    
  15 S15            6.1737    11.9176     1.9287 S.o2    
  16 O16            6.8468    10.8102     1.3458 O.2     
  17 C17            5.9859    13.2567     0.7195 C.3     
  18 C18            7.3590    13.8508     0.3992 C.3     
  19 O19            6.5732    12.4367     3.1897 O.2     
  20 C20            4.0544     9.2167     1.1773 C.3     
  21 C21            3.3070     8.5583     0.0190 C.3     
  22 O22           -0.2511     8.5192     0.0466 O.2     
  23 C23           -1.2512     3.7903     0.0334 C.ar    
  24 O24           -2.4386     4.4538     0.0474 O.3     
  25 C25           -1.2302     2.4059     0.0209 C.ar    
  26 H26            2.0841     4.3718     0.0055 H       
  27 H27           -0.9158     6.3778     0.0429 H       
  28 H28            1.7729     6.3895     0.9073 H       
  29 H29            1.7559     6.3979    -0.8725 H       
  30 H30            1.9735    10.9004    -0.9027 H       
  31 H31            0.5727    10.6321     0.1664 H       
  32 H32            2.2935    12.1810     1.1623 H       
  33 H33            2.0119    10.7235     2.1456 H       
  34 H34            4.2791    11.0882     0.1343 H       
  35 H35            4.2186    11.4705     3.0544 H       
  36 H36            5.5388    12.8622    -0.1930 H       
  37 H37            5.3420    14.0325     1.1337 H       
  38 H38            7.8061    14.2453     1.3117 H       
  39 H39            8.0029    13.0750    -0.0150 H       
  40 H40            7.2461    14.6555    -0.3274 H       
  41 H41            5.1125     8.9612     1.1211 H       
  42 H42            3.6432     8.8603     2.1218 H       
  43 H43            3.3369     7.4750     0.1354 H       
  44 H44            3.7777     8.8398    -0.9229 H       
  45 H45           -2.7900     4.6498    -0.8319 H       
  46 H46           -2.1573     1.8520     0.0223 H       
@<TRIPOS>BOND
   1    1    3 1
   2    2    4 1
   3    3    4 ar
   4    3   25 ar
   5    4    5 ar
   6    5    6 ar
   7    5   26 1
   8    6    7 1
   9    6   23 ar
  10    7    8 1
  11    7   27 1
  12    8    9 1
  13    8   28 1
  14    8   29 1
  15    9   10 am
  16    9   22 2
  17   10   11 1
  18   10   21 1
  19   11   12 1
  20   11   30 1
  21   11   31 1
  22   12   13 1
  23   12   32 1
  24   12   33 1
  25   13   14 1
  26   13   20 1
  27   13   34 1
  28   14   15 am
  29   14   35 1
  30   15   16 2
  31   15   17 1
  32   15   19 2
  33   17   18 1
  34   17   36 1
  35   17   37 1
  36   18   38 1
  37   18   39 1
  38   18   40 1
  39   20   21 1
  40   20   41 1
  41   20   42 1
  42   21   43 1
  43   21   44 1
  44   23   24 1
  45   23   25 ar
  46   24   45 1
  47   25   46 1

#	End of record

