#	Name: ASD03090587
#	Creating user name:	WinNT
#	Creation time:	15. 06. 2019 20:29

#	Modifying user name:	WinNT
#	Modification time:	15. 06. 2019 20:29

#	Program:	/corina/corina34_cracker 3.40 0067  02.08.2006

@<TRIPOS>MOLECULE
ASD03090587
  36   37    0    0    0
SMALL
NO_CHARGES


@<TRIPOS>ATOM
   1 N1            -0.1133     1.4281     0.3406 N.am    
   2 C2             0.2775     0.2105    -0.0850 C.2     
   3 O3             1.4606    -0.0351    -0.2214 O.2     
   4 N4            -0.6429    -0.7349    -0.3595 N.am    
   5 C5            -0.8940    -3.1352    -0.5339 C.ar    
   6 C6            -0.2465    -1.9582    -0.9021 C.ar    
   7 C7             0.8015    -2.0161    -1.8189 C.ar    
   8 C8             1.1609    -3.2489    -2.3316 C.ar    
   9 C9             0.4666    -4.3861    -1.9165 C.ar    
  10 N10           -0.5278    -4.2914    -1.0400 N.ar    
  11 C11            0.8292    -5.6685    -2.4407 C.1     
  12 N12            1.1169    -6.6857    -2.8565 N.1     
  13 C13            0.8450     2.3745     0.7352 C.ar    
  14 C14            0.5576     3.7348     0.6499 C.ar    
  15 C15            1.5047     4.6666     1.0404 C.ar    
  16 C16            2.7374     4.2444     1.5155 C.ar    
  17 C17            3.0228     2.8890     1.5996 C.ar    
  18 C18            2.0766     1.9562     1.2156 C.ar    
  19 O19            3.6674     5.1596     1.8989 O.3     
  20 C20            3.3069     6.5377     1.7853 C.3     
  21 O21           -0.6514     4.1473     0.1834 O.3     
  22 C22           -0.8770     5.5571     0.1234 C.3     
  23 Cl23           4.5668     2.3634     2.1941 Cl      
  24 H24           -1.0567     1.6517     0.3703 H       
  25 H25           -1.5809    -0.5652    -0.1800 H       
  26 H26           -1.7040    -3.0977     0.1795 H       
  27 H27            1.3206    -1.1189    -2.1222 H       
  28 H28            1.9681    -3.3307    -3.0444 H       
  29 H29            1.2837     5.7217     0.9746 H       
  30 H30            2.2985     0.9016     1.2863 H       
  31 H31            4.1361     7.1592     2.1232 H       
  32 H32            3.0798     6.7692     0.7447 H       
  33 H33            2.4298     6.7357     2.4013 H       
  34 H34           -1.8771     5.7488    -0.2655 H       
  35 H35           -0.7884     5.9821     1.1232 H       
  36 H36           -0.1377     6.0158    -0.5333 H       
@<TRIPOS>BOND
   1    1    2 am
   2    1   13 1
   3    1   24 1
   4    2    3 2
   5    2    4 am
   6    4    6 1
   7    4   25 1
   8    5    6 ar
   9    5   10 ar
  10    5   26 1
  11    6    7 ar
  12    7    8 ar
  13    7   27 1
  14    8    9 ar
  15    8   28 1
  16    9   10 ar
  17    9   11 1
  18   11   12 3
  19   13   14 ar
  20   13   18 ar
  21   14   15 ar
  22   14   21 1
  23   15   16 ar
  24   15   29 1
  25   16   17 ar
  26   16   19 1
  27   17   18 ar
  28   17   23 1
  29   18   30 1
  30   19   20 1
  31   20   31 1
  32   20   32 1
  33   20   33 1
  34   21   22 1
  35   22   34 1
  36   22   35 1
  37   22   36 1

#	End of record

