#	Name: ASD01810695
#	Creating user name:	WinNT
#	Creation time:	15. 06. 2019 19:25

#	Modifying user name:	WinNT
#	Modification time:	15. 06. 2019 19:25

#	Program:	/corina/corina34_cracker 3.40 0067  02.08.2006

@<TRIPOS>MOLECULE
ASD01810695
  26   28    0    0    0
SMALL
NO_CHARGES


@<TRIPOS>ATOM
   1 C1            -0.0012     1.9490    -0.7144 C.3     
   2 C2            -0.1165     0.6537    -1.4883 C.2     
   3 O3             0.0153    -0.3751    -0.6460 O.3     
   4 C4             0.2099    -0.0279     0.6295 C.2     
   5 C5             0.2227     1.4814     0.7384 C.3     
   6 C6             1.3148     2.2596     0.0016 C.3     
   7 O7            -0.2994     0.5641    -2.6792 O.2     
   8 O8             0.3525    -0.7971     1.5502 O.2     
   9 C9             2.5390     1.4958    -0.4329 C.ar    
  10 C10            3.2067     1.8609    -1.5873 C.ar    
  11 C11            4.3291     1.1623    -1.9878 C.ar    
  12 C12            4.7864     0.0936    -1.2305 C.ar    
  13 C13            4.1148    -0.2708    -0.0726 C.ar    
  14 C14            2.9960     0.4346     0.3266 C.ar    
  15 O15            5.8902    -0.5955    -1.6226 O.3     
  16 C16            6.3036    -1.6841    -0.7943 C.3     
  17 H17           -0.6763     2.7621    -0.9811 H       
  18 H18           -0.2967     1.9343     1.5829 H       
  19 H19            1.4893     3.2914     0.3068 H       
  20 H20            2.8501     2.6927    -2.1766 H       
  21 H21            4.8501     1.4477    -2.8898 H       
  22 H22            4.4688    -1.1024     0.5186 H       
  23 H23            2.4756     0.1543     1.2305 H       
  24 H24            7.1940    -2.1468    -1.2199 H       
  25 H25            6.5291    -1.3143     0.2060 H       
  26 H26            5.5029    -2.4215    -0.7370 H       
@<TRIPOS>BOND
   1    1    2 1
   2    1    6 1
   3    1    5 1
   4    1   17 1
   5    2    3 1
   6    2    7 2
   7    3    4 1
   8    4    5 1
   9    4    8 2
  10    5    6 1
  11    5   18 1
  12    6    9 1
  13    6   19 1
  14    9   10 ar
  15    9   14 ar
  16   10   11 ar
  17   10   20 1
  18   11   12 ar
  19   11   21 1
  20   12   13 ar
  21   12   15 1
  22   13   14 ar
  23   13   22 1
  24   14   23 1
  25   15   16 1
  26   16   24 1
  27   16   25 1
  28   16   26 1

#	End of record

