#	Name: ASD03730286
#	Creating user name:	WinNT
#	Creation time:	15. 06. 2019 20:44

#	Modifying user name:	WinNT
#	Modification time:	15. 06. 2019 20:44

#	Program:	/corina/corina34_cracker 3.40 0067  02.08.2006

@<TRIPOS>MOLECULE
ASD03730286
  80   86    0    0    0
SMALL
NO_CHARGES


@<TRIPOS>ATOM
   1 N1             1.2686     1.7771    -0.1977 N.am    
   2 C2             2.0280     0.6419    -0.3232 C.2     
   3 C3             1.2818    -0.4432    -0.0126 C.2     
   4 C4            -0.0622     0.0481     0.3388 C.ar    
   5 C5            -1.2433    -0.5755     0.7370 C.ar    
   6 C6            -2.3646     0.1886     0.9995 C.ar    
   7 C7            -2.3149     1.5731     0.8671 C.ar    
   8 C8            -1.1515     2.1977     0.4740 C.ar    
   9 C9            -0.0145     1.4447     0.2060 C.ar    
  10 C10            1.7071     3.0307    -0.4273 C.2     
  11 O11            0.9535     3.9729    -0.2871 O.2     
  12 O12            2.9801     3.2385    -0.8119 O.3     
  13 O13           -0.7447    -1.2469     5.6144 O.3     
  14 C14           -1.5340    -0.0497     5.7445 C.3     
  15 O15           -0.6021     1.0079     5.4514 O.3     
  16 C16            0.3337     0.4519     4.6267 C.ar    
  17 C17            0.2467    -0.9346     4.7287 C.ar    
  18 C18            1.2667     1.0260     3.7819 C.ar    
  19 C19            2.1245     0.2271     3.0319 C.ar    
  20 C20            2.0348    -1.1566     3.1495 C.ar    
  21 C21            1.1014    -1.7320     3.9862 C.ar    
  22 O22            3.0906     0.5851     2.1382 O.3     
  23 C23            3.0961    -1.7334     2.2514 C.3     
  24 C24            3.9880    -0.5239     1.9389 C.3     
  25 N25            3.7294    -3.9259     2.1339 N.am    
  26 C26            3.8655    -2.8377     2.9176 C.2     
  27 C27            2.5234    -2.3433     1.0068 C.ar    
  28 C28            1.7304    -1.8560    -0.0240 C.ar    
  29 C29            1.3569    -2.7003    -1.0702 C.ar    
  30 C30            1.7787    -4.0150    -1.0722 C.ar    
  31 C31            2.5665    -4.4984    -0.0473 C.ar    
  32 C32            2.9482    -3.6670     1.0046 C.ar    
  33 C33            4.3309    -5.2282     2.4311 C.3     
  34 C34            3.3566    -6.0613     3.2664 C.3     
  35 C35            3.9848    -7.4214     3.5769 C.3     
  36 C36            3.0105    -8.2545     4.4121 C.3     
  37 C37            3.6387    -9.6146     4.7226 C.3     
  38 O38            4.4870    -2.7648     3.9566 O.2     
  39 O39           -3.5199    -0.4141     1.3879 O.3     
  40 C40           -4.6406     0.4349     1.6431 C.3     
  41 C41            3.3831     4.6144    -1.0414 C.3     
  42 C42            3.2066     5.4193     0.2478 C.3     
  43 C43            4.8518     4.6511    -1.4685 C.3     
  44 C44            2.5156     5.2227    -2.1452 C.3     
  45 H45            3.0647     0.6177    -0.6250 H       
  46 H46           -1.2823    -1.6499     0.8394 H       
  47 H47           -3.1958     2.1627     1.0739 H       
  48 H48           -1.1229     3.2727     0.3742 H       
  49 H49           -2.3519    -0.0500     5.0240 H       
  50 H50           -1.9171     0.0479     6.7602 H       
  51 H51            1.3296     2.1014     3.7037 H       
  52 H52            1.0367    -2.8074     4.0623 H       
  53 H53            4.3385    -0.5577     0.9073 H       
  54 H54            4.8273    -0.4724     2.6325 H       
  55 H55            0.7403    -2.3273    -1.8745 H       
  56 H56            1.4899    -4.6696    -1.8812 H       
  57 H57            2.8895    -5.5289    -0.0601 H       
  58 H58            4.5479    -5.7495     1.4988 H       
  59 H59            5.2556    -5.0824     2.9896 H       
  60 H60            3.1396    -5.5400     4.1988 H       
  61 H61            2.4320    -6.2071     2.7080 H       
  62 H62            4.2018    -7.9427     2.6445 H       
  63 H63            4.9095    -7.2756     4.1353 H       
  64 H64            2.7935    -7.7332     5.3445 H       
  65 H65            2.0859    -8.4003     3.8537 H       
  66 H66            2.9446   -10.2081     5.3176 H       
  67 H67            3.8557   -10.1359     3.7902 H       
  68 H68            4.5634    -9.4688     5.2810 H       
  69 H69           -5.4949    -0.1716     1.9439 H       
  70 H70           -4.3923     1.1342     2.4415 H       
  71 H71           -4.8895     0.9898     0.7385 H       
  72 H72            3.8246     4.9859     1.0342 H       
  73 H73            3.5092     6.4522     0.0756 H       
  74 H74            2.1603     5.3931     0.5521 H       
  75 H75            4.9776     4.0777    -2.3869 H       
  76 H76            5.1544     5.6840    -1.6407 H       
  77 H77            5.4698     4.2178    -0.6821 H       
  78 H78            1.4693     5.1965    -1.8409 H       
  79 H79            2.8182     6.2556    -2.3174 H       
  80 H80            2.6414     4.6493    -3.0636 H       
@<TRIPOS>BOND
   1    1    2 1
   2    1    9 1
   3    1   10 am
   4    2    3 2
   5    2   45 1
   6    3    4 1
   7    3   28 1
   8    4    5 ar
   9    4    9 ar
  10    5    6 ar
  11    5   46 1
  12    6    7 ar
  13    6   39 1
  14    7    8 ar
  15    7   47 1
  16    8    9 ar
  17    8   48 1
  18   10   11 2
  19   10   12 1
  20   12   41 1
  21   13   14 1
  22   13   17 1
  23   14   15 1
  24   14   49 1
  25   14   50 1
  26   15   16 1
  27   16   17 ar
  28   16   18 ar
  29   17   21 ar
  30   18   19 ar
  31   18   51 1
  32   19   20 ar
  33   19   22 1
  34   20   21 ar
  35   20   23 1
  36   21   52 1
  37   22   24 1
  38   23   24 1
  39   23   26 1
  40   23   27 1
  41   24   53 1
  42   24   54 1
  43   25   26 am
  44   25   32 1
  45   25   33 1
  46   26   38 2
  47   27   28 ar
  48   27   32 ar
  49   28   29 ar
  50   29   30 ar
  51   29   55 1
  52   30   31 ar
  53   30   56 1
  54   31   32 ar
  55   31   57 1
  56   33   34 1
  57   33   58 1
  58   33   59 1
  59   34   35 1
  60   34   60 1
  61   34   61 1
  62   35   36 1
  63   35   62 1
  64   35   63 1
  65   36   37 1
  66   36   64 1
  67   36   65 1
  68   37   66 1
  69   37   67 1
  70   37   68 1
  71   39   40 1
  72   40   69 1
  73   40   70 1
  74   40   71 1
  75   41   42 1
  76   41   44 1
  77   41   43 1
  78   42   72 1
  79   42   73 1
  80   42   74 1
  81   43   75 1
  82   43   76 1
  83   43   77 1
  84   44   78 1
  85   44   79 1
  86   44   80 1

#	End of record

