#	Name: ASD01903030
#	Creating user name:	WinNT
#	Creation time:	15. 06. 2019 19:54

#	Modifying user name:	WinNT
#	Modification time:	15. 06. 2019 19:54

#	Program:	/corina/corina34_cracker 3.40 0067  02.08.2006

@<TRIPOS>MOLECULE
ASD01903030
  36   38    0    0    0
SMALL
NO_CHARGES


@<TRIPOS>ATOM
   1 C1            -0.0271     1.4943    -0.1187 C.ar    
   2 C2             0.0012     0.1159    -0.2034 C.ar    
   3 C3             1.1894    -0.5689     0.0160 C.ar    
   4 C4             2.3477     0.1308     0.3201 C.ar    
   5 C5             2.3203     1.5091     0.4049 C.ar    
   6 C6             1.1330     2.1949     0.1858 C.ar    
   7 N7             1.1053     3.5919     0.2714 N.am    
   8 C8             0.0199     4.2150     0.7714 C.2     
   9 O9            -0.9665     3.5711     1.0707 O.2     
  10 C10            0.0291     5.6847     0.9562 C.ar    
  11 O11            1.2171    -1.9258    -0.0669 O.3     
  12 C12            2.4190    -2.5482     0.0561 C.ar    
  13 C13            2.9074    -2.8751     1.3140 C.ar    
  14 C14            4.1301    -3.5086     1.4358 C.ar    
  15 C15            4.8660    -3.8158     0.3064 C.ar    
  16 C16            4.3814    -3.4911    -0.9474 C.ar    
  17 C17            3.1576    -2.8632    -1.0753 C.ar    
  18 Cl18          -1.4483    -0.7605    -0.5834 Cl      
  19 N19            1.1092     6.3826     0.6276 N.ar    
  20 C20            1.1582     7.6886     0.7755 C.ar    
  21 C21            0.0757     8.3883     1.2837 C.ar    
  22 C22           -1.0729     7.6986     1.6398 C.ar    
  23 C23           -1.0983     6.3237     1.4682 C.ar    
  24 Cl24           1.9840    -2.4883     2.7323 Cl      
  25 H25           -0.9499     2.0275    -0.2936 H       
  26 H26            3.2712    -0.4023     0.4909 H       
  27 H27            3.2225     2.0534     0.6421 H       
  28 H28            1.8673     4.1114    -0.0292 H       
  29 H29            4.5109    -3.7633     2.4138 H       
  30 H30            5.8213    -4.3101     0.4036 H       
  31 H31            4.9585    -3.7324    -1.8278 H       
  32 H32            2.7798    -2.6103    -2.0550 H       
  33 H33            2.0547     8.2228     0.4974 H       
  34 H34            0.1264     9.4607     1.4015 H       
  35 H35           -1.9299     8.2213     2.0382 H       
  36 H36           -1.9767     5.7546     1.7347 H       
@<TRIPOS>BOND
   1    1    2 ar
   2    1    6 ar
   3    1   25 1
   4    2    3 ar
   5    2   18 1
   6    3    4 ar
   7    3   11 1
   8    4    5 ar
   9    4   26 1
  10    5    6 ar
  11    5   27 1
  12    6    7 1
  13    7    8 am
  14    7   28 1
  15    8    9 2
  16    8   10 1
  17   10   19 ar
  18   10   23 ar
  19   11   12 1
  20   12   13 ar
  21   12   17 ar
  22   13   14 ar
  23   13   24 1
  24   14   15 ar
  25   14   29 1
  26   15   16 ar
  27   15   30 1
  28   16   17 ar
  29   16   31 1
  30   17   32 1
  31   19   20 ar
  32   20   21 ar
  33   20   33 1
  34   21   22 ar
  35   21   34 1
  36   22   23 ar
  37   22   35 1
  38   23   36 1

#	End of record

