#	Name: ASD09116400
#	Creating user name:	WinNT
#	Creation time:	15. 06. 2019 21:21

#	Modifying user name:	WinNT
#	Modification time:	15. 06. 2019 21:21

#	Program:	/corina/corina34_cracker 3.40 0067  02.08.2006

@<TRIPOS>MOLECULE
ASD09116400
  70   76    0    0    0
SMALL
NO_CHARGES


@<TRIPOS>ATOM
   1 N1            -0.0589     1.5275    -0.5288 N.2     
   2 N2            -0.0821     0.2488    -1.1086 N.pl3   
   3 C3             1.1949     1.9112    -0.4981 C.2     
   4 N4             1.9589     0.9472    -1.0251 N.2     
   5 C5             1.2029    -0.0630    -1.3983 C.2     
   6 N6             1.6431    -1.2358    -1.9821 N.pl3   
   7 C7            -1.2079    -0.5443    -1.3405 C.ar    
   8 N8             1.6573     3.1283     0.0023 N.pl3   
   9 C9             3.0333     3.3746     0.0833 C.ar    
  10 C10            3.5138     4.6735    -0.0243 C.ar    
  11 C11            3.9167     2.3212     0.2768 C.ar    
  12 C12            5.2747     2.5632     0.3569 C.ar    
  13 C13            5.7566     3.8595     0.2444 C.ar    
  14 C14            4.8721     4.9162     0.0557 C.ar    
  15 N15           -1.1872    -1.4615    -2.2955 N.ar    
  16 N16           -2.2027    -2.2018    -2.5613 N.ar    
  17 C17           -3.3425    -2.0890    -1.8904 C.ar    
  18 C18           -3.4421    -1.1804    -0.8401 C.ar    
  19 C19           -2.3547    -0.3746    -0.5615 C.ar    
  20 C20           -4.5309    -2.8778    -2.2864 C.ar    
  21 C21           -5.7446    -2.2228    -2.5198 C.ar    
  22 S22           -5.8126    -0.4665    -2.3871 S.3     
  23 C23           -5.7282    -0.1843    -0.5919 C.3     
  24 C24           -4.6782    -1.1266     0.0045 C.3     
  25 C25           -4.4545    -4.2604    -2.4249 C.ar    
  26 C26           -5.5832    -4.9753    -2.7758 C.ar    
  27 C27           -6.7870    -4.3259    -2.9882 C.ar    
  28 C28           -6.8729    -2.9518    -2.8606 C.ar    
  29 F29            5.3407     6.1785    -0.0540 F       
  30 N30            7.1340     4.1046     0.3260 N.3     
  31 C31            7.6715     3.6632     1.6201 C.3     
  32 C32            9.1401     4.0764     1.7259 C.3     
  33 C33            9.9277     3.4323     0.5814 C.3     
  34 C34            9.3246     3.8768    -0.7527 C.3     
  35 C35            7.8474     3.4763    -0.7926 C.3     
  36 C36            9.7199     3.6105     3.0620 C.3     
  37 C37           11.1865     4.0393     3.1531 C.3     
  38 C38           11.9778     3.4139     2.0032 C.3     
  39 C39           11.3901     3.8708     0.6657 C.3     
  40 H40            2.5891    -1.3682    -2.1508 H       
  41 H41            1.0061    -1.9264    -2.2232 H       
  42 H42            1.0256     3.8041     0.2943 H       
  43 H43            2.8263     5.4934    -0.1708 H       
  44 H44            3.5422     1.3120     0.3652 H       
  45 H45            5.9612     1.7432     0.5074 H       
  46 H46           -2.3930     0.3651     0.2244 H       
  47 H47           -5.4441     0.8498    -0.3973 H       
  48 H48           -6.7003    -0.3895    -0.1435 H       
  49 H49           -5.1011    -2.1283     0.0804 H       
  50 H50           -4.4125    -0.7774     1.0022 H       
  51 H51           -3.5177    -4.7716    -2.2592 H       
  52 H52           -5.5259    -6.0482    -2.8856 H       
  53 H53           -7.6646    -4.8961    -3.2548 H       
  54 H54           -7.8145    -2.4491    -3.0258 H       
  55 H55            7.1041     4.1271     2.4269 H       
  56 H56            7.5924     2.5787     1.6960 H       
  57 H57            9.2182     5.1613     1.6551 H       
  58 H58            9.8673     2.3471     0.6641 H       
  59 H59            9.4115     4.9590    -0.8494 H       
  60 H60            9.8558     3.3927    -1.5721 H       
  61 H61            7.7633     2.3924    -0.7134 H       
  62 H62            7.4077     3.8056    -1.7340 H       
  63 H63            9.1575     4.0611     3.8797 H       
  64 H64            9.6534     2.5246     3.1287 H       
  65 H65           11.2515     5.1255     3.0897 H       
  66 H66           11.6033     3.7063     4.1036 H       
  67 H67           13.0199     3.7271     2.0675 H       
  68 H68           11.9211     2.3276     2.0723 H       
  69 H69           11.9529     3.4204    -0.1520 H       
  70 H70           11.4492     4.9568     0.5942 H       
@<TRIPOS>BOND
   1    1    2 1
   2    1    3 2
   3    2    7 1
   4    2    5 1
   5    3    4 1
   6    3    8 1
   7    4    5 2
   8    5    6 1
   9    6   40 1
  10    6   41 1
  11    7   15 ar
  12    7   19 ar
  13    8    9 1
  14    8   42 1
  15    9   10 ar
  16    9   11 ar
  17   10   14 ar
  18   10   43 1
  19   11   12 ar
  20   11   44 1
  21   12   13 ar
  22   12   45 1
  23   13   14 ar
  24   13   30 1
  25   14   29 1
  26   15   16 ar
  27   16   17 ar
  28   17   18 ar
  29   17   20 1
  30   18   19 ar
  31   18   24 1
  32   19   46 1
  33   20   21 ar
  34   20   25 ar
  35   21   22 1
  36   21   28 ar
  37   22   23 1
  38   23   24 1
  39   23   47 1
  40   23   48 1
  41   24   49 1
  42   24   50 1
  43   25   26 ar
  44   25   51 1
  45   26   27 ar
  46   26   52 1
  47   27   28 ar
  48   27   53 1
  49   28   54 1
  50   30   31 1
  51   30   35 1
  52   31   32 1
  53   31   55 1
  54   31   56 1
  55   32   33 1
  56   32   36 1
  57   32   57 1
  58   33   34 1
  59   33   39 1
  60   33   58 1
  61   34   35 1
  62   34   59 1
  63   34   60 1
  64   35   61 1
  65   35   62 1
  66   36   37 1
  67   36   63 1
  68   36   64 1
  69   37   38 1
  70   37   65 1
  71   37   66 1
  72   38   39 1
  73   38   67 1
  74   38   68 1
  75   39   69 1
  76   39   70 1

#	End of record

