#	Name: ASD02039190
#	Creating user name:	WinNT
#	Creation time:	15. 06. 2019 20:17

#	Modifying user name:	WinNT
#	Modification time:	15. 06. 2019 20:17

#	Program:	/corina/corina34_cracker 3.40 0067  02.08.2006

@<TRIPOS>MOLECULE
ASD02039190
  41   44    0    0    0
SMALL
NO_CHARGES


@<TRIPOS>ATOM
   1 N1            -0.0009     1.2804     0.2550 N.2     
   2 C2             0.0074    -0.0198     0.1288 C.2     
   3 N3             1.2988    -0.4141     0.1374 N.2     
   4 C4             2.0014     0.6840     0.2699 C.2     
   5 O5             1.1345     1.6990     0.3371 O.3     
   6 C6             3.5037     0.7836     0.3348 C.3     
   7 C7             4.0564     0.9540    -1.0568 C.ar    
   8 N8            -1.1052    -0.8435     0.0088 N.pl3   
   9 C9            -2.3896    -0.3053     0.1297 C.ar    
  10 C10           -3.4561    -0.8920    -0.5401 C.ar    
  11 C11           -4.7239    -0.3583    -0.4190 C.ar    
  12 C12           -4.9333     0.7593     0.3681 C.ar    
  13 C13           -3.8736     1.3465     1.0369 C.ar    
  14 C14           -2.6031     0.8135     0.9241 C.ar    
  15 C15            4.2244     2.2295    -1.5789 C.ar    
  16 C16            4.7285     2.4088    -2.8488 C.ar    
  17 C17            5.0732     1.3016    -3.6174 C.ar    
  18 C18            4.9014     0.0102    -3.0847 C.ar    
  19 C19            4.3928    -0.1476    -1.7912 C.ar    
  20 Cl20          -4.1413     2.7493     2.0239 Cl      
  21 N21            5.5791     1.4520    -4.8909 N.am    
  22 C22            5.9118     0.3817    -5.6336 C.2     
  23 C23            5.7587    -0.9341    -5.1468 C.2     
  24 C24            5.2671    -1.1486    -3.9014 C.2     
  25 O25            6.3563     0.5521    -6.7557 O.2     
  26 C26           -6.3183     1.3391     0.4974 C.3     
  27 F27           -7.2143     0.5807    -0.2637 F       
  28 F28           -6.7104     1.3151     1.8401 F       
  29 F29           -6.3159     2.6598     0.0359 F       
  30 H30            3.7850     1.6418     0.9450 H       
  31 H31            3.9093    -0.1259     0.7779 H       
  32 H32           -0.9906    -1.7920    -0.1589 H       
  33 H33           -3.2936    -1.7646    -1.1554 H       
  34 H34           -5.5529    -0.8141    -0.9400 H       
  35 H35           -1.7762     1.2716     1.4464 H       
  36 H36            3.9570     3.0900    -0.9836 H       
  37 H37            4.8552     3.4051    -3.2460 H       
  38 H38            4.2591    -1.1364    -1.3779 H       
  39 H39            5.6965     2.3427    -5.2565 H       
  40 H40            6.0348    -1.7732    -5.7681 H       
  41 H41            5.1470    -2.1522    -3.5207 H       
@<TRIPOS>BOND
   1    1    2 2
   2    1    5 1
   3    2    3 1
   4    2    8 1
   5    3    4 2
   6    4    5 1
   7    4    6 1
   8    6    7 1
   9    6   30 1
  10    6   31 1
  11    7   15 ar
  12    7   19 ar
  13    8    9 1
  14    8   32 1
  15    9   10 ar
  16    9   14 ar
  17   10   11 ar
  18   10   33 1
  19   11   12 ar
  20   11   34 1
  21   12   13 ar
  22   12   26 1
  23   13   14 ar
  24   13   20 1
  25   14   35 1
  26   15   16 ar
  27   15   36 1
  28   16   17 ar
  29   16   37 1
  30   17   18 ar
  31   17   21 1
  32   18   19 ar
  33   18   24 1
  34   19   38 1
  35   21   22 am
  36   21   39 1
  37   22   23 1
  38   22   25 2
  39   23   24 2
  40   23   40 1
  41   24   41 1
  42   26   27 1
  43   26   28 1
  44   26   29 1

#	End of record

