#	Name: ASD02030065
#	Creating user name:	WinNT
#	Creation time:	15. 06. 2019 20:14

#	Modifying user name:	WinNT
#	Modification time:	15. 06. 2019 20:14

#	Program:	/corina/corina34_cracker 3.40 0067  02.08.2006

@<TRIPOS>MOLECULE
ASD02030065
  73   77    0    0    0
SMALL
NO_CHARGES


@<TRIPOS>ATOM
   1 N1            -0.2770     1.3980     0.7349 N.am    
   2 C2            -0.1806     0.0585     0.8482 C.2     
   3 N3            -1.0922    -0.7356     0.2525 N.am    
   4 C4            -0.9335    -2.1203     0.2784 C.ar    
   5 O5             0.7288    -0.4336     1.4878 O.2     
   6 C6            -2.0507    -2.9438     0.3338 C.ar    
   7 C7            -1.8938    -4.3185     0.3596 C.ar    
   8 C8            -0.6030    -4.8709     0.3295 C.ar    
   9 C9             0.5117    -4.0276     0.2737 C.ar    
  10 C10            0.3445    -2.6729     0.2429 C.ar    
  11 C11           -0.4237    -6.3310     0.3569 C.2     
  12 O12            0.8163    -6.8585     0.3279 O.3     
  13 O13           -1.3939    -7.0616     0.4058 O.2     
  14 C14            0.9176    -8.3066     0.3577 C.3     
  15 C15            1.0401    -8.8116     1.8168 C.3     
  16 C16            1.7264   -10.1895     1.6451 C.3     
  17 C17            2.7408    -9.9674     0.5043 C.3     
  18 C18            2.2265    -8.7703    -0.3143 C.3     
  19 N19            1.9630    -9.1826    -1.6952 N.am    
  20 C20            2.9578    -9.1675    -2.6044 C.2     
  21 O21            4.0738    -8.8117    -2.2787 O.2     
  22 C22            2.6923    -9.5830    -3.9957 C.ar    
  23 C23            3.7222    -9.5681    -4.9399 C.ar    
  24 C24            3.4705    -9.9564    -6.2368 C.ar    
  25 C25            2.1939   -10.3628    -6.6072 C.ar    
  26 C26            1.1666   -10.3786    -5.6711 C.ar    
  27 C27            1.4117    -9.9977    -4.3707 C.ar    
  28 C28            0.6020     2.2251     1.4430 C.ar    
  29 C29            1.0085     3.4363     0.8986 C.ar    
  30 C30            1.8758     4.2506     1.6002 C.ar    
  31 C31            2.3394     3.8611     2.8434 C.ar    
  32 C32            1.9368     2.6554     3.3880 C.ar    
  33 C33            1.0652     1.8392     2.6939 C.ar    
  34 O34           -2.9808    -5.1280     0.4142 O.3     
  35 O35            1.9498   -10.7447    -7.8864 O.3     
  36 C36            0.6158   -11.1507    -8.1989 C.3     
  37 C37            0.5359   -11.5365    -9.6535 C.ar    
  38 C38            0.7763   -12.8429   -10.0362 C.ar    
  39 C39            0.7030   -13.1968   -11.3705 C.ar    
  40 C40            0.3889   -12.2445   -12.3219 C.ar    
  41 C41            0.1476   -10.9383   -11.9391 C.ar    
  42 C42            0.2166   -10.5853   -10.6043 C.ar    
  43 H43           -0.9531     1.7886     0.1595 H       
  44 H44           -1.8587    -0.3435    -0.1944 H       
  45 H45           -3.0403    -2.5119     0.3571 H       
  46 H46            1.5059    -4.4488     0.2504 H       
  47 H47            1.2083    -2.0261     0.1996 H       
  48 H48            0.0546    -8.7586    -0.1312 H       
  49 H49            1.6640    -8.1402     2.4068 H       
  50 H50            0.0555    -8.9243     2.2705 H       
  51 H51            2.2407   -10.4765     2.5624 H       
  52 H52            0.9954   -10.9473     1.3634 H       
  53 H53            3.7241    -9.7424     0.9174 H       
  54 H54            2.7943   -10.8552    -0.1258 H       
  55 H55            2.9602    -7.9643    -0.2984 H       
  56 H56            1.0727    -9.4665    -1.9550 H       
  57 H57            4.7143    -9.2521    -4.6529 H       
  58 H58            4.2659    -9.9448    -6.9673 H       
  59 H59            0.1760   -10.6947    -5.9629 H       
  60 H60            0.6130   -10.0106    -3.6438 H       
  61 H61            0.6471     3.7410    -0.0725 H       
  62 H62            2.1926     5.1925     1.1772 H       
  63 H63            3.0175     4.4996     3.3900 H       
  64 H64            2.3012     2.3536     4.3588 H       
  65 H65            0.7510     0.8978     3.1199 H       
  66 H66           -3.3255    -5.3827    -0.4527 H       
  67 H67            0.3419   -12.0056    -7.5806 H       
  68 H68           -0.0700   -10.3263    -8.0034 H       
  69 H69            1.0217   -13.5869    -9.2929 H       
  70 H70            0.8915   -14.2173   -11.6696 H       
  71 H71            0.3323   -12.5208   -13.3644 H       
  72 H72           -0.0975   -10.1942   -12.6824 H       
  73 H73            0.0244    -9.5656   -10.3048 H       
@<TRIPOS>BOND
   1    1    2 am
   2    1   28 1
   3    1   43 1
   4    2    3 am
   5    2    5 2
   6    3    4 1
   7    3   44 1
   8    4    6 ar
   9    4   10 ar
  10    6    7 ar
  11    6   45 1
  12    7    8 ar
  13    7   34 1
  14    8    9 ar
  15    8   11 1
  16    9   10 ar
  17    9   46 1
  18   10   47 1
  19   11   12 1
  20   11   13 2
  21   12   14 1
  22   14   15 1
  23   14   18 1
  24   14   48 1
  25   15   16 1
  26   15   49 1
  27   15   50 1
  28   16   17 1
  29   16   51 1
  30   16   52 1
  31   17   18 1
  32   17   53 1
  33   17   54 1
  34   18   19 1
  35   18   55 1
  36   19   20 am
  37   19   56 1
  38   20   21 2
  39   20   22 1
  40   22   23 ar
  41   22   27 ar
  42   23   24 ar
  43   23   57 1
  44   24   25 ar
  45   24   58 1
  46   25   26 ar
  47   25   35 1
  48   26   27 ar
  49   26   59 1
  50   27   60 1
  51   28   29 ar
  52   28   33 ar
  53   29   30 ar
  54   29   61 1
  55   30   31 ar
  56   30   62 1
  57   31   32 ar
  58   31   63 1
  59   32   33 ar
  60   32   64 1
  61   33   65 1
  62   34   66 1
  63   35   36 1
  64   36   37 1
  65   36   67 1
  66   36   68 1
  67   37   38 ar
  68   37   42 ar
  69   38   39 ar
  70   38   69 1
  71   39   40 ar
  72   39   70 1
  73   40   41 ar
  74   40   71 1
  75   41   42 ar
  76   41   72 1
  77   42   73 1

#	End of record

