#	Name: ASD07301178
#	Creating user name:	WinNT
#	Creation time:	15. 06. 2019 21:11

#	Modifying user name:	WinNT
#	Modification time:	15. 06. 2019 21:11

#	Program:	/corina/corina34_cracker 3.40 0067  02.08.2006

@<TRIPOS>MOLECULE
ASD07301178
  42   45    0    0    0
SMALL
NO_CHARGES


@<TRIPOS>ATOM
   1 C1            -0.0582     1.3974     0.0470 C.2     
   2 C2            -0.0713    -0.0568    -0.1639 C.2     
   3 C3             1.1804    -0.7257    -0.1452 C.2     
   4 C4             2.2967     0.0237     0.0655 C.2     
   5 N5             2.2071     1.3612     0.2506 N.pl3   
   6 N6             1.0963     2.0005     0.2401 N.2     
   7 O7            -1.1160    -0.6647    -0.3473 O.2     
   8 N8            -2.2421     2.2014    -0.9692 N.pl3   
   9 N9            -3.2775     3.0557    -0.5701 N.2     
  10 C10           -3.0012     3.5243     0.6207 C.2     
  11 C11           -1.7804     2.9941     1.0384 C.2     
  12 C12           -1.3173     2.1699     0.0364 C.2     
  13 C13           -2.1701     1.5004    -2.1797 C.ar    
  14 C14           -3.3014     0.8794    -2.6924 C.ar    
  15 C15           -3.2273     0.1893    -3.8865 C.ar    
  16 C16           -2.0281     0.1159    -4.5711 C.ar    
  17 C17           -0.8996     0.7329    -4.0629 C.ar    
  18 C18           -0.9687     1.4297    -2.8725 C.ar    
  19 O19            1.2615    -2.0705    -0.3312 O.3     
  20 C20            2.5660    -2.6530    -0.2953 C.3     
  21 C21            3.3866     2.0826     0.4641 C.ar    
  22 C22            3.5186     2.8853     1.5932 C.ar    
  23 C23            4.6861     3.5966     1.8002 C.ar    
  24 C24            5.7211     3.5102     0.8861 C.ar    
  25 C25            5.5916     2.7133    -0.2372 C.ar    
  26 C26            4.4306     1.9950    -0.4473 C.ar    
  27 I27            7.4883     4.5896     1.2034 I       
  28 F28            2.5076     2.9697     2.4854 F       
  29 H29            3.2648    -0.4544     0.0856 H       
  30 H30           -3.6164     4.2086     1.1861 H       
  31 H31           -1.2870     3.1938     1.9781 H       
  32 H32           -4.2382     0.9357    -2.1579 H       
  33 H33           -4.1068    -0.2939    -4.2857 H       
  34 H34           -1.9726    -0.4246    -5.5044 H       
  35 H35            0.0357     0.6732    -4.5996 H       
  36 H36           -0.0881     1.9151    -2.4784 H       
  37 H37            3.0217    -2.4637     0.6766 H       
  38 H38            2.4884    -3.7281    -0.4570 H       
  39 H39            3.1828    -2.2113    -1.0779 H       
  40 H40            4.7901     4.2203     2.6757 H       
  41 H41            6.4015     2.6490    -0.9488 H       
  42 H42            4.3332     1.3692    -1.3221 H       
@<TRIPOS>BOND
   1    1    2 1
   2    1    6 2
   3    1   12 1
   4    2    3 1
   5    2    7 2
   6    3    4 2
   7    3   19 1
   8    4    5 1
   9    4   29 1
  10    5    6 1
  11    5   21 1
  12    8    9 1
  13    8   12 1
  14    8   13 1
  15    9   10 2
  16   10   11 1
  17   10   30 1
  18   11   12 2
  19   11   31 1
  20   13   14 ar
  21   13   18 ar
  22   14   15 ar
  23   14   32 1
  24   15   16 ar
  25   15   33 1
  26   16   17 ar
  27   16   34 1
  28   17   18 ar
  29   17   35 1
  30   18   36 1
  31   19   20 1
  32   20   37 1
  33   20   38 1
  34   20   39 1
  35   21   22 ar
  36   21   26 ar
  37   22   23 ar
  38   22   28 1
  39   23   24 ar
  40   23   40 1
  41   24   25 ar
  42   24   27 1
  43   25   26 ar
  44   25   41 1
  45   26   42 1

#	End of record

