#	Name: ASD03030004
#	Creating user name:	WinNT
#	Creation time:	15. 06. 2019 20:26

#	Modifying user name:	WinNT
#	Modification time:	15. 06. 2019 20:26

#	Program:	/corina/corina34_cracker 3.40 0067  02.08.2006

@<TRIPOS>MOLECULE
ASD03030004
  33   35    0    0    0
SMALL
NO_CHARGES


@<TRIPOS>ATOM
   1 C1            -0.0169     1.3983     0.0097 C.ar    
   2 C2             0.0021    -0.0041     0.0020 C.ar    
   3 N3            -1.3052    -0.4581     0.0120 N.pl3   
   4 C4            -2.1839     0.6111     0.0262 C.ar    
   5 C5            -1.4362     1.7977     0.0313 C.ar    
   6 C6             1.1789     2.1128     0.0021 C.ar    
   7 C7             2.3806     1.4365    -0.0130 C.ar    
   8 C8             2.4008     0.0491    -0.0211 C.ar    
   9 C9             1.2246    -0.6690    -0.0132 C.ar    
  10 C10           -3.5737     0.6814     0.0402 C.ar    
  11 C11           -4.2028     1.9074     0.0532 C.ar    
  12 C12           -3.4620     3.0806     0.0520 C.ar    
  13 C13           -2.0838     3.0310     0.0454 C.ar    
  14 C14           -1.7021    -1.8683     0.0082 C.3     
  15 C15           -1.8265    -2.3670     1.4493 C.3     
  16 O16           -2.8934    -1.6758     2.1021 O.3     
  17 C17           -2.1186    -3.8688     1.4459 C.3     
  18 O18           -2.1194    -4.3570     2.7889 O.3     
  19 Cl19          -4.2724     4.6157     0.0679 Cl      
  20 Cl20           3.8728     2.3236    -0.0224 Cl      
  21 H21            1.1649     3.1927     0.0077 H       
  22 H22            3.3464    -0.4726    -0.0336 H       
  23 H23            1.2515    -1.7486    -0.0196 H       
  24 H24           -4.1599    -0.2257     0.0406 H       
  25 H25           -5.2816     1.9555     0.0641 H       
  26 H26           -1.5086     3.9451     0.0444 H       
  27 H27           -2.6621    -1.9742    -0.4970 H       
  28 H28           -0.9488    -2.4563    -0.5160 H       
  29 H29           -0.8934    -2.1795     1.9805 H       
  30 H30           -3.7560    -1.7977     1.6825 H       
  31 H31           -3.0939    -4.0483     0.9934 H       
  32 H32           -1.3507    -4.3870     0.8714 H       
  33 H33           -2.2984    -5.3044     2.8629 H       
@<TRIPOS>BOND
   1    1    2 ar
   2    1    6 ar
   3    1    5 1
   4    2    3 1
   5    2    9 ar
   6    3    4 1
   7    3   14 1
   8    4    5 ar
   9    4   10 ar
  10    5   13 ar
  11    6    7 ar
  12    6   21 1
  13    7    8 ar
  14    7   20 1
  15    8    9 ar
  16    8   22 1
  17    9   23 1
  18   10   11 ar
  19   10   24 1
  20   11   12 ar
  21   11   25 1
  22   12   13 ar
  23   12   19 1
  24   13   26 1
  25   14   15 1
  26   14   27 1
  27   14   28 1
  28   15   16 1
  29   15   17 1
  30   15   29 1
  31   16   30 1
  32   17   18 1
  33   17   31 1
  34   17   32 1
  35   18   33 1

#	End of record

