#	Name: ASD09740393
#	Creating user name:	WinNT
#	Creation time:	15. 06. 2019 21:23

#	Modifying user name:	WinNT
#	Modification time:	15. 06. 2019 21:23

#	Program:	/corina/corina34_cracker 3.40 0067  02.08.2006

@<TRIPOS>MOLECULE
ASD09740393
  56   59    0    0    0
SMALL
NO_CHARGES


@<TRIPOS>ATOM
   1 N1             0.1194     1.2365    -0.0039 N.2     
   2 N2             0.1381    -0.0244     0.0047 N.2     
   3 C3             1.2649     1.8601     0.0699 C.2     
   4 S4             2.5386     0.6423     0.1632 S.3     
   5 C5             1.3007    -0.6129     0.0868 C.2     
   6 C6             1.4595     3.3252     0.0745 C.ar    
   7 C7             0.3584     4.1741    -0.0045 C.ar    
   8 C8             2.7484     3.8588     0.1638 C.ar    
   9 C9             2.9358     5.2243     0.1685 C.ar    
  10 C10            1.8466     6.0795     0.0845 C.ar    
  11 C11            0.5479     5.5551     0.0002 C.ar    
  12 O12            2.0367     7.4228     0.0899 O.3     
  13 C13            3.3702     7.8883     0.3070 C.3     
  14 C14            4.1271     7.9058    -1.0225 C.3     
  15 C15            3.3282     9.3029     0.8886 C.3     
  16 C16           -0.5783     6.4353    -0.0870 C.1     
  17 N17           -1.4717     7.1336    -0.1562 N.1     
  18 C18            1.5378    -2.0718     0.1118 C.ar    
  19 C19            0.4586    -2.9574     0.0440 C.ar    
  20 C20            0.6867    -4.3180     0.0673 C.ar    
  21 C21            1.9829    -4.8006     0.1579 C.ar    
  22 C22            3.0538    -3.9287     0.2256 C.ar    
  23 C23            2.8393    -2.5664     0.1974 C.ar    
  24 C24           -1.0271    -2.6876    -0.0581 C.3     
  25 C25           -1.6473    -4.0189    -0.5330 C.3     
  26 C26           -0.6306    -5.0594    -0.0172 C.3     
  27 N27           -1.0270    -5.5441     1.3073 N.am    
  28 S28           -1.4595    -7.1293     1.5136 S.o2    
  29 O29           -1.7998    -7.2234     2.8900 O.2     
  30 O30           -2.4294    -7.3624     0.5015 O.2     
  31 C31            0.0579    -8.0612     1.1679 C.3     
  32 C32           -0.2383    -9.5381     1.2129 C.2     
  33 O33           -1.3582    -9.9226     1.4535 O.2     
  34 O34            0.7419   -10.4265     0.9857 O.3     
  35 H35           -0.6386     3.7640    -0.0694 H       
  36 H36            3.6006     3.1986     0.2298 H       
  37 H37            3.9343     5.6301     0.2381 H       
  38 H38            3.8781     7.2232     1.0055 H       
  39 H39            3.6193     8.5708    -1.7210 H       
  40 H40            5.1443     8.2609    -0.8569 H       
  41 H41            4.1571     6.8980    -1.4368 H       
  42 H42            2.7890     9.2904     1.8358 H       
  43 H43            4.3454     9.6580     1.0542 H       
  44 H44            2.8204     9.9679     0.1901 H       
  45 H45            2.1578    -5.8662     0.1762 H       
  46 H46            4.0599    -4.3148     0.2961 H       
  47 H47            3.6755    -1.8850     0.2502 H       
  48 H48           -1.4289    -2.4094     0.9162 H       
  49 H49           -1.2194    -1.8997    -0.7864 H       
  50 H50           -2.6257    -4.1746    -0.0785 H       
  51 H51           -1.7147    -4.0490    -1.6205 H       
  52 H52           -0.5524    -5.8911    -0.7173 H       
  53 H53           -1.0361    -4.9366     2.0634 H       
  54 H54            0.4302    -7.7953     0.1785 H       
  55 H55            0.8118    -7.8188     1.9169 H       
  56 H56            0.5037   -11.3628     1.0253 H       
@<TRIPOS>BOND
   1    1    2 1
   2    1    3 2
   3    2    5 2
   4    3    4 1
   5    3    6 1
   6    4    5 1
   7    5   18 1
   8    6    7 ar
   9    6    8 ar
  10    7   11 ar
  11    7   35 1
  12    8    9 ar
  13    8   36 1
  14    9   10 ar
  15    9   37 1
  16   10   11 ar
  17   10   12 1
  18   11   16 1
  19   12   13 1
  20   13   14 1
  21   13   15 1
  22   13   38 1
  23   14   39 1
  24   14   40 1
  25   14   41 1
  26   15   42 1
  27   15   43 1
  28   15   44 1
  29   16   17 3
  30   18   19 ar
  31   18   23 ar
  32   19   20 ar
  33   19   24 1
  34   20   21 ar
  35   20   26 1
  36   21   22 ar
  37   21   45 1
  38   22   23 ar
  39   22   46 1
  40   23   47 1
  41   24   25 1
  42   24   48 1
  43   24   49 1
  44   25   26 1
  45   25   50 1
  46   25   51 1
  47   26   27 1
  48   26   52 1
  49   27   28 am
  50   27   53 1
  51   28   29 2
  52   28   30 2
  53   28   31 1
  54   31   32 1
  55   31   54 1
  56   31   55 1
  57   32   33 2
  58   32   34 1
  59   34   56 1

#	End of record

