#	Name: ASD01882806
#	Creating user name:	WinNT
#	Creation time:	15. 06. 2019 19:45

#	Modifying user name:	WinNT
#	Modification time:	15. 06. 2019 19:45

#	Program:	/corina/corina34_cracker 3.40 0067  02.08.2006

@<TRIPOS>MOLECULE
ASD01882806
  45   48    0    0    0
SMALL
NO_CHARGES


@<TRIPOS>ATOM
   1 C1            -0.1999     1.6049    -0.0805 C.2     
   2 C2             0.0032     0.2117    -0.1049 C.2     
   3 C3            -1.0662    -0.6179     0.0304 C.2     
   4 C4            -2.3530    -0.0761     0.1919 C.2     
   5 C5            -2.5324     1.2613     0.2129 C.2     
   6 N6            -1.4699     2.1047     0.0723 N.pl3   
   7 C7            -0.8721    -2.1121     0.0067 C.3     
   8 O8            -1.4569    -2.6870     1.1770 O.3     
   9 C9             1.3892    -0.3537    -0.2794 C.3     
  10 C10           -0.9894    -3.9036     1.5672 C.ar    
  11 C11           -1.5449    -2.6941    -1.2381 C.3     
  12 N12            0.6114     2.6450    -0.1834 N.2     
  13 N13           -0.0716     3.7322    -0.0984 N.2     
  14 C14           -1.3414     3.4592     0.0568 C.2     
  15 C15           -2.4584     4.4618     0.1913 C.3     
  16 F16            1.4113    -1.1984    -1.3943 F       
  17 F17            2.2990     0.6921    -0.4685 F       
  18 F18            1.7440    -1.0796     0.8628 F       
  19 C19           -2.3933     5.4384     1.3673 C.3     
  20 C20           -2.1201     5.9336    -0.0544 C.3     
  21 C21            0.0404    -4.5087     0.8652 C.ar    
  22 C22            0.5154    -5.7447     1.2624 C.ar    
  23 C23           -0.0363    -6.3806     2.3616 C.ar    
  24 C24           -1.0657    -5.7807     3.0663 C.ar    
  25 C25           -1.5410    -4.5393     2.6751 C.ar    
  26 O26           -2.5482    -3.9457     3.3697 O.3     
  27 F27            0.4305    -7.5884     2.7468 F       
  28 C28           -3.0661    -4.6563     4.4962 C.3     
  29 H29           -3.2029    -0.7338     0.2994 H       
  30 H30           -3.5257     1.6667     0.3372 H       
  31 H31            0.1936    -2.3398    -0.0162 H       
  32 H32           -2.6106    -2.4665    -1.2151 H       
  33 H33           -1.0989    -2.2556    -2.1307 H       
  34 H34           -1.4046    -3.7749    -1.2552 H       
  35 H35           -3.4433     4.1129    -0.1192 H       
  36 H36           -3.3354     5.7323     1.8302 H       
  37 H37           -1.5426     5.3557     2.0436 H       
  38 H38           -1.0895     6.1766    -0.3133 H       
  39 H39           -2.8823     6.5532    -0.5268 H       
  40 H40            0.4720    -4.0147     0.0073 H       
  41 H41            1.3180    -6.2154     0.7141 H       
  42 H42           -1.4955    -6.2783     3.9231 H       
  43 H43           -2.2681    -4.8206     5.2203 H       
  44 H44           -3.8622    -4.0731     4.9589 H       
  45 H45           -3.4629    -5.6171     4.1685 H       
@<TRIPOS>BOND
   1    1    2 1
   2    1   12 2
   3    1    6 1
   4    2    9 1
   5    2    3 2
   6    3    4 1
   7    3    7 1
   8    4    5 2
   9    4   29 1
  10    5    6 1
  11    5   30 1
  12    6   14 1
  13    7    8 1
  14    7   11 1
  15    7   31 1
  16    8   10 1
  17    9   16 1
  18    9   17 1
  19    9   18 1
  20   10   21 ar
  21   10   25 ar
  22   11   32 1
  23   11   33 1
  24   11   34 1
  25   12   13 1
  26   13   14 2
  27   14   15 1
  28   15   19 1
  29   15   20 1
  30   15   35 1
  31   19   20 1
  32   19   36 1
  33   19   37 1
  34   20   38 1
  35   20   39 1
  36   21   22 ar
  37   21   40 1
  38   22   23 ar
  39   22   41 1
  40   23   24 ar
  41   23   27 1
  42   24   25 ar
  43   24   42 1
  44   25   26 1
  45   26   28 1
  46   28   43 1
  47   28   44 1
  48   28   45 1

#	End of record

