#	Name: ASD04910412
#	Creating user name:	WinNT
#	Creation time:	15. 06. 2019 20:55

#	Modifying user name:	WinNT
#	Modification time:	15. 06. 2019 20:55

#	Program:	/corina/corina34_cracker 3.40 0067  02.08.2006

@<TRIPOS>MOLECULE
ASD04910412
  64   66    0    0    0
SMALL
NO_CHARGES


@<TRIPOS>ATOM
   1 C1             2.0753     1.4876     0.4173 C.2     
   2 C2             1.8292     0.0010     0.3927 C.3     
   3 C3             3.1684    -0.7366     0.3343 C.3     
   4 O4             3.2057     1.9134     0.3908 O.2     
   5 O5             1.0384     2.3388     0.4631 O.3     
   6 C6             3.9702    -3.0363     0.2588 C.2     
   7 C7             3.7288    -4.4948     0.2347 C.ar    
   8 C8             4.8046    -5.3825     0.1814 C.ar    
   9 C9             4.5725    -6.7422     0.1596 C.ar    
  10 C10            3.2767    -7.2264     0.1901 C.ar    
  11 C11            2.2059    -6.3519     0.2430 C.ar    
  12 C12            2.4244    -4.9900     0.2711 C.ar    
  13 O13            5.1074    -2.6080     0.2321 O.2     
  14 N14            2.9292    -2.1818     0.3104 N.am    
  15 C15            3.0307    -8.7130     0.1651 C.3     
  16 C16            2.7456    -9.2068     1.5849 C.3     
  17 C17            3.9951    -9.0242     2.4488 C.3     
  18 C18            3.6693    -9.3855     3.8994 C.3     
  19 N19            1.8794    -9.0031    -0.6932 N.pl3   
  20 C20            2.7398   -11.2209    -1.1300 C.ar    
  21 C21            1.7967   -10.2286    -1.3615 C.ar    
  22 C22            0.7663   -10.4700    -2.2681 C.ar    
  23 C23            0.7241   -11.6973    -2.9057 C.ar    
  24 C24            1.7030   -12.6415    -2.6231 C.ar    
  25 N25            2.6673   -12.3786    -1.7564 N.ar    
  26 N26            1.6687   -13.8858    -3.2630 N.pl3   
  27 N27            1.0955   -14.1559    -4.5125 N.2     
  28 C28            1.2613   -15.4274    -4.7731 C.2     
  29 C29            1.9447   -16.0117    -3.7011 C.2     
  30 C30            2.1902   -15.0455    -2.7861 C.2     
  31 C31            2.3422   -17.4609    -3.5878 C.3     
  32 F32            1.9222   -18.1504    -4.7303 F       
  33 F33            3.7331   -17.5552    -3.4712 F       
  34 F34            1.7403   -18.0225    -2.4566 F       
  35 C35           -0.3708   -12.0061    -3.8941 C.3     
  36 C36            5.1092    -9.9376     1.9336 C.3     
  37 H37            1.2914    -0.2932     1.2940 H       
  38 H38            1.2351    -0.2545    -0.4847 H       
  39 H39            3.7062    -0.4424    -0.5670 H       
  40 H40            3.7626    -0.4811     1.2117 H       
  41 H41            1.2460     3.2832     0.4773 H       
  42 H42            5.8164    -5.0057     0.1568 H       
  43 H43            5.4040    -7.4301     0.1183 H       
  44 H44            1.1969    -6.7363     0.2666 H       
  45 H45            1.5878    -4.3085     0.3169 H       
  46 H46            2.0217    -2.5236     0.3317 H       
  47 H47            3.9124    -9.2207    -0.2260 H       
  48 H48            1.9225    -8.6329     2.0106 H       
  49 H49            2.4755   -10.2623     1.5551 H       
  50 H50            4.3235    -7.9862     2.3979 H       
  51 H51            3.3408   -10.4236     3.9503 H       
  52 H52            4.5595    -9.2555     4.5149 H       
  53 H53            2.8756    -8.7349     4.2664 H       
  54 H54            1.1745    -8.3450    -0.7979 H       
  55 H55            3.5443   -11.0406    -0.4323 H       
  56 H56            0.0183    -9.7171    -2.4681 H       
  57 H57            0.9276   -15.9387    -5.6640 H       
  58 H58            2.7053   -15.1738    -1.8456 H       
  59 H59           -0.0774   -11.6539    -4.8831 H       
  60 H60           -0.5379   -13.0827    -3.9267 H       
  61 H61           -1.2889   -11.5050    -3.5876 H       
  62 H62            4.7486   -10.9655     1.8971 H       
  63 H63            5.4055    -9.6208     0.9336 H       
  64 H64            5.9673    -9.8771     2.6030 H       
@<TRIPOS>BOND
   1    1    2 1
   2    1    4 2
   3    1    5 1
   4    2    3 1
   5    2   37 1
   6    2   38 1
   7    3   14 1
   8    3   39 1
   9    3   40 1
  10    5   41 1
  11    6    7 1
  12    6   13 2
  13    6   14 am
  14    7    8 ar
  15    7   12 ar
  16    8    9 ar
  17    8   42 1
  18    9   10 ar
  19    9   43 1
  20   10   11 ar
  21   10   15 1
  22   11   12 ar
  23   11   44 1
  24   12   45 1
  25   14   46 1
  26   15   16 1
  27   15   19 1
  28   15   47 1
  29   16   17 1
  30   16   48 1
  31   16   49 1
  32   17   18 1
  33   17   36 1
  34   17   50 1
  35   18   51 1
  36   18   52 1
  37   18   53 1
  38   19   21 1
  39   19   54 1
  40   20   21 ar
  41   20   25 ar
  42   20   55 1
  43   21   22 ar
  44   22   23 ar
  45   22   56 1
  46   23   24 ar
  47   23   35 1
  48   24   25 ar
  49   24   26 1
  50   26   27 1
  51   26   30 1
  52   27   28 2
  53   28   29 1
  54   28   57 1
  55   29   30 2
  56   29   31 1
  57   30   58 1
  58   31   32 1
  59   31   33 1
  60   31   34 1
  61   35   59 1
  62   35   60 1
  63   35   61 1
  64   36   62 1
  65   36   63 1
  66   36   64 1

#	End of record

