#	Name: ASD01720082
#	Creating user name:	WinNT
#	Creation time:	15. 06. 2019 19:23

#	Modifying user name:	WinNT
#	Modification time:	15. 06. 2019 19:23

#	Program:	/corina/corina34_cracker 3.40 0067  02.08.2006

@<TRIPOS>MOLECULE
ASD01720082
  70   73    0    0    0
SMALL
NO_CHARGES


@<TRIPOS>ATOM
   1 C1            -0.0109     1.5292     0.0833 C.3     
   2 C2             0.0112    -0.0009     0.0973 C.3     
   3 C3             0.7921    -0.4840     1.3226 C.3     
   4 C4             2.2067     0.1006     1.2796 C.3     
   5 C5             2.1209     1.6278     1.2313 C.3     
   6 N6             1.3654     2.0396     0.0413 N.3     
   7 C7             1.3799     3.4162    -0.1038 C.ar    
   8 C8             2.6009     4.0869    -0.1640 C.ar    
   9 C9             2.6179     5.4475    -0.3078 C.ar    
  10 C10            1.3942     6.1288    -0.3907 C.ar    
  11 C11            0.1991     5.3916    -0.3232 C.ar    
  12 N12            0.2332     4.0748    -0.1886 N.ar    
  13 C13           -1.4222    -0.5319     0.1632 C.3     
  14 C14           -1.4067    -2.0348     0.0533 C.2     
  15 O15           -0.3569    -2.6211    -0.0656 O.2     
  16 O16           -2.5591    -2.7221     0.0874 O.3     
  17 N17           -1.0171     6.0439    -0.4024 N.pl3   
  18 C18            1.3622     7.5915    -0.5453 C.2     
  19 O19            0.3027     8.1609    -0.7267 O.2     
  20 N20            2.5068     8.3006    -0.4859 N.am    
  21 C21            2.4750     9.7571    -0.6398 C.3     
  22 C22            2.1746    10.4064     0.7126 C.3     
  23 C23            3.8321    10.2458    -1.1500 C.3     
  24 C24            3.7989    11.7670    -1.3107 C.3     
  25 C25            3.4985    12.4163     0.0417 C.3     
  26 C26            2.1414    11.9276     0.5519 C.3     
  27 C27           -2.2606     5.2712    -0.4567 C.3     
  28 C28           -3.4341     6.2131    -0.5390 C.ar    
  29 C29           -3.7773     6.7854    -1.7494 C.ar    
  30 C30           -4.8539     7.6495    -1.8248 C.ar    
  31 C31           -5.5872     7.9408    -0.6900 C.ar    
  32 C32           -5.2444     7.3676     0.5205 C.ar    
  33 C33           -4.1708     6.5004     0.5951 C.ar    
  34 C34           -2.9778     6.4678    -2.9867 C.3     
  35 H35           -0.5540     1.8766    -0.7956 H       
  36 H36           -0.5060     1.8936     0.9834 H       
  37 H37            0.4939    -0.3662    -0.8091 H       
  38 H38            0.2880    -0.1517     2.2301 H       
  39 H39            0.8475    -1.5726     1.3133 H       
  40 H40            2.7540    -0.2051     2.1712 H       
  41 H41            2.7239    -0.2631     0.3918 H       
  42 H42            1.6158     1.9917     2.1261 H       
  43 H43            3.1262     2.0468     1.1862 H       
  44 H44            3.5274     3.5359    -0.0972 H       
  45 H45            3.5531     5.9854    -0.3562 H       
  46 H46           -1.8740    -0.2416     1.1117 H       
  47 H47           -2.0028    -0.1134    -0.6589 H       
  48 H48           -2.4987    -3.6844     0.0133 H       
  49 H49           -1.0472     7.0132    -0.4221 H       
  50 H50            3.3517     7.8465    -0.3412 H       
  51 H51            1.6985    10.0301    -1.3544 H       
  52 H52            1.2078    10.0583     1.0761 H       
  53 H53            2.9511    10.1335     1.4272 H       
  54 H54            4.6086     9.9729    -0.4354 H       
  55 H55            4.0461     9.7832    -2.1135 H       
  56 H56            4.7657    12.1152    -1.6742 H       
  57 H57            3.0223    12.0399    -2.0253 H       
  58 H58            4.2750    12.1433     0.7562 H       
  59 H59            3.4748    13.5000    -0.0728 H       
  60 H60            1.3648    12.2005    -0.1627 H       
  61 H61            1.9274    12.3902     1.5154 H       
  62 H62           -2.2497     4.6266    -1.3357 H       
  63 H63           -2.3478     4.6596     0.4413 H       
  64 H64           -5.1217     8.0972    -2.7705 H       
  65 H65           -6.4277     8.6164    -0.7488 H       
  66 H66           -5.8171     7.5955     1.4073 H       
  67 H67           -3.9052     6.0497     1.5400 H       
  68 H68           -3.4075     5.5980    -3.4836 H       
  69 H69           -3.0017     7.3217    -3.6638 H       
  70 H70           -1.9461     6.2541    -2.7077 H       
@<TRIPOS>BOND
   1    1    2 1
   2    1    6 1
   3    1   35 1
   4    1   36 1
   5    2    3 1
   6    2   13 1
   7    2   37 1
   8    3    4 1
   9    3   38 1
  10    3   39 1
  11    4    5 1
  12    4   40 1
  13    4   41 1
  14    5    6 1
  15    5   42 1
  16    5   43 1
  17    6    7 1
  18    7    8 ar
  19    7   12 ar
  20    8    9 ar
  21    8   44 1
  22    9   10 ar
  23    9   45 1
  24   10   11 ar
  25   10   18 1
  26   11   12 ar
  27   11   17 1
  28   13   14 1
  29   13   46 1
  30   13   47 1
  31   14   15 2
  32   14   16 1
  33   16   48 1
  34   17   27 1
  35   17   49 1
  36   18   19 2
  37   18   20 am
  38   20   21 1
  39   20   50 1
  40   21   23 1
  41   21   22 1
  42   21   51 1
  43   22   26 1
  44   22   52 1
  45   22   53 1
  46   23   24 1
  47   23   54 1
  48   23   55 1
  49   24   25 1
  50   24   56 1
  51   24   57 1
  52   25   26 1
  53   25   58 1
  54   25   59 1
  55   26   60 1
  56   26   61 1
  57   27   28 1
  58   27   62 1
  59   27   63 1
  60   28   29 ar
  61   28   33 ar
  62   29   30 ar
  63   29   34 1
  64   30   31 ar
  65   30   64 1
  66   31   32 ar
  67   31   65 1
  68   32   33 ar
  69   32   66 1
  70   33   67 1
  71   34   68 1
  72   34   69 1
  73   34   70 1

#	End of record

