#	Name: ASD01150736
#	Creating user name:	WinNT
#	Creation time:	15. 06. 2019 19:04

#	Modifying user name:	WinNT
#	Modification time:	15. 06. 2019 19:04

#	Program:	/corina/corina34_cracker 3.40 0067  02.08.2006

@<TRIPOS>MOLECULE
ASD01150736
  47   49    0    0    0
SMALL
NO_CHARGES


@<TRIPOS>ATOM
   1 C1            -0.0346     1.4849    -0.0045 C.2     
   2 C2             0.6462     1.0376    -1.2724 C.3     
   3 C3             1.4953     2.1832    -1.8268 C.3     
   4 O4             0.4955     1.2913     1.0694 O.2     
   5 C5             1.5444    -0.1641    -0.9724 C.3     
   6 N6            -3.6948     1.9864    -0.2139 N.ar    
   7 C7            -2.5228     1.4102    -0.1554 C.ar    
   8 C8            -1.3353     2.1599    -0.0693 C.ar    
   9 C9            -1.4103     3.5644    -0.0457 C.ar    
  10 C10           -2.6957     4.1560    -0.1107 C.ar    
  11 C11           -2.8556     5.5482    -0.0934 C.ar    
  12 C12           -4.1083     6.0842    -0.1586 C.ar    
  13 C13           -5.2307     5.2635    -0.2423 C.ar    
  14 C14           -5.1088     3.9068    -0.2612 C.ar    
  15 C15           -3.8351     3.3188    -0.1957 C.ar    
  16 C16           -0.1907     4.3937     0.0444 C.ar    
  17 C17            0.1676     5.2316    -1.0140 C.ar    
  18 C18            1.3074     6.0030    -0.9232 C.ar    
  19 C19            2.0953     5.9480     0.2131 C.ar    
  20 C20            1.7462     5.1200     1.2655 C.ar    
  21 C21            0.6060     4.3475     1.1906 C.ar    
  22 C22           -2.4417    -0.0944    -0.1806 C.3     
  23 C23           -3.1058    -0.6621     1.0754 C.3     
  24 C24           -3.1626    -0.6232    -1.4221 C.3     
  25 Br25          -4.3237     7.9628    -0.1346 Br      
  26 H26           -0.1063     0.7541    -2.0083 H       
  27 H27            0.8554     3.0394    -2.0406 H       
  28 H28            2.2478     2.4668    -1.0910 H       
  29 H29            1.9877     1.8597    -2.7439 H       
  30 H30            0.9394    -0.9802    -0.5774 H       
  31 H31            2.0368    -0.4876    -1.8894 H       
  32 H32            2.2969     0.1195    -0.2366 H       
  33 H33           -1.9918     6.1932    -0.0284 H       
  34 H34           -6.2129     5.7097    -0.2926 H       
  35 H35           -5.9894     3.2850    -0.3260 H       
  36 H36           -0.4462     5.2752    -1.9015 H       
  37 H37            1.5859     6.6511    -1.7410 H       
  38 H38            2.9869     6.5539     0.2788 H       
  39 H39            2.3658     5.0817     2.1493 H       
  40 H40            0.3321     3.7053     2.0146 H       
  41 H41           -1.3962    -0.4014    -0.2092 H       
  42 H42           -4.1513    -0.3550     1.1040 H       
  43 H43           -3.0471    -1.7503     1.0571 H       
  44 H44           -2.5922    -0.2853     1.9599 H       
  45 H45           -2.6895    -0.2188    -2.3169 H       
  46 H46           -3.1040    -1.7115    -1.4404 H       
  47 H47           -4.2081    -0.3162    -1.3936 H       
@<TRIPOS>BOND
   1    1    2 1
   2    1    4 2
   3    1    8 1
   4    2    3 1
   5    2    5 1
   6    2   26 1
   7    3   27 1
   8    3   28 1
   9    3   29 1
  10    5   30 1
  11    5   31 1
  12    5   32 1
  13    6    7 ar
  14    6   15 ar
  15    7    8 ar
  16    7   22 1
  17    8    9 ar
  18    9   10 ar
  19    9   16 1
  20   10   11 ar
  21   10   15 ar
  22   11   12 ar
  23   11   33 1
  24   12   13 ar
  25   12   25 1
  26   13   14 ar
  27   13   34 1
  28   14   15 ar
  29   14   35 1
  30   16   17 ar
  31   16   21 ar
  32   17   18 ar
  33   17   36 1
  34   18   19 ar
  35   18   37 1
  36   19   20 ar
  37   19   38 1
  38   20   21 ar
  39   20   39 1
  40   21   40 1
  41   22   23 1
  42   22   24 1
  43   22   41 1
  44   23   42 1
  45   23   43 1
  46   23   44 1
  47   24   45 1
  48   24   46 1
  49   24   47 1

#	End of record

