#	Name: ASD03082313
#	Creating user name:	WinNT
#	Creation time:	15. 06. 2019 20:27

#	Modifying user name:	WinNT
#	Modification time:	15. 06. 2019 20:27

#	Program:	/corina/corina34_cracker 3.40 0067  02.08.2006

@<TRIPOS>MOLECULE
ASD03082313
  47   50    0    0    0
SMALL
NO_CHARGES


@<TRIPOS>ATOM
   1 C1             0.1508     1.3502     0.2348 C.ar    
   2 C2            -0.9928     1.7414    -0.4483 C.ar    
   3 C3            -2.1452     0.9778    -0.3627 C.ar    
   4 C4            -2.1540    -0.1815     0.4091 C.ar    
   5 C5            -1.0109    -0.5682     1.0897 C.ar    
   6 C6             0.1403     0.1906     0.9989 C.ar    
   7 O7            -3.3791     1.1376    -0.9244 O.3     
   8 C8            -4.0189    -0.1480    -0.8199 C.3     
   9 O9            -3.3947    -0.7482     0.3304 O.3     
  10 F10           -5.3939     0.0028    -0.6105 F       
  11 F11           -3.7758    -0.9126    -1.9660 F       
  12 N12            1.3157     2.1214     0.1488 N.pl3   
  13 C13            1.2265     3.5028    -0.0325 C.2     
  14 N14            0.0971     4.2121    -0.0347 N.2     
  15 N15            2.2420     4.3140    -0.2226 N.2     
  16 N16            1.7125     5.6077    -0.3569 N.pl3   
  17 C17            0.3723     5.4857    -0.2313 C.2     
  18 C18            2.4639     6.8447    -0.5836 C.3     
  19 C19           -0.6128     6.5884    -0.3026 C.ar    
  20 C20           -0.2215     7.9166    -0.0918 C.ar    
  21 C21           -1.1681     8.9158    -0.1665 C.ar    
  22 N22           -2.4306     8.6375    -0.4321 N.ar    
  23 C23           -2.8463     7.3969    -0.6383 C.ar    
  24 C24           -1.9555     6.3325    -0.5873 C.ar    
  25 C25            2.9600     7.3929     0.7559 C.3     
  26 O26            3.5823     6.5741    -1.4310 O.3     
  27 N27           -4.1880     7.1582    -0.9146 N.pl3   
  28 C28           -4.6563     5.7892    -1.1440 C.3     
  29 C29           -6.1603     5.8049    -1.4245 C.3     
  30 H30           -0.9840     2.6409    -1.0460 H       
  31 H31           -1.0180    -1.4673     1.6881 H       
  32 H32            1.0301    -0.1134     1.5302 H       
  33 H33            2.1849     1.6960     0.2151 H       
  34 H34            1.8167     7.5809    -1.0602 H       
  35 H35            0.8089     8.1549     0.1268 H       
  36 H36           -0.8723     9.9419    -0.0049 H       
  37 H37           -2.2976     5.3221    -0.7563 H       
  38 H38            3.6072     6.6567     1.2325 H       
  39 H39            3.5191     8.3132     0.5872 H       
  40 H40            2.1069     7.5993     1.4023 H       
  41 H41            4.2021     5.9259    -1.0694 H       
  42 H42           -4.8138     7.8982    -0.9555 H       
  43 H43           -4.1315     5.3643    -1.9997 H       
  44 H44           -4.4580     5.1843    -0.2592 H       
  45 H45           -6.6850     6.2298    -0.5688 H       
  46 H46           -6.3586     6.4098    -2.3093 H       
  47 H47           -6.5087     4.7863    -1.5951 H       
@<TRIPOS>BOND
   1    1    2 ar
   2    1   12 1
   3    1    6 ar
   4    2    3 ar
   5    2   30 1
   6    3    4 ar
   7    3    7 1
   8    4    5 ar
   9    4    9 1
  10    5    6 ar
  11    5   31 1
  12    6   32 1
  13    7    8 1
  14    8    9 1
  15    8   10 1
  16    8   11 1
  17   12   13 1
  18   12   33 1
  19   13   14 1
  20   13   15 2
  21   14   17 2
  22   15   16 1
  23   16   17 1
  24   16   18 1
  25   17   19 1
  26   18   25 1
  27   18   26 1
  28   18   34 1
  29   19   20 ar
  30   19   24 ar
  31   20   21 ar
  32   20   35 1
  33   21   22 ar
  34   21   36 1
  35   22   23 ar
  36   23   24 ar
  37   23   27 1
  38   24   37 1
  39   25   38 1
  40   25   39 1
  41   25   40 1
  42   26   41 1
  43   27   28 1
  44   27   42 1
  45   28   29 1
  46   28   43 1
  47   28   44 1
  48   29   45 1
  49   29   46 1
  50   29   47 1

#	End of record

