#	Name: ASD05430089
#	Creating user name:	WinNT
#	Creation time:	15. 06. 2019 20:59

#	Modifying user name:	WinNT
#	Modification time:	15. 06. 2019 20:59

#	Program:	/corina/corina34_cracker 3.40 0067  02.08.2006

@<TRIPOS>MOLECULE
ASD05430089
  62   68    0    0    0
SMALL
NO_CHARGES


@<TRIPOS>ATOM
   1 C1             0.0222     1.4912     0.0288 C.ar    
   2 C2            -0.0226     0.3403    -0.7524 C.ar    
   3 C3             1.1359    -0.1506    -1.3446 C.ar    
   4 C4             2.3368     0.4976    -1.1626 C.ar    
   5 C5             2.3955     1.6558    -0.3793 C.ar    
   6 C6             1.2285     2.1527     0.2183 C.ar    
   7 C7             4.8375     0.1227    -0.0637 C.3     
   8 C8             4.8216     1.6423    -0.1124 C.2     
   9 C9             3.6773     2.3493    -0.1831 C.2     
  10 C10            5.8755    -0.3134     0.9774 C.3     
  11 C11            7.2960     0.1524     0.6364 C.3     
  12 N12            7.2759     1.5868     0.3627 N.pl3   
  13 C13            6.1510     2.2896    -0.0761 C.2     
  14 N14            6.4743     3.4884    -0.4307 N.2     
  15 C15            9.6390     2.0330    -0.0725 C.ar    
  16 C16           10.3787     2.7961    -0.9566 C.ar    
  17 C17           11.5633     2.3045    -1.4712 C.ar    
  18 C18           12.0092     1.0470    -1.1010 C.ar    
  19 C19           11.2676     0.2836    -0.2155 C.ar    
  20 C20           10.0833     0.7773     0.2979 C.ar    
  21 F21           13.1669     0.5652    -1.6039 F       
  22 N22           -1.2403    -0.3270    -0.9426 N.pl3   
  23 C23           -1.7721    -0.7264    -2.1414 C.2     
  24 C24           -2.9462    -1.3261    -1.8668 C.2     
  25 N25           -3.1311    -1.2964    -0.5387 N.2     
  26 C26           -2.1136    -0.7054     0.0265 C.2     
  27 C27            5.4628     0.0227     2.4115 C.3     
  28 S28            6.3345    -1.4538     3.0047 S.o     
  29 C29            5.7992    -1.8056     1.3073 C.3     
  30 O30            7.7334    -1.2045     3.0181 O.2     
  31 C31           -3.8896    -1.9263    -2.8771 C.3     
  32 C32            8.3506     2.5727     0.4928 C.3     
  33 O33            7.8753     3.6847    -0.2945 O.3     
  34 C34            8.5314     2.9846     1.9552 C.3     
  35 O35            1.0123     3.2399     1.0124 O.3     
  36 C36           -0.2625     3.0097     1.6410 C.3     
  37 O37           -0.9567     2.1662     0.7010 O.3     
  38 F38           -0.0959     2.3544     2.8658 F       
  39 F39           -0.9494     4.2158     1.8164 F       
  40 H40            1.0935    -1.0443    -1.9496 H       
  41 H41            3.2338     0.1119    -1.6241 H       
  42 H42            3.8525    -0.2463     0.2223 H       
  43 H43            5.1092    -0.2736    -1.0421 H       
  44 H44            3.7012     3.4254    -0.0957 H       
  45 H45            7.9575    -0.0485     1.4791 H       
  46 H46            7.6531    -0.3816    -0.2441 H       
  47 H47           10.0304     3.7768    -1.2455 H       
  48 H48           12.1407     2.9007    -2.1622 H       
  49 H49           11.6145    -0.6973     0.0740 H       
  50 H50            9.5047     0.1820     0.9887 H       
  51 H51           -1.3338    -0.5867    -3.1185 H       
  52 H52           -1.9900    -0.5393     1.0864 H       
  53 H53            5.8985     0.9530     2.7760 H       
  54 H54            4.3852    -0.0236     2.5693 H       
  55 H55            4.7867    -2.2056     1.2515 H       
  56 H56            6.5166    -2.4056     0.7474 H       
  57 H57           -3.6352    -2.9746    -3.0338 H       
  58 H58           -4.9125    -1.8519    -2.5082 H       
  59 H59           -3.8033    -1.3866    -3.8202 H       
  60 H60            8.7836     2.1075     2.5512 H       
  61 H61            9.3346     3.7177     2.0296 H       
  62 H62            7.6047     3.4221     2.3267 H       
@<TRIPOS>BOND
   1    1    2 ar
   2    1    6 ar
   3    1   37 1
   4    2    3 ar
   5    2   22 1
   6    3    4 ar
   7    3   40 1
   8    4    5 ar
   9    4   41 1
  10    5    6 ar
  11    5    9 1
  12    6   35 1
  13    7    8 1
  14    7   10 1
  15    7   42 1
  16    7   43 1
  17    8    9 2
  18    8   13 1
  19    9   44 1
  20   10   11 1
  21   10   27 1
  22   10   29 1
  23   11   12 1
  24   11   45 1
  25   11   46 1
  26   12   13 1
  27   12   32 1
  28   13   14 2
  29   14   33 1
  30   15   16 ar
  31   15   20 ar
  32   15   32 1
  33   16   17 ar
  34   16   47 1
  35   17   18 ar
  36   17   48 1
  37   18   19 ar
  38   18   21 1
  39   19   20 ar
  40   19   49 1
  41   20   50 1
  42   22   23 1
  43   22   26 1
  44   23   24 2
  45   23   51 1
  46   24   25 1
  47   24   31 1
  48   25   26 2
  49   26   52 1
  50   27   28 1
  51   27   53 1
  52   27   54 1
  53   28   29 1
  54   28   30 2
  55   29   55 1
  56   29   56 1
  57   31   57 1
  58   31   58 1
  59   31   59 1
  60   32   33 1
  61   32   34 1
  62   34   60 1
  63   34   61 1
  64   34   62 1
  65   35   36 1
  66   36   37 1
  67   36   38 1
  68   36   39 1

#	End of record

