#	Name: ASD06390032
#	Creating user name:	WinNT
#	Creation time:	15. 06. 2019 21:06

#	Modifying user name:	WinNT
#	Modification time:	15. 06. 2019 21:06

#	Program:	/corina/corina34_cracker 3.40 0067  02.08.2006

@<TRIPOS>MOLECULE
ASD06390032
  49   50    0    0    0
SMALL
NO_CHARGES


@<TRIPOS>ATOM
   1 Cl1            0.0021    -0.0041     0.0020 Cl      
   2 C2            -0.0215     1.7317     0.0116 C.ar    
   3 C3             1.1682     2.4383     0.0040 C.ar    
   4 C4             1.1544     3.8213     0.0111 C.ar    
   5 C5            -0.0534     4.5024     0.0258 C.ar    
   6 N6            -0.0694     5.9025     0.0326 N.pl3   
   7 C7             1.1908     6.6496     0.0241 C.3     
   8 C8             0.8985     8.1279     0.0338 C.2     
   9 N9             1.9127     9.0154     0.0283 N.am    
  10 C10            1.6436    10.4598     0.0377 C.3     
  11 C11            2.4099    11.0966     1.2013 C.3     
  12 C12            3.8926    10.7342     1.0896 C.3     
  13 N13            4.6338    11.3688     2.1823 N.am    
  14 S14            6.1764    11.9153     1.9287 S.o2    
  15 C15            5.9890    13.2545     0.7195 C.3     
  16 C16            7.3623    13.8482     0.3991 C.3     
  17 O17            6.5760    12.4343     3.1897 O.2     
  18 O18            6.8491    10.8077     1.3458 O.2     
  19 C19            4.0562     9.2151     1.1773 C.3     
  20 C20            3.3086     8.5570     0.0190 C.3     
  21 O21           -0.2495     8.5190     0.0466 O.2     
  22 C22           -1.2511     3.7903     0.0334 C.ar    
  23 O23           -2.4384     4.4539     0.0479 O.3     
  24 C24           -3.6258     3.6590     0.0550 C.3     
  25 C25           -1.2303     2.4059     0.0209 C.ar    
  26 I26            2.9939     1.4110    -0.0176 I       
  27 H27            2.0842     4.3707     0.0055 H       
  28 H28           -0.9149     6.3779     0.0429 H       
  29 H29            1.7738     6.3887     0.9073 H       
  30 H30            1.7568     6.3970    -0.8726 H       
  31 H31            1.9758    10.8995    -0.9028 H       
  32 H32            0.5750    10.6316     0.1664 H       
  33 H33            2.2963    12.1800     1.1623 H       
  34 H34            2.0142    10.7226     2.1456 H       
  35 H35            4.2815    11.0866     0.1343 H       
  36 H36            4.2211    11.4689     3.0544 H       
  37 H37            5.5418    12.8602    -0.1930 H       
  38 H38            5.3453    14.0305     1.1336 H       
  39 H39            7.2497    14.6528    -0.3274 H       
  40 H40            7.8095    14.2425     1.3116 H       
  41 H41            8.0060    13.0721    -0.0150 H       
  42 H42            5.1143     8.9593     1.1211 H       
  43 H43            3.6449     8.8588     2.1217 H       
  44 H44            3.3381     7.4736     0.1354 H       
  45 H45            3.7793     8.8383    -0.9230 H       
  46 H46           -4.4994     4.3108     0.0665 H       
  47 H47           -3.6503     3.0344    -0.8380 H       
  48 H48           -3.6336     3.0254     0.9419 H       
  49 H49           -2.1574     1.8519     0.0227 H       
@<TRIPOS>BOND
   1    1    2 1
   2    2    3 ar
   3    2   25 ar
   4    3    4 ar
   5    3   26 1
   6    4    5 ar
   7    4   27 1
   8    5    6 1
   9    5   22 ar
  10    6    7 1
  11    6   28 1
  12    7    8 1
  13    7   29 1
  14    7   30 1
  15    8    9 am
  16    8   21 2
  17    9   10 1
  18    9   20 1
  19   10   11 1
  20   10   31 1
  21   10   32 1
  22   11   12 1
  23   11   33 1
  24   11   34 1
  25   12   13 1
  26   12   19 1
  27   12   35 1
  28   13   14 am
  29   13   36 1
  30   14   15 1
  31   14   17 2
  32   14   18 2
  33   15   16 1
  34   15   37 1
  35   15   38 1
  36   16   39 1
  37   16   40 1
  38   16   41 1
  39   19   20 1
  40   19   42 1
  41   19   43 1
  42   20   44 1
  43   20   45 1
  44   22   23 1
  45   22   25 ar
  46   23   24 1
  47   24   46 1
  48   24   47 1
  49   24   48 1
  50   25   49 1

#	End of record

