#	Name: ASD08150996
#	Creating user name:	WinNT
#	Creation time:	15. 06. 2019 21:16

#	Modifying user name:	WinNT
#	Modification time:	15. 06. 2019 21:16

#	Program:	/corina/corina34_cracker 3.40 0067  02.08.2006

@<TRIPOS>MOLECULE
ASD08150996
  35   37    0    0    0
SMALL
NO_CHARGES


@<TRIPOS>ATOM
   1 S1            -0.0211     1.7023     0.0114 S.3     
   2 C2             0.0021    -0.0041     0.0020 C.2     
   3 N3             1.1994    -0.4564    -0.0119 N.2     
   4 C4             2.2072     0.4333    -0.0167 C.ar    
   5 C5             1.7394     1.7510    -0.0051 C.ar    
   6 C6             3.6095     0.2136    -0.0313 C.ar    
   7 C7             4.4800     1.2903    -0.0338 C.ar    
   8 C8             3.9939     2.5867    -0.0222 C.ar    
   9 C9             2.6356     2.8179    -0.0076 C.ar    
  10 C10           -1.2317    -0.8694     0.0092 C.3     
  11 C11            4.1422    -1.1692    -0.0433 C.ar    
  12 C12            3.9076    -1.9998    -1.1383 C.ar    
  13 C13            4.4070    -3.2884    -1.1435 C.ar    
  14 C14            5.1393    -3.7539    -0.0629 C.ar    
  15 C15            5.3735    -2.9331     1.0249 C.ar    
  16 C16            4.8846    -1.6424     1.0378 C.ar    
  17 F17            4.1807    -4.0954    -2.2031 F       
  18 C18            5.9676     1.0495    -0.0488 C.3     
  19 C19            6.4376     0.8512    -1.4913 C.3     
  20 N20            6.6552     2.2041     0.5345 N.2     
  21 N21            7.7683     2.1767     0.6883 N.1     
  22 N22            8.8813     2.1492     0.8421 N.pl3   
  23 H23            4.6816     3.4195    -0.0239 H       
  24 H24            2.2635     3.8318     0.0015 H       
  25 H25           -2.1192    -0.2366     0.0206 H       
  26 H26           -1.2425    -1.4942    -0.8839 H       
  27 H27           -1.2259    -1.5031     0.8960 H       
  28 H28            3.3367    -1.6372    -1.9802 H       
  29 H29            5.5280    -4.7614    -0.0704 H       
  30 H30            5.9443    -3.3013     1.8646 H       
  31 H31            5.0728    -1.0013     1.8863 H       
  32 H32            6.1971     0.1574     0.5339 H       
  33 H33            6.2081     1.7433    -2.0741 H       
  34 H34            7.5136     0.6770    -1.5021 H       
  35 H35            5.9261    -0.0079    -1.9253 H       
@<TRIPOS>BOND
   1    1    2 1
   2    1    5 1
   3    2    3 2
   4    2   10 1
   5    3    4 1
   6    4    5 ar
   7    4    6 ar
   8    5    9 ar
   9    6    7 ar
  10    6   11 1
  11    7    8 ar
  12    7   18 1
  13    8    9 ar
  14    8   23 1
  15    9   24 1
  16   10   25 1
  17   10   26 1
  18   10   27 1
  19   11   12 ar
  20   11   16 ar
  21   12   13 ar
  22   12   28 1
  23   13   14 ar
  24   13   17 1
  25   14   15 ar
  26   14   29 1
  27   15   16 ar
  28   15   30 1
  29   16   31 1
  30   18   19 1
  31   18   20 1
  32   18   32 1
  33   19   33 1
  34   19   34 1
  35   19   35 1
  36   20   21 2
  37   21   22 2

#	End of record

