#	Name: ASD08150954
#	Creating user name:	WinNT
#	Creation time:	15. 06. 2019 21:16

#	Modifying user name:	WinNT
#	Modification time:	15. 06. 2019 21:16

#	Program:	/corina/corina34_cracker 3.40 0067  02.08.2006

@<TRIPOS>MOLECULE
ASD08150954
  59   63    0    0    0
SMALL
NO_CHARGES


@<TRIPOS>ATOM
   1 C1             0.0928     0.6779     0.1778 C.3     
   2 S2             0.3591    -1.1105     0.0317 S.o2    
   3 O3             1.2928    -1.5568     1.0055 O.2     
   4 O4            -0.8769    -1.7845    -0.1613 O.2     
   5 N5             1.1535    -1.2935    -1.4098 N.am    
   6 N6             4.5610     0.2704    -3.3320 N.3     
   7 C7             4.7071    -1.0483    -2.7027 C.3     
   8 C8             3.3241    -1.6639    -2.4782 C.3     
   9 C9             2.4983    -0.7380    -1.5808 C.3     
  10 C10            2.4021     0.6425    -2.2360 C.3     
  11 C11            3.8119     1.1912    -2.4676 C.3     
  12 N12            6.5246     0.7558    -1.3897 N.ar    
  13 C13            7.4207     0.9704    -0.4572 C.ar    
  14 C14            8.6740     1.5017    -0.7540 C.ar    
  15 C15            8.9941     1.8124    -2.0448 C.ar    
  16 C16            8.0290     1.5799    -3.0431 C.ar    
  17 C17            8.2885     1.8749    -4.3920 C.ar    
  18 C18            7.3333     1.6378    -5.3350 C.ar    
  19 C19            6.0969     1.1050    -4.9832 C.ar    
  20 C20            5.8052     0.8033    -3.6708 C.ar    
  21 C21            6.7745     1.0378    -2.6712 C.ar    
  22 C22            5.0632     0.8558    -6.0511 C.3     
  23 C23            4.1591     2.0831    -6.1821 C.3     
  24 N24            5.7328     0.6038    -7.3296 N.pl3   
  25 N25            6.9248    -0.0707   -10.0818 N.2     
  26 C26            7.0152    -0.5877   -11.2727 C.2     
  27 N27            5.8953    -1.3130   -11.5519 N.pl3   
  28 C28            5.0696    -1.2317   -10.4592 C.ar    
  29 N29            3.8726    -1.7187   -10.1491 N.ar    
  30 C30            3.3233    -1.4562    -8.9819 C.ar    
  31 N31            3.9182    -0.7083    -8.0707 N.ar    
  32 C32            5.1169    -0.1782    -8.2910 C.ar    
  33 C33            5.7444    -0.4303    -9.5227 C.ar    
  34 Cl34           9.8229     2.5407    -4.8568 Cl      
  35 H35            1.0550     1.1899     0.1756 H       
  36 H36           -0.5060     1.0261    -0.6639 H       
  37 H37           -0.4307     0.8924     1.1095 H       
  38 H38            0.7284    -1.7685    -2.1409 H       
  39 H39            5.2926    -1.6982    -3.3530 H       
  40 H40            5.2159    -0.9394    -1.7449 H       
  41 H41            2.8201    -1.7859    -3.4369 H       
  42 H42            3.4321    -2.6359    -1.9969 H       
  43 H43            2.9814    -0.6476    -0.6079 H       
  44 H44            1.8836     0.5568    -3.1910 H       
  45 H45            1.8515     1.3184    -1.5817 H       
  46 H46            4.3249     1.2897    -1.5109 H       
  47 H47            3.7472     2.1679    -2.9471 H       
  48 H48            7.1810     0.7293     0.5679 H       
  49 H49            9.3915     1.6680     0.0359 H       
  50 H50            9.9607     2.2253    -2.2929 H       
  51 H51            7.5391     1.8668    -6.3702 H       
  52 H52            4.4615    -0.0114    -5.7791 H       
  53 H53            3.4115     1.9029    -6.9546 H       
  54 H54            3.6609     2.2705    -5.2309 H       
  55 H55            4.7609     2.9503    -6.4542 H       
  56 H56            6.6079     0.9851    -7.5022 H       
  57 H57            7.8537    -0.4604   -11.9414 H       
  58 H58            5.7150    -1.7974   -12.3727 H       
  59 H59            2.3494    -1.8676    -8.7615 H       
@<TRIPOS>BOND
   1    1    2 1
   2    1   35 1
   3    1   36 1
   4    1   37 1
   5    2    3 2
   6    2    4 2
   7    2    5 am
   8    5    9 1
   9    5   38 1
  10    6    7 1
  11    6   11 1
  12    6   20 1
  13    7    8 1
  14    7   39 1
  15    7   40 1
  16    8    9 1
  17    8   41 1
  18    8   42 1
  19    9   10 1
  20    9   43 1
  21   10   11 1
  22   10   44 1
  23   10   45 1
  24   11   46 1
  25   11   47 1
  26   12   13 ar
  27   12   21 ar
  28   13   14 ar
  29   13   48 1
  30   14   15 ar
  31   14   49 1
  32   15   16 ar
  33   15   50 1
  34   16   17 ar
  35   16   21 ar
  36   17   18 ar
  37   17   34 1
  38   18   19 ar
  39   18   51 1
  40   19   20 ar
  41   19   22 1
  42   20   21 ar
  43   22   23 1
  44   22   24 1
  45   22   52 1
  46   23   53 1
  47   23   54 1
  48   23   55 1
  49   24   32 1
  50   24   56 1
  51   25   26 2
  52   25   33 1
  53   26   27 1
  54   26   57 1
  55   27   28 1
  56   27   58 1
  57   28   29 ar
  58   28   33 ar
  59   29   30 ar
  60   30   31 ar
  61   30   59 1
  62   31   32 ar
  63   32   33 ar

#	End of record

