#	Name: ASD01910983
#	Creating user name:	WinNT
#	Creation time:	15. 06. 2019 19:56

#	Modifying user name:	WinNT
#	Modification time:	15. 06. 2019 19:56

#	Program:	/corina/corina34_cracker 3.40 0067  02.08.2006

@<TRIPOS>MOLECULE
ASD01910983
  58   61    0    0    0
SMALL
NO_CHARGES


@<TRIPOS>ATOM
   1 N1             0.1424     1.3738    -0.1997 N.3     
   2 C2             0.0810    -0.0919    -0.1232 C.3     
   3 C3            -1.3650    -0.5263     0.1387 C.3     
   4 N4            -2.2279     0.0797    -0.8868 N.am    
   5 C5            -2.1229     1.5285    -1.1170 C.3     
   6 C6            -0.6471     1.8820    -1.3294 C.3     
   7 C7            -3.0915    -0.6728    -1.5969 C.2     
   8 C8            -4.0350    -0.0292    -2.5325 C.ar    
   9 C9            -4.3090    -0.6233    -3.7685 C.ar    
  10 C10           -5.1887    -0.0270    -4.6457 C.ar    
  11 C11           -5.8092     1.1675    -4.3097 C.ar    
  12 C12           -5.5417     1.7740    -3.0712 C.ar    
  13 C13           -4.6574     1.1679    -2.1814 C.ar    
  14 C14           -6.1803     3.0072    -2.7218 C.1     
  15 O15           -3.0936    -1.8817    -1.4672 O.2     
  16 C16           -6.7039     4.0182    -2.4354 C.1     
  17 C17           -7.3425     5.2513    -2.0861 C.ar    
  18 N18           -7.0840     5.8192    -0.9119 N.ar    
  19 C19           -7.6513     6.9530    -0.5543 C.ar    
  20 C20           -8.5423     7.5974    -1.3926 C.ar    
  21 C21           -8.8416     7.0400    -2.6289 C.ar    
  22 C22           -8.2288     5.8526    -2.9842 C.ar    
  23 C23            1.4493     1.8109    -0.2732 C.ar    
  24 N24            1.7123     3.1120    -0.3493 N.ar    
  25 C25            2.9695     3.5314    -0.4201 C.ar    
  26 N26            3.9645     2.6520    -0.4154 N.ar    
  27 C27            3.7027     1.3524    -0.3394 C.ar    
  28 N28            2.4464     0.9315    -0.2626 N.ar    
  29 O29           -6.6738     1.7500    -5.1771 O.3     
  30 C30           -6.8984     1.0784    -6.4183 C.3     
  31 O31            3.2374     4.8554    -0.4976 O.3     
  32 C32            4.6129     5.2358    -0.5710 C.3     
  33 O33            4.7174     0.4573    -0.3351 O.3     
  34 C34            6.0447     0.9808    -0.4149 C.3     
  35 H35            0.4245    -0.5200    -1.0649 H       
  36 H36            0.7184    -0.4407     0.6893 H       
  37 H37           -1.4369    -1.6124     0.0825 H       
  38 H38           -1.6762    -0.1865     1.1265 H       
  39 H39           -2.6959     1.8009    -2.0034 H       
  40 H40           -2.5070     2.0659    -0.2499 H       
  41 H41           -0.5377     2.9647    -1.3918 H       
  42 H42           -0.2934     1.4265    -2.2544 H       
  43 H43           -3.8289    -1.5528    -4.0368 H       
  44 H44           -5.3958    -0.4912    -5.5986 H       
  45 H45           -4.4472     1.6288    -1.2276 H       
  46 H46           -7.4175     7.3852     0.4074 H       
  47 H47           -9.0018     8.5262    -1.0884 H       
  48 H48           -9.5346     7.5257    -3.3000 H       
  49 H49           -8.4385     5.3918    -3.9382 H       
  50 H50           -5.9562     0.9896    -6.9591 H       
  51 H51           -7.3019     0.0843    -6.2257 H       
  52 H52           -7.6085     1.6491    -7.0168 H       
  53 H53            4.6870     6.3217    -0.6288 H       
  54 H54            5.1355     4.8827     0.3180 H       
  55 H55            5.0654     4.7930    -1.4583 H       
  56 H56            6.1572     1.5466    -1.3397 H       
  57 H57            6.2286     1.6360     0.4366 H       
  58 H58            6.7607     0.1591    -0.4023 H       
@<TRIPOS>BOND
   1    1    2 1
   2    1   23 1
   3    1    6 1
   4    2    3 1
   5    2   35 1
   6    2   36 1
   7    3    4 1
   8    3   37 1
   9    3   38 1
  10    4    5 1
  11    4    7 am
  12    5    6 1
  13    5   39 1
  14    5   40 1
  15    6   41 1
  16    6   42 1
  17    7    8 1
  18    7   15 2
  19    8    9 ar
  20    8   13 ar
  21    9   10 ar
  22    9   43 1
  23   10   11 ar
  24   10   44 1
  25   11   12 ar
  26   11   29 1
  27   12   13 ar
  28   12   14 1
  29   13   45 1
  30   14   16 3
  31   16   17 1
  32   17   18 ar
  33   17   22 ar
  34   18   19 ar
  35   19   20 ar
  36   19   46 1
  37   20   21 ar
  38   20   47 1
  39   21   22 ar
  40   21   48 1
  41   22   49 1
  42   23   24 ar
  43   23   28 ar
  44   24   25 ar
  45   25   26 ar
  46   25   31 1
  47   26   27 ar
  48   27   28 ar
  49   27   33 1
  50   29   30 1
  51   30   50 1
  52   30   51 1
  53   30   52 1
  54   31   32 1
  55   32   53 1
  56   32   54 1
  57   32   55 1
  58   33   34 1
  59   34   56 1
  60   34   57 1
  61   34   58 1

#	End of record

