#	Name: ASD01580007
#	Creating user name:	WinNT
#	Creation time:	15. 06. 2019 19:22

#	Modifying user name:	WinNT
#	Modification time:	15. 06. 2019 19:22

#	Program:	/corina/corina34_cracker 3.40 0067  02.08.2006

@<TRIPOS>MOLECULE
ASD01580007
  21   21    0    0    0
SMALL
NO_CHARGES


@<TRIPOS>ATOM
   1 C1            -0.0187     1.5258     0.0104 C.3     
   2 N2             0.6059    -0.4925     1.2489 N.3     
   3 C3             0.0021    -0.0041     0.0020 C.3     
   4 C4            -1.4290    -0.5329    -0.1129 C.3     
   5 C5            -1.4008    -2.0339    -0.2447 C.2     
   6 C6            -2.0524    -2.9099     0.5437 C.2     
   7 N7            -1.7540    -4.1613     0.0762 N.pl3   
   8 C8            -0.9299    -4.0063    -0.9823 C.2     
   9 N9            -0.7271    -2.7311    -1.1715 N.2     
  10 O10            1.3220     2.0204     0.0003 O.3     
  11 H11           -0.5459     1.8868    -0.8726 H       
  12 H12           -0.5289     1.8773     0.9072 H       
  13 H13            0.0803    -0.1804     2.0517 H       
  14 H14            0.6901    -1.4979     1.2403 H       
  15 H15            0.5883    -0.3548    -0.8473 H       
  16 H16           -1.9910    -0.2570     0.7794 H       
  17 H17           -1.9069    -0.0999    -0.9916 H       
  18 H18           -2.6879    -2.6710     1.3835 H       
  19 H19           -2.0746    -5.0024     0.4378 H       
  20 H20           -0.5113    -4.8052    -1.5764 H       
  21 H21            1.3852     2.9853     0.0049 H       
@<TRIPOS>BOND
   1    1    3 1
   2    1   10 1
   3    1   11 1
   4    1   12 1
   5    2    3 1
   6    2   13 1
   7    2   14 1
   8    3    4 1
   9    3   15 1
  10    4    5 1
  11    4   16 1
  12    4   17 1
  13    5    6 2
  14    5    9 1
  15    6    7 1
  16    6   18 1
  17    7    8 1
  18    7   19 1
  19    8    9 2
  20    8   20 1
  21   10   21 1

#	End of record

