#	Name: ASD01910164
#	Creating user name:	WinNT
#	Creation time:	15. 06. 2019 19:55

#	Modifying user name:	WinNT
#	Modification time:	15. 06. 2019 19:55

#	Program:	/corina/corina34_cracker 3.40 0067  02.08.2006

@<TRIPOS>MOLECULE
ASD01910164
  51   54    0    0    0
SMALL
NO_CHARGES


@<TRIPOS>ATOM
   1 C1            -2.0370     1.4871     0.7225 C.3     
   2 C2            -2.0289    -0.0196     0.7486 C.2     
   3 N3            -1.1434    -0.7019    -0.0043 N.am    
   4 C4            -1.0717    -2.0961     0.0911 C.ar    
   5 C5            -2.2258    -2.8384     0.2945 C.ar    
   6 C6            -2.1505    -4.2210     0.3885 C.ar    
   7 C7            -0.9203    -4.8571     0.2788 C.ar    
   8 C8             0.2273    -4.1147     0.0763 C.ar    
   9 C9             0.1548    -2.7388    -0.0235 C.ar    
  10 N10           -3.3116    -4.9730     0.5940 N.am    
  11 C11           -3.4420    -6.1831     0.0151 C.2     
  12 C12           -4.7060    -6.9317     0.1476 C.ar    
  13 C13           -5.7704    -6.3903     0.8722 C.ar    
  14 C14           -6.9490    -7.0947     0.9919 C.ar    
  15 C15           -7.0835    -8.3381     0.3967 C.ar    
  16 C16           -6.0391    -8.8851    -0.3225 C.ar    
  17 C17           -4.8481    -8.1882    -0.4577 C.ar    
  18 O18           -3.8213    -8.7242    -1.1639 O.3     
  19 C19           -4.0353   -10.0130    -1.7430 C.3     
  20 O20           -2.8193    -0.6183     1.4471 O.2     
  21 O21           -2.5176    -6.6577    -0.6165 O.2     
  22 C22           -3.0662     2.2033     1.5992 C.3     
  23 C23           -3.9943     1.3481     2.4227 C.ar    
  24 C24           -5.3611     1.4313     2.2337 C.ar    
  25 C25           -6.2124     0.6468     2.9892 C.ar    
  26 C26           -5.6968    -0.2213     3.9334 C.ar    
  27 C27           -4.3300    -0.3052     4.1218 C.ar    
  28 C28           -3.4785     0.4762     3.3633 C.ar    
  29 C29           -1.5868     2.2180     1.9889 C.3     
  30 H30           -1.7892     1.9420    -0.2366 H       
  31 H31           -0.5558    -0.2265    -0.6122 H       
  32 H32           -3.1809    -2.3414     0.3798 H       
  33 H33           -0.8609    -5.9330     0.3523 H       
  34 H34            1.1825    -4.6116    -0.0087 H       
  35 H35            1.0537    -2.1614    -0.1818 H       
  36 H36           -4.0230    -4.6236     1.1531 H       
  37 H37           -5.6699    -5.4213     1.3383 H       
  38 H38           -7.7713    -6.6754     1.5526 H       
  39 H39           -8.0106    -8.8833     0.4959 H       
  40 H40           -6.1517    -9.8552    -0.7837 H       
  41 H41           -3.1383   -10.3242    -2.2784 H       
  42 H42           -4.2564   -10.7331    -0.9552 H       
  43 H43           -4.8744    -9.9647    -2.4370 H       
  44 H44           -3.4955     3.1294     1.2169 H       
  45 H45           -5.7639     2.1095     1.4960 H       
  46 H46           -7.2803     0.7124     2.8419 H       
  47 H47           -6.3620    -0.8337     4.5241 H       
  48 H48           -3.9272    -0.9831     4.8597 H       
  49 H49           -2.4105     0.4106     3.5105 H       
  50 H50           -1.2847     1.6091     2.8410 H       
  51 H51           -1.0425     3.1540     1.8632 H       
@<TRIPOS>BOND
   1    1    2 1
   2    1   22 1
   3    1   29 1
   4    1   30 1
   5    2    3 am
   6    2   20 2
   7    3    4 1
   8    3   31 1
   9    4    5 ar
  10    4    9 ar
  11    5    6 ar
  12    5   32 1
  13    6    7 ar
  14    6   10 1
  15    7    8 ar
  16    7   33 1
  17    8    9 ar
  18    8   34 1
  19    9   35 1
  20   10   11 am
  21   10   36 1
  22   11   12 1
  23   11   21 2
  24   12   13 ar
  25   12   17 ar
  26   13   14 ar
  27   13   37 1
  28   14   15 ar
  29   14   38 1
  30   15   16 ar
  31   15   39 1
  32   16   17 ar
  33   16   40 1
  34   17   18 1
  35   18   19 1
  36   19   41 1
  37   19   42 1
  38   19   43 1
  39   22   23 1
  40   22   29 1
  41   22   44 1
  42   23   24 ar
  43   23   28 ar
  44   24   25 ar
  45   24   45 1
  46   25   26 ar
  47   25   46 1
  48   26   27 ar
  49   26   47 1
  50   27   28 ar
  51   27   48 1
  52   28   49 1
  53   29   50 1
  54   29   51 1

#	End of record

