#	Name: ASD01816281
#	Creating user name:	WinNT
#	Creation time:	15. 06. 2019 19:34

#	Modifying user name:	WinNT
#	Modification time:	15. 06. 2019 19:34

#	Program:	/corina/corina34_cracker 3.40 0067  02.08.2006

@<TRIPOS>MOLECULE
ASD01816281
  53   58    0    0    0
SMALL
NO_CHARGES


@<TRIPOS>ATOM
   1 C1            -0.0168     1.3912     0.0097 C.ar    
   2 C2             0.0021    -0.0041     0.0020 C.ar    
   3 C3             1.1808    -0.6914    -0.0124 C.ar    
   4 C4             2.3919     0.0026    -0.0203 C.ar    
   5 C5             2.3735     1.4245    -0.0129 C.ar    
   6 C6             1.1449     2.1026     0.0024 C.ar    
   7 N7             3.5812    -0.6676    -0.0343 N.pl3   
   8 C8             4.7492    -0.0144    -0.0410 C.2     
   9 C9             4.7960     1.3661    -0.0340 C.2     
  10 C10            3.6017     2.1220    -0.0209 C.2     
  11 C11            5.8698     2.3855    -0.0376 C.2     
  12 N12            5.2360     3.5783    -0.0259 N.am    
  13 N13            3.9616     3.4274    -0.0167 N.2     
  14 O14            7.0666     2.1905    -0.0481 O.2     
  15 C15            3.5788    -2.1325    -0.0416 C.3     
  16 C16            3.5653    -2.6277    -1.4648 C.ar    
  17 C17            4.7574    -2.8564    -2.1272 C.ar    
  18 C18            4.7482    -3.3098    -3.4318 C.ar    
  19 C19            3.5404    -3.5365    -4.0780 C.ar    
  20 C20            2.3451    -3.3064    -3.4101 C.ar    
  21 C21            2.3608    -2.8580    -2.1038 C.ar    
  22 N22            3.5278    -3.9963    -5.4022 N.pl3   
  23 C23            2.4274    -4.2559    -6.1441 C.2     
  24 C24            2.8416    -4.6778    -7.3613 C.2     
  25 C25            4.2408    -4.6762    -7.3646 C.2     
  26 N26            4.6528    -4.2623    -6.1933 N.2     
  27 C27            5.8790     4.8063    -0.0244 C.ar    
  28 C28            7.2724     4.8668    -0.0353 C.ar    
  29 C29            7.9069     6.0914    -0.0341 C.ar    
  30 C30            7.1633     7.2594    -0.0217 C.ar    
  31 C31            5.7793     7.2051    -0.0108 C.ar    
  32 C32            5.1346     5.9863    -0.0177 C.ar    
  33 N33            4.9910     8.4577     0.0024 N.pl3   
  34 O34            5.6055     9.6225     0.0038 O.2     
  35 O35            3.6750     8.4075     0.0128 O.2     
  36 H36           -0.9626     1.9126     0.0170 H       
  37 H37           -0.9307    -0.5484     0.0080 H       
  38 H38            1.1767    -1.7714    -0.0175 H       
  39 H39            1.1206     3.1823     0.0077 H       
  40 H40            5.6713    -0.5764    -0.0518 H       
  41 H41            4.4728    -2.4999     0.4624 H       
  42 H42            2.6929    -2.4970     0.4784 H       
  43 H43            5.6966    -2.6799    -1.6241 H       
  44 H44            5.6795    -3.4876    -3.9489 H       
  45 H45            1.4041    -3.4815    -3.9103 H       
  46 H46            1.4314    -2.6788    -1.5838 H       
  47 H47            1.4021    -4.1469    -5.8226 H       
  48 H48            2.2047    -4.9649    -8.1848 H       
  49 H49            4.8722    -4.9628    -8.1926 H       
  50 H50            7.8534     3.9565    -0.0442 H       
  51 H51            8.9858     6.1395    -0.0426 H       
  52 H52            7.6642     8.2162    -0.0201 H       
  53 H53            4.0554     5.9450    -0.0092 H       
@<TRIPOS>BOND
   1    1    2 ar
   2    1    6 ar
   3    1   36 1
   4    2    3 ar
   5    2   37 1
   6    3    4 ar
   7    3   38 1
   8    4    5 ar
   9    4    7 1
  10    5    6 ar
  11    5   10 1
  12    6   39 1
  13    7    8 1
  14    7   15 1
  15    8    9 2
  16    8   40 1
  17    9   10 1
  18    9   11 1
  19   10   13 2
  20   11   12 am
  21   11   14 2
  22   12   13 1
  23   12   27 1
  24   15   16 1
  25   15   41 1
  26   15   42 1
  27   16   17 ar
  28   16   21 ar
  29   17   18 ar
  30   17   43 1
  31   18   19 ar
  32   18   44 1
  33   19   20 ar
  34   19   22 1
  35   20   21 ar
  36   20   45 1
  37   21   46 1
  38   22   23 1
  39   22   26 1
  40   23   24 2
  41   23   47 1
  42   24   25 1
  43   24   48 1
  44   25   26 2
  45   25   49 1
  46   27   28 ar
  47   27   32 ar
  48   28   29 ar
  49   28   50 1
  50   29   30 ar
  51   29   51 1
  52   30   31 ar
  53   30   52 1
  54   31   32 ar
  55   31   33 1
  56   32   53 1
  57   33   34 2
  58   33   35 2

#	End of record

