#	Name: ASD00170139
#	Creating user name:	WinNT
#	Creation time:	15. 06. 2019 18:31

#	Modifying user name:	WinNT
#	Modification time:	15. 06. 2019 18:31

#	Program:	/corina/corina34_cracker 3.40 0067  02.08.2006

@<TRIPOS>MOLECULE
ASD00170139
  37   41    0    0    0
SMALL
NO_CHARGES


@<TRIPOS>ATOM
   1 C1            -0.0182     1.4912     0.0102 C.2     
   2 C2             0.0021    -0.0041     0.0020 C.ar    
   3 C3             1.3194    -0.4523    -0.0130 C.ar    
   4 C4             2.1961     0.7740    -0.0148 C.3     
   5 C5             1.2474     1.9527     0.0006 C.2     
   6 S6             1.2222     3.7155     0.0103 S.3     
   7 C7            -0.5366     3.6917     0.0270 C.2     
   8 N8            -0.9504     2.4699     0.0195 N.2     
   9 C9            -1.0458    -0.9281     0.0071 C.ar    
  10 C10           -0.7715    -2.2771    -0.0028 C.ar    
  11 C11            0.5514    -2.7235    -0.0178 C.ar    
  12 C12            1.5983    -1.7987    -0.0229 C.ar    
  13 N13           -1.3514     4.8120     0.0412 N.pl3   
  14 C14            0.8440    -4.1745    -0.0280 C.ar    
  15 C15            0.2248    -5.0357     0.9095 C.ar    
  16 C16            0.5211    -6.4203     0.8794 C.ar    
  17 C17            1.4233    -6.9147    -0.0781 C.ar    
  18 C18            2.0069    -6.0651    -0.9690 C.ar    
  19 C19            1.7218    -4.7047    -0.9580 C.ar    
  20 C20           -0.6747    -4.5436     1.8660 C.ar    
  21 C21           -1.2519    -5.4010     2.7532 C.ar    
  22 C22           -0.9616    -6.7634     2.7251 C.ar    
  23 C23           -0.0937    -7.2758     1.8103 C.ar    
  24 H24            2.8275     0.7869     0.8736 H       
  25 H25            2.8104     0.7965    -0.9148 H       
  26 H26           -2.0696    -0.5846     0.0190 H       
  27 H27           -1.5813    -2.9916     0.0014 H       
  28 H28            2.6229    -2.1399    -0.0348 H       
  29 H29           -0.9574     5.6983     0.0425 H       
  30 H30           -2.3160     4.7100     0.0498 H       
  31 H31            1.6545    -7.9692    -0.1074 H       
  32 H32            2.6991    -6.4563    -1.6999 H       
  33 H33            2.1980    -4.0531    -1.6756 H       
  34 H34           -0.9085    -3.4897     1.8993 H       
  35 H35           -1.9441    -5.0193     3.4891 H       
  36 H36           -1.4324    -7.4226     3.4394 H       
  37 H37            0.1218    -8.3340     1.7998 H       
@<TRIPOS>BOND
   1    1    2 1
   2    1    5 2
   3    1    8 1
   4    2    3 ar
   5    2    9 ar
   6    3    4 1
   7    3   12 ar
   8    4    5 1
   9    4   24 1
  10    4   25 1
  11    5    6 1
  12    6    7 1
  13    7    8 2
  14    7   13 1
  15    9   10 ar
  16    9   26 1
  17   10   11 ar
  18   10   27 1
  19   11   12 ar
  20   11   14 1
  21   12   28 1
  22   13   29 1
  23   13   30 1
  24   14   15 ar
  25   14   19 ar
  26   15   16 ar
  27   15   20 ar
  28   16   17 ar
  29   16   23 ar
  30   17   18 ar
  31   17   31 1
  32   18   19 ar
  33   18   32 1
  34   19   33 1
  35   20   21 ar
  36   20   34 1
  37   21   22 ar
  38   21   35 1
  39   22   23 ar
  40   22   36 1
  41   23   37 1

#	End of record

