#	Name: ASD03240412
#	Creating user name:	WinNT
#	Creation time:	15. 06. 2019 20:34

#	Modifying user name:	WinNT
#	Modification time:	15. 06. 2019 20:34

#	Program:	/corina/corina34_cracker 3.40 0067  02.08.2006

@<TRIPOS>MOLECULE
ASD03240412
  41   43    0    0    0
SMALL
NO_CHARGES


@<TRIPOS>ATOM
   1 C1            -0.0687     1.4764     0.0646 C.ar    
   2 C2            -0.1573     0.0989    -0.0116 C.ar    
   3 C3             0.6073     4.0500    -1.4794 C.ar    
   4 C4             1.3917     2.9278    -1.2833 C.ar    
   5 C5             1.2788     2.1481     0.0014 C.3     
   6 C6             0.7067     4.7678    -2.6542 C.ar    
   7 C7             1.5990     4.3601    -3.6432 C.ar    
   8 C8             2.3862     3.2289    -3.4407 C.ar    
   9 C9             2.2789     2.5184    -2.2622 C.ar    
  10 C10            1.7099     5.1281    -4.9090 C.2     
  11 C11           -1.3925    -0.5195     0.0457 C.ar    
  12 C12           -2.5438     0.2444     0.1799 C.ar    
  13 C13           -2.4512     1.6262     0.2561 C.ar    
  14 C14           -1.2148     2.2393     0.1930 C.ar    
  15 C15            2.5374     4.8425    -5.9555 C.2     
  16 N16            2.3325     5.7778    -6.9047 N.pl3   
  17 N17            1.3554     6.6663    -6.4397 N.2     
  18 C18            0.9754     6.2804    -5.2505 C.2     
  19 O19           -3.7596    -0.3607     0.2361 O.3     
  20 C20            1.4309     3.0991     1.1902 C.3     
  21 N21            1.4409     2.3248     2.4385 N.3     
  22 Cl22          -1.5037    -2.2493    -0.0505 Cl      
  23 C23           -4.9009     0.4881     0.3747 C.3     
  24 H24            0.7390    -0.4946    -0.1163 H       
  25 H25           -0.0874     4.3627    -0.7138 H       
  26 H26            2.0635     1.3924     0.0379 H       
  27 H27            0.0936     5.6438    -2.8065 H       
  28 H28            3.0796     2.9086    -4.2043 H       
  29 H29            2.8891     1.6414    -2.1040 H       
  30 H30           -3.3454     2.2228     0.3605 H       
  31 H31           -1.1426     3.3153     0.2526 H       
  32 H32            3.2311     4.0167    -6.0130 H       
  33 H33            2.7842     5.8269    -7.7617 H       
  34 H34            0.2328     6.7648    -4.6339 H       
  35 H35            2.3666     3.6503     1.0971 H       
  36 H36            0.5962     3.7999     1.2040 H       
  37 H37            1.5404     2.9308     3.2391 H       
  38 H38            0.6119     1.7549     2.5172 H       
  39 H39           -4.8166     1.0624     1.2972 H       
  40 H40           -4.9519     1.1697    -0.4743 H       
  41 H41           -5.8045    -0.1206     0.4068 H       
@<TRIPOS>BOND
   1    1    2 ar
   2    1    5 1
   3    1   14 ar
   4    2   11 ar
   5    2   24 1
   6    3    4 ar
   7    3    6 ar
   8    3   25 1
   9    4    5 1
  10    4    9 ar
  11    5   20 1
  12    5   26 1
  13    6    7 ar
  14    6   27 1
  15    7    8 ar
  16    7   10 1
  17    8    9 ar
  18    8   28 1
  19    9   29 1
  20   10   15 2
  21   10   18 1
  22   11   12 ar
  23   11   22 1
  24   12   13 ar
  25   12   19 1
  26   13   14 ar
  27   13   30 1
  28   14   31 1
  29   15   16 1
  30   15   32 1
  31   16   17 1
  32   16   33 1
  33   17   18 2
  34   18   34 1
  35   19   23 1
  36   20   21 1
  37   20   35 1
  38   20   36 1
  39   21   37 1
  40   21   38 1
  41   23   39 1
  42   23   40 1
  43   23   41 1

#	End of record

