#	Name: ASD03910085
#	Creating user name:	WinNT
#	Creation time:	15. 06. 2019 20:47

#	Modifying user name:	WinNT
#	Modification time:	15. 06. 2019 20:47

#	Program:	/corina/corina34_cracker 3.40 0067  02.08.2006

@<TRIPOS>MOLECULE
ASD03910085
  21   21    0    0    0
SMALL
NO_CHARGES


@<TRIPOS>ATOM
   1 C1            -0.0170     1.3998     0.0097 C.ar    
   2 C2             0.0021    -0.0041     0.0020 C.ar    
   3 C3             1.2334    -0.6785    -0.0134 C.ar    
   4 C4             2.4219     0.0513    -0.0208 C.ar    
   5 C5             2.3907     1.4331    -0.0126 C.ar    
   6 C6             1.1845     2.1080     0.0021 C.ar    
   7 C7            -1.3059     2.1247     0.0198 C.2     
   8 O8            -2.3508     1.5056     0.0214 O.2     
   9 O9            -1.3211     3.4716     0.0272 O.3     
  10 C10           -1.2659    -0.7670     0.0105 C.2     
  11 O11           -1.7966    -1.0744    -1.0375 O.2     
  12 O12           -1.8314    -1.1205     1.1808 O.3     
  13 C13            1.2700    -2.1569    -0.0212 C.2     
  14 O14            0.2336    -2.7900    -0.0143 O.2     
  15 O15            2.4528    -2.8012    -0.0359 O.3     
  16 H16            3.3703    -0.4653    -0.0326 H       
  17 H17            3.3161     1.9899    -0.0181 H       
  18 H18            1.1724     3.1880     0.0080 H       
  19 H19           -2.1876     3.9008     0.0336 H       
  20 H20           -2.6593    -1.6181     1.1357 H       
  21 H21            2.4261    -3.7679    -0.0405 H       
@<TRIPOS>BOND
   1    1    2 ar
   2    1    6 ar
   3    1    7 1
   4    2    3 ar
   5    2   10 1
   6    3    4 ar
   7    3   13 1
   8    4    5 ar
   9    4   16 1
  10    5    6 ar
  11    5   17 1
  12    6   18 1
  13    7    8 2
  14    7    9 1
  15    9   19 1
  16   10   11 2
  17   10   12 1
  18   12   20 1
  19   13   14 2
  20   13   15 1
  21   15   21 1

#	End of record

