#	Name: ASD04930008
#	Creating user name:	WinNT
#	Creation time:	15. 06. 2019 20:56

#	Modifying user name:	WinNT
#	Modification time:	15. 06. 2019 20:56

#	Program:	/corina/corina34_cracker 3.40 0067  02.08.2006

@<TRIPOS>MOLECULE
ASD04930008
  48   49    0    0    0
SMALL
NO_CHARGES


@<TRIPOS>ATOM
   1 C1            -1.2162    -0.9364    -2.2200 C.ar    
   2 C2            -0.5455    -1.0625    -1.0104 C.ar    
   3 C3            -1.1015    -0.5808     0.1547 C.ar    
   4 C4            -2.3470     0.0400     0.1281 C.ar    
   5 C5            -3.0271     0.1689    -1.0960 C.ar    
   6 C6            -2.4469    -0.3208    -2.2716 C.ar    
   7 N7            -2.9061     0.5229     1.2942 N.am    
   8 C8            -4.1061     1.1274     1.3053 C.2     
   9 C9            -4.8724     1.2980     0.0717 C.2     
  10 C10           -4.3397     0.8224    -1.1288 C.2     
  11 O11           -5.0156     0.9599    -2.2885 O.3     
  12 O12           -4.5619     1.5387     2.3575 O.2     
  13 C13           -6.1831     1.9591     0.0946 C.2     
  14 N14           -7.3098     1.2247     0.0074 N.am    
  15 O15           -6.2521     3.1699     0.1923 O.2     
  16 N16           -8.5604     1.8424     0.1391 N.am    
  17 C17           -9.6872     1.1080     0.0519 C.2     
  18 C18          -11.0324     1.7724     0.1936 C.3     
  19 O19           -9.6185    -0.0874    -0.1405 O.2     
  20 C20          -12.1368     0.7225     0.0555 C.3     
  21 C21          -13.5025     1.3970     0.1993 C.3     
  22 C22          -14.6069     0.3472     0.0612 C.3     
  23 C23          -15.9726     1.0217     0.2051 C.3     
  24 C24          -17.0770    -0.0282     0.0670 C.3     
  25 C25          -18.4428     0.6463     0.2108 C.3     
  26 Cl26          -0.4963    -1.5515    -3.6750 Cl      
  27 H27            0.4212    -1.5432    -0.9826 H       
  28 H28           -0.5707    -0.6854     1.0893 H       
  29 H29           -2.9658    -0.2239    -3.2138 H       
  30 H30           -2.4201     0.4229     2.1277 H       
  31 H31           -5.9022     1.3320    -2.1853 H       
  32 H32           -7.2549     0.2686    -0.1465 H       
  33 H33           -8.6153     2.7985     0.2931 H       
  34 H34          -11.1022     2.2465     1.1726 H       
  35 H35          -11.1488     2.5267    -0.5845 H       
  36 H36          -12.0670     0.2484    -0.9235 H       
  37 H37          -12.0203    -0.0318     0.8337 H       
  38 H38          -13.5723     1.8712     1.1783 H       
  39 H39          -13.6190     2.1514    -0.5788 H       
  40 H40          -14.5371    -0.1270    -0.9178 H       
  41 H41          -14.4905    -0.4072     0.8394 H       
  42 H42          -16.0424     1.4958     1.1841 H       
  43 H43          -16.0891     1.7760    -0.5731 H       
  44 H44          -17.0072    -0.5023    -0.9120 H       
  45 H45          -16.9606    -0.7825     0.8451 H       
  46 H46          -18.5125     1.1204     1.1898 H       
  47 H47          -18.5592     1.4007    -0.5674 H       
  48 H48          -19.2295    -0.1016     0.1124 H       
@<TRIPOS>BOND
   1    1    2 ar
   2    1   26 1
   3    1    6 ar
   4    2    3 ar
   5    2   27 1
   6    3    4 ar
   7    3   28 1
   8    4    5 ar
   9    4    7 1
  10    5    6 ar
  11    5   10 1
  12    6   29 1
  13    7    8 am
  14    7   30 1
  15    8    9 1
  16    8   12 2
  17    9   10 2
  18    9   13 1
  19   10   11 1
  20   11   31 1
  21   13   14 am
  22   13   15 2
  23   14   16 1
  24   14   32 1
  25   16   17 am
  26   16   33 1
  27   17   18 1
  28   17   19 2
  29   18   20 1
  30   18   34 1
  31   18   35 1
  32   20   21 1
  33   20   36 1
  34   20   37 1
  35   21   22 1
  36   21   38 1
  37   21   39 1
  38   22   23 1
  39   22   40 1
  40   22   41 1
  41   23   24 1
  42   23   42 1
  43   23   43 1
  44   24   25 1
  45   24   44 1
  46   24   45 1
  47   25   46 1
  48   25   47 1
  49   25   48 1

#	End of record

