#	Name: ASD01200338
#	Creating user name:	WinNT
#	Creation time:	15. 06. 2019 19:09

#	Modifying user name:	WinNT
#	Modification time:	15. 06. 2019 19:09

#	Program:	/corina/corina34_cracker 3.40 0067  02.08.2006

@<TRIPOS>MOLECULE
ASD01200338
 102  109    0    0    0
SMALL
NO_CHARGES


@<TRIPOS>ATOM
   1 Cl1           12.7224     9.5423    -4.3302 Cl      
   2 Cl2            3.2835    -1.3189    -0.6909 Cl      
   3 Cl3            1.2328   -11.7706     6.8454 Cl      
   4 Cl4            1.5133    -3.2422    -5.6218 Cl      
   5 C5            -0.6221     0.7948    -0.0589 C.3     
   6 N6             2.9429     1.6289    -0.7867 N.pl3   
   7 O7             6.2053     4.8965    -0.5756 O.3     
   8 C8             1.5502     0.6644    -3.3773 C.ar    
   9 N9             1.7158    -2.9416    -2.6685 N.pl3   
  10 O10            0.8205    -6.9537    -0.5559 O.3     
  11 C11           -0.4596    -0.6946    -0.1034 C.2     
  12 N12            4.1596     1.1545    -1.2930 N.2     
  13 O13            8.2856     5.4812     1.3191 O.3     
  14 C14            1.4519     0.6568    -4.7564 C.ar    
  15 N15            2.8889    -3.5091    -2.1551 N.2     
  16 O16            0.9654    -9.6974    -1.3991 O.3     
  17 C17            0.5892    -1.2758    -0.5999 C.2     
  18 N18            4.0637     5.3918     0.1985 N.ar    
  19 O19           11.1064     5.2342     1.8111 O.3     
  20 C20            1.4410    -0.5423    -5.4454 C.ar    
  21 N21           -0.9415    -5.7682    -1.5152 N.ar    
  22 O22            2.5535   -12.0876    -1.2424 O.3     
  23 C23            1.7445    -0.5166    -1.1794 C.3     
  24 N24            2.3374     3.8529     0.1530 N.ar    
  25 O25            8.0907     5.9757    -2.0162 O.2     
  26 C26            1.5281    -1.7372    -4.7567 C.ar    
  27 N27           -0.6372    -3.7493    -2.6021 N.ar    
  28 O28            1.3713    -8.2614     1.6308 O.2     
  29 C29            1.7563     0.9032    -0.6981 C.2     
  30 N30            8.1876     7.9426    -0.9946 N.am    
  31 C31            1.6274    -1.7323    -3.3703 C.ar    
  32 N32           -0.4198    -9.5695     1.6808 N.am    
  33 C33            0.6995     1.4888    -0.1978 C.2     
  34 N34            9.7195     7.5498    -2.7332 N.ar    
  35 C35            1.6379    -0.5265    -2.6826 C.ar    
  36 N36            1.0948    -9.7399     3.4698 N.ar    
  37 C37            3.1215     2.9242    -0.3893 C.ar    
  38 C38            0.6736    -3.7733    -2.3721 C.ar    
  39 C39            4.4677     3.2435    -0.6576 C.ar    
  40 C40            1.2199    -4.8646    -1.6672 C.ar    
  41 C41            5.0595     2.0943    -1.2275 C.2     
  42 C42            2.6094    -4.6343    -1.5609 C.2     
  43 C43            4.9223     4.5353    -0.3390 C.ar    
  44 C44            0.3504    -5.8827    -1.2373 C.ar    
  45 C45            2.8090     5.0481     0.4326 C.ar    
  46 C46           -1.4097    -4.7258    -2.1796 C.ar    
  47 C47            6.5800     6.2291    -0.2210 C.3     
  48 C48           -0.1343    -7.9395    -0.1578 C.3     
  49 C49            7.0848     6.2498     1.2232 C.3     
  50 C50           -0.2698    -8.9925    -1.2594 C.3     
  51 C51            8.8430     5.4355     2.6341 C.3     
  52 C52            0.9463   -10.7094    -2.4078 C.3     
  53 C53           10.1184     4.5904     2.6183 C.3     
  54 C54            2.3130   -11.3946    -2.4688 C.3     
  55 C55            7.6734     6.7055    -1.1421 C.2     
  56 C56            0.3274    -8.6008     1.1152 C.2     
  57 C57            9.2697     8.3457    -1.7763 C.ar    
  58 C58           -0.0474   -10.1080     2.9121 C.ar    
  59 C59            9.8654     9.5801    -1.5433 C.ar    
  60 C60           -0.8799   -11.0261     3.5421 C.ar    
  61 C61           10.9383     9.9683    -2.3258 C.ar    
  62 C62           -0.4990   -11.5529     4.7633 C.ar    
  63 C63           11.3806     9.1040    -3.3196 C.ar    
  64 C64            0.7077   -11.1412     5.3152 C.ar    
  65 C65           10.7407     7.8920    -3.4953 C.ar    
  66 C66            1.4853   -10.2249     4.6330 C.ar    
  67 H67           -1.2769     1.1072    -0.8725 H       
  68 H68           -1.0755     1.0766     0.8914 H       
  69 H69            1.5628     1.6027    -2.8428 H       
  70 H70           -1.2507    -1.3119     0.2961 H       
  71 H71            1.3830     1.5893    -5.2968 H       
  72 H72            0.6317    -2.3549    -0.5951 H       
  73 H73           11.9434     4.7531     1.7557 H       
  74 H74            1.3641    -0.5449    -6.5227 H       
  75 H75            3.4040   -12.5465    -1.2103 H       
  76 H76            7.8049     8.5525    -0.3446 H       
  77 H77           -1.2166    -9.8920     1.2314 H       
  78 H78            0.7824     2.5148     0.1292 H       
  79 H79            6.0872     2.0071    -1.5479 H       
  80 H80            3.3215    -5.2852    -1.0754 H       
  81 H81            2.1448     5.7779     0.8717 H       
  82 H82           -2.4690    -4.6742    -2.3837 H       
  83 H83            5.7153     6.8864    -0.3131 H       
  84 H84           -1.1001    -7.4629     0.0100 H       
  85 H85            6.3265     5.8223     1.8793 H       
  86 H86            7.2866     7.2781     1.5229 H       
  87 H87           -0.5173    -8.5031    -2.2014 H       
  88 H88           -1.0609    -9.6945    -0.9958 H       
  89 H89            9.0814     6.4469     2.9631 H       
  90 H90            8.1212     4.9911     3.3194 H       
  91 H91            0.1805   -11.4470    -2.1680 H       
  92 H92            0.7240   -10.2556    -3.3736 H       
  93 H93            9.8970     3.6062     2.2057 H       
  94 H94           10.4948     4.4817     3.6355 H       
  95 H95            3.0891   -10.6444    -2.6204 H       
  96 H96            2.3270   -12.1042    -3.2960 H       
  97 H97            9.4954    10.2275    -0.7620 H       
  98 H98           -1.8118   -11.3238     3.0844 H       
  99 H99           11.4207    10.9216    -2.1680 H       
 100 H100          -1.1255   -12.2677     5.2761 H       
 101 H101          11.0802     7.2166    -4.2666 H       
 102 H102           2.4240    -9.9012     5.0577 H       
@<TRIPOS>BOND
   1    1   63 1
   2    2   23 1
   3    3   64 1
   4    4   26 1
   5    5   11 1
   6    5   33 1
   7    5   67 1
   8    5   68 1
   9    6   12 1
  10    6   29 1
  11    6   37 1
  12    7   43 1
  13    7   47 1
  14    8   14 ar
  15    8   35 ar
  16    8   69 1
  17    9   15 1
  18    9   31 1
  19    9   38 1
  20   10   44 1
  21   10   48 1
  22   11   17 2
  23   11   70 1
  24   12   41 2
  25   13   49 1
  26   13   51 1
  27   14   20 ar
  28   14   71 1
  29   15   42 2
  30   16   50 1
  31   16   52 1
  32   17   23 1
  33   17   72 1
  34   18   43 ar
  35   18   45 ar
  36   19   53 1
  37   19   73 1
  38   20   26 ar
  39   20   74 1
  40   21   44 ar
  41   21   46 ar
  42   22   54 1
  43   22   75 1
  44   23   29 1
  45   23   35 1
  46   24   37 ar
  47   24   45 ar
  48   25   55 2
  49   26   31 ar
  50   27   38 ar
  51   27   46 ar
  52   28   56 2
  53   29   33 2
  54   30   55 am
  55   30   57 1
  56   30   76 1
  57   31   35 ar
  58   32   56 am
  59   32   58 1
  60   32   77 1
  61   33   78 1
  62   34   57 ar
  63   34   65 ar
  64   36   58 ar
  65   36   66 ar
  66   37   39 ar
  67   38   40 ar
  68   39   41 1
  69   39   43 ar
  70   40   42 1
  71   40   44 ar
  72   41   79 1
  73   42   80 1
  74   45   81 1
  75   46   82 1
  76   47   49 1
  77   47   55 1
  78   47   83 1
  79   48   50 1
  80   48   56 1
  81   48   84 1
  82   49   85 1
  83   49   86 1
  84   50   87 1
  85   50   88 1
  86   51   53 1
  87   51   89 1
  88   51   90 1
  89   52   54 1
  90   52   91 1
  91   52   92 1
  92   53   93 1
  93   53   94 1
  94   54   95 1
  95   54   96 1
  96   57   59 ar
  97   58   60 ar
  98   59   61 ar
  99   59   97 1
 100   60   62 ar
 101   60   98 1
 102   61   63 ar
 103   61   99 1
 104   62   64 ar
 105   62  100 1
 106   63   65 ar
 107   64   66 ar
 108   65  101 1
 109   66  102 1

#	End of record

