#	Name: ASD03540282
#	Creating user name:	WinNT
#	Creation time:	15. 06. 2019 20:42

#	Modifying user name:	WinNT
#	Modification time:	15. 06. 2019 20:42

#	Program:	/corina/corina34_cracker 3.40 0067  02.08.2006

@<TRIPOS>MOLECULE
ASD03540282
  62   65    0    0    0
SMALL
NO_CHARGES


@<TRIPOS>ATOM
   1 C1             2.7184    -8.7130    -2.5533 C.2     
   2 C2             2.0372    -7.5777    -1.9054 C.ar    
   3 C3             2.7771    -6.4743    -1.4564 C.ar    
   4 C4             2.1256    -5.4120    -0.8482 C.ar    
   5 C5             0.7546    -5.4421    -0.6858 C.ar    
   6 C6             0.0200    -6.5301    -1.1278 C.ar    
   7 C7             0.6499    -7.5920    -1.7400 C.ar    
   8 O8             3.9245    -8.6947    -2.6997 O.2     
   9 O9             2.0042    -9.7737    -2.9782 O.3     
  10 C10            0.0534    -4.2844    -0.0231 C.3     
  11 C11           -2.3070    -4.3314     0.5371 C.2     
  12 N12           -3.3692    -4.7539     1.2377 N.am    
  13 C13           -3.2380    -5.6863     2.2514 C.2     
  14 C14           -1.9773    -6.1920     2.5452 C.2     
  15 C15           -0.8369    -5.6938     1.7439 C.2     
  16 N16           -1.0665    -4.7854     0.7776 N.am    
  17 C17           -1.9914    -7.1216     3.5876 C.2     
  18 C18           -3.2089    -7.3516     4.1070 C.2     
  19 S19           -4.4128    -6.3796     3.2797 S.3     
  20 O20            0.2907    -6.0996     1.9550 O.2     
  21 O21           -2.4732    -3.5144    -0.3478 O.2     
  22 C22            1.0378    -3.5436     0.8842 C.3     
  23 C23           -3.4904    -8.2793     5.2050 C.2     
  24 N24           -4.7533    -8.4337     5.6497 N.am    
  25 O25           -2.5839    -8.9109     5.7158 O.2     
  26 C26           -5.0349    -9.3616     6.7479 C.3     
  27 C27           -6.5111    -9.3482     7.0508 C.ar    
  28 C28           -7.3574   -10.2251     6.3998 C.ar    
  29 C29           -8.7160   -10.2122     6.6791 C.ar    
  30 C30           -9.2217    -9.3182     7.6121 C.ar    
  31 C31           -8.3715    -8.4436     8.2602 C.ar    
  32 C32           -7.0165    -8.4623     7.9840 C.ar    
  33 O33           -9.5505   -11.0734     6.0398 O.3     
  34 C34          -10.9373   -11.0039     6.3774 C.3     
  35 O35            4.1238    -6.4465    -1.6158 O.3     
  36 C36            4.8105    -5.2897    -1.1337 C.3     
  37 C37            2.7410   -10.8553    -3.6072 C.3     
  38 H38            2.6913    -4.5600    -0.5008 H       
  39 H39           -1.0518    -6.5443    -0.9959 H       
  40 H40            0.0725    -8.4360    -2.0875 H       
  41 H41           -0.3219    -3.6021    -0.7858 H       
  42 H42           -4.2474    -4.3983     1.0299 H       
  43 H43           -1.0993    -7.6140     3.9455 H       
  44 H44            1.8710    -3.1708     0.2885 H       
  45 H45            0.5306    -2.7063     1.3635 H       
  46 H46            1.4130    -4.2259     1.6469 H       
  47 H47           -5.4758    -7.9305     5.2427 H       
  48 H48           -4.7324   -10.3683     6.4595 H       
  49 H49           -4.4793    -9.0551     7.6341 H       
  50 H50           -6.9615   -10.9197     5.6738 H       
  51 H51          -10.2792    -9.3060     7.8310 H       
  52 H52           -8.7646    -7.7473     8.9861 H       
  53 H53           -6.3527    -7.7809     8.4953 H       
  54 H54          -11.0632   -11.2091     7.4405 H       
  55 H55          -11.3166   -10.0072     6.1523 H       
  56 H56          -11.4900   -11.7426     5.7969 H       
  57 H57            4.4363    -4.4045    -1.6479 H       
  58 H58            4.6402    -5.1865    -0.0620 H       
  59 H59            5.8786    -5.3958    -1.3233 H       
  60 H60            3.2579   -10.4778    -4.4895 H       
  61 H61            3.4699   -11.2562    -2.9028 H       
  62 H62            2.0484   -11.6438    -3.9015 H       
@<TRIPOS>BOND
   1    1    2 1
   2    1    8 2
   3    1    9 1
   4    2    3 ar
   5    2    7 ar
   6    3    4 ar
   7    3   35 1
   8    4    5 ar
   9    4   38 1
  10    5    6 ar
  11    5   10 1
  12    6    7 ar
  13    6   39 1
  14    7   40 1
  15    9   37 1
  16   10   16 1
  17   10   22 1
  18   10   41 1
  19   11   12 am
  20   11   16 am
  21   11   21 2
  22   12   13 1
  23   12   42 1
  24   13   14 2
  25   13   19 1
  26   14   15 1
  27   14   17 1
  28   15   16 am
  29   15   20 2
  30   17   18 2
  31   17   43 1
  32   18   19 1
  33   18   23 1
  34   22   44 1
  35   22   45 1
  36   22   46 1
  37   23   24 am
  38   23   25 2
  39   24   26 1
  40   24   47 1
  41   26   27 1
  42   26   48 1
  43   26   49 1
  44   27   28 ar
  45   27   32 ar
  46   28   29 ar
  47   28   50 1
  48   29   30 ar
  49   29   33 1
  50   30   31 ar
  51   30   51 1
  52   31   32 ar
  53   31   52 1
  54   32   53 1
  55   33   34 1
  56   34   54 1
  57   34   55 1
  58   34   56 1
  59   35   36 1
  60   36   57 1
  61   36   58 1
  62   36   59 1
  63   37   60 1
  64   37   61 1
  65   37   62 1

#	End of record

