#	Name: ASD02610006
#	Creating user name:	WinNT
#	Creation time:	15. 06. 2019 20:25

#	Modifying user name:	WinNT
#	Modification time:	15. 06. 2019 20:25

#	Program:	/corina/corina34_cracker 3.40 0067  02.08.2006

@<TRIPOS>MOLECULE
ASD02610006
 100  103    0    0    0
SMALL
NO_CHARGES


@<TRIPOS>ATOM
   1 C1            -0.3021     1.8091     0.7111 C.3     
   2 C2            -0.3617     0.2985     0.3897 C.3     
   3 C3             1.0082    -0.2241     0.7472 C.2     
   4 C4             1.8784     0.7558     0.8572 C.2     
   5 C5             1.2188     2.0792     0.5916 C.3     
   6 C6             3.3247     0.5423     1.2301 C.3     
   7 C7             4.2306     1.4764     0.4276 C.3     
   8 C8             3.9094     1.8337    -0.9412 C.3     
   9 C9             2.9259     3.0088    -1.0130 C.3     
  10 C10            1.5037     2.5873    -0.8149 C.3     
  11 O11           -0.6292     0.0920    -1.0224 O.3     
  12 C12           -1.3036    -1.0252    -1.3605 C.2     
  13 O13           -1.6582    -1.8052    -0.4986 O.2     
  14 C14           -1.6100    -1.2999    -2.7712 C.2     
  15 C15           -1.1702    -0.3327    -3.8399 C.3     
  16 C16           -2.2757    -2.4028    -3.1050 C.2     
  17 C17           -2.7155    -3.3700    -2.0363 C.3     
  18 C18            1.3366    -1.6807     0.9516 C.3     
  19 O19           -0.7762     2.0763     2.0572 O.3     
  20 C20           -2.0823     2.3508     2.2000 C.2     
  21 C21           -2.6467     2.6384     3.5674 C.3     
  22 O22           -2.8055     2.3674     1.2322 O.2     
  23 H23            1.5314     2.8119     1.3356 H       
  24 O24            0.6391     3.7221    -1.0848 O.3     
  25 C25            1.1767     1.4761    -1.8145 C.3     
  26 C26            0.7523     4.7821    -0.2692 C.2     
  27 O27            3.3200     0.6837    -1.6033 O.3     
  28 C28            3.6875     0.4578    -2.8744 C.2     
  29 C29            3.1172    -0.7172    -3.6262 C.3     
  30 O30            4.4756     1.1965    -3.4158 O.2     
  31 O31            3.5543     0.9370     2.5949 O.3     
  32 C32            4.7759     1.6751     2.7167 C.3     
  33 C33            5.3858     1.8567     1.2904 C.3     
  34 H34            3.6096    -0.4972     1.0676 H       
  35 O35            3.4627     2.5645     0.9455 O.3     
  36 C36           -4.1466     2.9175     3.4517 C.3     
  37 C37           -4.7196     3.2095     4.8400 C.3     
  38 C38           -6.2195     3.4886     4.7242 C.3     
  39 C39           -6.7925     3.7806     6.1125 C.3     
  40 C40            3.6954    -0.7458    -5.0424 C.3     
  41 C41            3.1164    -1.9387    -5.8057 C.3     
  42 C42           -0.1767     5.9580    -0.4283 C.3     
  43 H43            4.6126     2.6352     3.2062 H       
  44 O44            1.5990     4.7935     0.5927 O.2     
  45 O45            5.7613     0.8791     3.4045 O.3     
  46 C46            6.3245     0.0420     2.3764 C.3     
  47 O47            6.4252     0.8642     1.2030 O.3     
  48 C48            5.8828     3.2795     1.0263 C.3     
  49 O49            7.6202    -0.4148     2.7693 O.3     
  50 C50            8.5500     0.6364     3.0388 C.3     
  51 C51            9.8958     0.0344     3.4481 C.3     
  52 H52            5.6693    -0.8076     2.1838 H       
  53 H53           -0.8623     2.3888    -0.0226 H       
  54 H54           -1.1244    -0.1890     0.9968 H       
  55 H55            4.8275     2.1077    -1.4607 H       
  56 H56            3.1882     3.7343    -0.2430 H       
  57 H57            3.0187     3.4858    -1.9887 H       
  58 H58           -0.1758    -0.6073    -4.1917 H       
  59 H59           -1.8726    -0.3675    -4.6727 H       
  60 H60           -1.1443     0.6763    -3.4284 H       
  61 H61           -2.5009    -2.6047    -4.1418 H       
  62 H62           -1.8418    -3.7417    -1.5008 H       
  63 H63           -3.3806    -2.8621    -1.3379 H       
  64 H64           -3.2420    -4.2058    -2.4970 H       
  65 H65            0.4388    -2.2801     0.8009 H       
  66 H66            2.1008    -1.9847     0.2363 H       
  67 H67            1.7077    -1.8306     1.9655 H       
  68 H68           -2.4865     1.7766     4.2152 H       
  69 H69           -2.1467     3.5094     3.9911 H       
  70 H70            0.1144     1.5065    -2.0569 H       
  71 H71            1.7610     1.6213    -2.7231 H       
  72 H72            1.4217     0.5089    -1.3756 H       
  73 H73            3.3774    -1.6406    -3.1088 H       
  74 H74            2.0325    -0.6232    -3.6785 H       
  75 H75            3.3776     2.5625     1.9087 H       
  76 H76           -4.3069     3.7793     2.8039 H       
  77 H77           -4.6466     2.0465     3.0280 H       
  78 H78           -4.5594     2.3477     5.4878 H       
  79 H79           -4.2196     4.0805     5.2636 H       
  80 H80           -6.3798     4.3504     4.0764 H       
  81 H81           -6.7195     2.6176     4.3006 H       
  82 H82           -6.2925     4.6515     6.5361 H       
  83 H83           -7.8611     3.9794     6.0300 H       
  84 H84           -6.6323     2.9187     6.7603 H       
  85 H85            3.4352     0.1776    -5.5599 H       
  86 H86            4.7801    -0.8398    -4.9902 H       
  87 H87            3.5284    -1.9591    -6.8147 H       
  88 H88            3.3766    -2.8621    -5.2883 H       
  89 H89            2.0317    -1.8448    -5.8580 H       
  90 H90           -0.8665     5.7674    -1.2505 H       
  91 H91           -0.7407     6.1028     0.4931 H       
  92 H92            0.4053     6.8544    -0.6428 H       
  93 H93            5.0769     3.9875     1.2193 H       
  94 H94            6.7241     3.4984     1.6839 H       
  95 H95            6.2015     3.3660    -0.0125 H       
  96 H96            8.6811     1.2440     2.1434 H       
  97 H97            8.1695     1.2594     3.8482 H       
  98 H98            9.7648    -0.5732     4.3435 H       
  99 H99           10.2763    -0.5886     2.6387 H       
 100 H100          10.6050     0.8362     3.6537 H       
@<TRIPOS>BOND
   1    1    2 1
   2    1    5 1
   3    1   19 1
   4    1   53 1
   5    2    3 1
   6    2   11 1
   7    2   54 1
   8    3    4 2
   9    3   18 1
  10    4    5 1
  11    4    6 1
  12    5   10 1
  13    5   23 1
  14    6    7 1
  15    6   31 1
  16    6   34 1
  17    7   33 1
  18    7   35 1
  19    7    8 1
  20    8    9 1
  21    8   27 1
  22    8   55 1
  23    9   10 1
  24    9   56 1
  25    9   57 1
  26   10   24 1
  27   10   25 1
  28   11   12 1
  29   12   13 2
  30   12   14 1
  31   14   15 1
  32   14   16 2
  33   15   58 1
  34   15   59 1
  35   15   60 1
  36   16   17 1
  37   16   61 1
  38   17   62 1
  39   17   63 1
  40   17   64 1
  41   18   65 1
  42   18   66 1
  43   18   67 1
  44   19   20 1
  45   20   21 1
  46   20   22 2
  47   21   36 1
  48   21   68 1
  49   21   69 1
  50   24   26 1
  51   25   70 1
  52   25   71 1
  53   25   72 1
  54   26   42 1
  55   26   44 2
  56   27   28 1
  57   28   29 1
  58   28   30 2
  59   29   40 1
  60   29   73 1
  61   29   74 1
  62   31   32 1
  63   32   33 1
  64   32   43 1
  65   32   45 1
  66   33   48 1
  67   33   47 1
  68   35   75 1
  69   36   37 1
  70   36   76 1
  71   36   77 1
  72   37   38 1
  73   37   78 1
  74   37   79 1
  75   38   39 1
  76   38   80 1
  77   38   81 1
  78   39   82 1
  79   39   83 1
  80   39   84 1
  81   40   41 1
  82   40   85 1
  83   40   86 1
  84   41   87 1
  85   41   88 1
  86   41   89 1
  87   42   90 1
  88   42   91 1
  89   42   92 1
  90   45   46 1
  91   46   47 1
  92   46   49 1
  93   46   52 1
  94   48   93 1
  95   48   94 1
  96   48   95 1
  97   49   50 1
  98   50   51 1
  99   50   96 1
 100   50   97 1
 101   51   98 1
 102   51   99 1
 103   51  100 1

#	End of record

