#	Name: ASD01720183
#	Creating user name:	WinNT
#	Creation time:	15. 06. 2019 19:23

#	Modifying user name:	WinNT
#	Modification time:	15. 06. 2019 19:23

#	Program:	/corina/corina34_cracker 3.40 0067  02.08.2006

@<TRIPOS>MOLECULE
ASD01720183
  57   60    0    0    0
SMALL
NO_CHARGES


@<TRIPOS>ATOM
   1 C1             2.0814     1.7903     1.4832 C.ar    
   2 N2             1.6385     0.5430     1.4367 N.ar    
   3 C3             2.4729    -0.4690     1.2491 C.ar    
   4 N4             3.7750    -0.2777     1.1017 N.ar    
   5 C5             4.2875     0.9476     1.1377 C.ar    
   6 C6             3.4337     2.0335     1.3333 C.ar    
   7 N7             5.6550     1.1447     0.9831 N.am    
   8 C8             6.3689     2.4092     1.2176 C.3     
   9 C9             7.8372     2.0658     0.9009 C.3     
  10 O10            7.7972     0.6586     0.5251 O.3     
  11 C11            6.5386     0.2122     0.6016 C.2     
  12 N12            1.9712    -1.7582     1.2066 N.pl3   
  13 C13            0.5338    -1.9905     1.3680 C.3     
  14 C14            0.3059    -3.3859     1.8896 C.ar    
  15 C15           -0.1636    -1.8314     0.0155 C.3     
  16 C16           -0.6660    -3.6151     2.8460 C.ar    
  17 C17           -0.8769    -4.8932     3.3257 C.ar    
  18 C18           -0.1126    -5.9476     2.8467 C.ar    
  19 C19            0.8618    -5.7150     1.8867 C.ar    
  20 C20            1.0653    -4.4357     1.4068 C.ar    
  21 C21            6.2218     2.8469     2.6762 C.3     
  22 C22            6.7981     1.7664     3.5935 C.3     
  23 C23            6.9795     4.1581     2.8941 C.3     
  24 O24            6.2246    -0.9331     0.3453 O.2     
  25 O25           -0.3178    -7.2057     3.3174 O.3     
  26 C26           -1.3037    -7.3911     4.2339 C.ar    
  27 C27           -2.6286    -7.4536     3.8264 C.ar    
  28 C28           -3.6290    -7.6427     4.7600 C.ar    
  29 C29           -3.3110    -7.7691     6.0998 C.ar    
  30 C30           -1.9916    -7.7072     6.5085 C.ar    
  31 C31           -0.9869    -7.5240     5.5782 C.ar    
  32 H32            1.3928     2.6089     1.6321 H       
  33 H33            3.8207     3.0412     1.3672 H       
  34 H34            6.0036     3.1855     0.5452 H       
  35 H35            8.2013     2.6725     0.0717 H       
  36 H36            8.4617     2.2081     1.7828 H       
  37 H37            2.5713    -2.5079     1.0699 H       
  38 H38            0.1260    -1.2675     2.0744 H       
  39 H39            0.0012    -0.8221    -0.3617 H       
  40 H40            0.2442    -2.5544    -0.6909 H       
  41 H41           -1.2331    -2.0043     0.1357 H       
  42 H42           -1.2606    -2.7940     3.2185 H       
  43 H43           -1.6357    -5.0715     4.0733 H       
  44 H44            1.4580    -6.5339     1.5122 H       
  45 H45            1.8234    -4.2542     0.6592 H       
  46 H46            5.1667     2.9943     2.9068 H       
  47 H47            7.8741     1.6919     3.4358 H       
  48 H48            6.6005     2.0287     4.6328 H       
  49 H49            6.3304     0.8087     3.3652 H       
  50 H50            6.5202     4.9465     2.2979 H       
  51 H51            6.9393     4.4300     3.9489 H       
  52 H52            8.0188     4.0319     2.5909 H       
  53 H53           -2.8776    -7.3542     2.7802 H       
  54 H54           -4.6604    -7.6914     4.4434 H       
  55 H55           -4.0947    -7.9161     6.8282 H       
  56 H56           -1.7459    -7.8059     7.5555 H       
  57 H57            0.0439    -7.4798     5.8975 H       
@<TRIPOS>BOND
   1    1    2 ar
   2    1    6 ar
   3    1   32 1
   4    2    3 ar
   5    3    4 ar
   6    3   12 1
   7    4    5 ar
   8    5    6 ar
   9    5    7 1
  10    6   33 1
  11    7    8 1
  12    7   11 am
  13    8    9 1
  14    8   21 1
  15    8   34 1
  16    9   10 1
  17    9   35 1
  18    9   36 1
  19   10   11 1
  20   11   24 2
  21   12   13 1
  22   12   37 1
  23   13   14 1
  24   13   15 1
  25   13   38 1
  26   14   16 ar
  27   14   20 ar
  28   15   39 1
  29   15   40 1
  30   15   41 1
  31   16   17 ar
  32   16   42 1
  33   17   18 ar
  34   17   43 1
  35   18   19 ar
  36   18   25 1
  37   19   20 ar
  38   19   44 1
  39   20   45 1
  40   21   22 1
  41   21   23 1
  42   21   46 1
  43   22   47 1
  44   22   48 1
  45   22   49 1
  46   23   50 1
  47   23   51 1
  48   23   52 1
  49   25   26 1
  50   26   27 ar
  51   26   31 ar
  52   27   28 ar
  53   27   53 1
  54   28   29 ar
  55   28   54 1
  56   29   30 ar
  57   29   55 1
  58   30   31 ar
  59   30   56 1
  60   31   57 1

#	End of record

