#	Name: ASD01913085
#	Creating user name:	WinNT
#	Creation time:	15. 06. 2019 20:00

#	Modifying user name:	WinNT
#	Modification time:	15. 06. 2019 20:00

#	Program:	/corina/corina34_cracker 3.40 0067  02.08.2006

@<TRIPOS>MOLECULE
ASD01913085
  30   31    0    0    0
SMALL
NO_CHARGES


@<TRIPOS>ATOM
   1 C1            -0.0187     1.5270     0.0104 C.3     
   2 C2             0.0021    -0.0041     0.0020 C.3     
   3 C3             0.7943    -0.5026     1.2138 C.3     
   4 C4             2.2082     0.0811     1.1680 C.3     
   5 N5             2.1343     1.5477     1.1786 N.3     
   6 C6             1.4188     2.0518    -0.0005 C.3     
   7 C7             3.3969     2.1073     1.2695 C.ar    
   8 N8             3.5196     3.4264     1.2918 N.ar    
   9 N9             4.4538     1.3112     1.3376 N.ar    
  10 C10            5.6742     1.8137     1.4256 C.ar    
  11 C11            5.8390     3.1897     1.4462 C.ar    
  12 C12            4.7116     3.9932     1.3784 C.ar    
  13 C13           -1.4094    -0.5273     0.0732 C.2     
  14 O14           -2.2803     0.1498     0.5645 O.2     
  15 C15           -1.7341    -1.8955    -0.4688 C.3     
  16 Br16          -3.6493    -2.2619    -0.2185 Br      
  17 H17           -0.5449     1.8886    -0.8730 H       
  18 H18           -0.5279     1.8791     0.9076 H       
  19 H19            0.4766    -0.3569    -0.9136 H       
  20 H20            0.2979    -0.1824     2.1299 H       
  21 H21            0.8490    -1.5910     1.1901 H       
  22 H22            2.7705    -0.2605     2.0371 H       
  23 H23            2.7088    -0.2507     0.2584 H       
  24 H24            1.9231     1.7108    -0.9046 H       
  25 H25            1.4077     3.1416     0.0199 H       
  26 H26            6.5319     1.1597     1.4812 H       
  27 H27            6.8242     3.6264     1.5178 H       
  28 H28            4.8055     5.0690     1.3922 H       
  29 H29           -1.4929    -1.9321    -1.5311 H       
  30 H30           -1.1482    -2.6453     0.0629 H       
@<TRIPOS>BOND
   1    1    2 1
   2    1    6 1
   3    1   17 1
   4    1   18 1
   5    2    3 1
   6    2   13 1
   7    2   19 1
   8    3    4 1
   9    3   20 1
  10    3   21 1
  11    4    5 1
  12    4   22 1
  13    4   23 1
  14    5    6 1
  15    5    7 1
  16    6   24 1
  17    6   25 1
  18    7    8 ar
  19    7    9 ar
  20    8   12 ar
  21    9   10 ar
  22   10   11 ar
  23   10   26 1
  24   11   12 ar
  25   11   27 1
  26   12   28 1
  27   13   14 2
  28   13   15 1
  29   15   16 1
  30   15   29 1
  31   15   30 1

#	End of record

