#	Name: ASD03730114
#	Creating user name:	WinNT
#	Creation time:	15. 06. 2019 20:44

#	Modifying user name:	WinNT
#	Modification time:	15. 06. 2019 20:44

#	Program:	/corina/corina34_cracker 3.40 0067  02.08.2006

@<TRIPOS>MOLECULE
ASD03730114
  58   63    0    0    0
SMALL
NO_CHARGES


@<TRIPOS>ATOM
   1 C1            -0.0184     1.5028     0.0103 C.2     
   2 C2             0.0021    -0.0041     0.0020 C.3     
   3 O3             1.0236     2.1234     0.0037 O.2     
   4 N4            -1.1946     2.1607     0.0195 N.am    
   5 C5            -1.2145     3.6256     0.0275 C.3     
   6 C6            -2.6637     4.1159     0.0371 C.3     
   7 C7            -3.3360     3.6948     1.3453 C.3     
   8 C8            -2.6865     5.6183    -0.0785 C.ar    
   9 C9            -3.3290     6.2199    -1.1444 C.ar    
  10 C10           -3.3498     7.5980    -1.2505 C.ar    
  11 C11           -2.7286     8.3745    -0.2903 C.ar    
  12 C12           -2.0868     7.7730     0.7761 C.ar    
  13 C13           -2.0697     6.3950     0.8844 C.ar    
  14 O14            6.2459     2.8794     2.0976 O.3     
  15 C15            7.6663     2.8233     2.3260 C.3     
  16 O16            7.8789     1.4934     2.8350 O.3     
  17 C17            6.8679     0.7368     2.3152 C.ar    
  18 C18            5.8636     1.5896     1.8629 C.ar    
  19 C19            6.7212    -0.6329     2.1884 C.ar    
  20 C20            5.5735    -1.1688     1.6121 C.ar    
  21 C21            4.5736    -0.3071     1.1716 C.ar    
  22 C22            4.7194     1.0592     1.2910 C.ar    
  23 O23            5.2412    -2.4710     1.3795 O.3     
  24 C24            3.4673    -1.1739     0.6323 C.3     
  25 C25            3.8195    -2.5682     1.1684 C.3     
  26 N26            1.3897    -0.4735    -0.0138 N.am    
  27 C27            2.1130    -0.7212     1.0965 C.2     
  28 C28            3.4026    -1.1504    -0.8661 C.ar    
  29 C29            4.3041    -1.4527    -1.8622 C.ar    
  30 C30            3.9367    -1.3289    -3.1903 C.ar    
  31 C31            2.6624    -0.9003    -3.5148 C.ar    
  32 C32            1.7562    -0.5954    -2.5207 C.ar    
  33 C33            2.1172    -0.7175    -1.1811 C.ar    
  34 O34            1.7424    -0.6020     2.2452 O.2     
  35 H35           -0.4983    -0.3791     0.8948 H       
  36 H36           -0.5153    -0.3696    -0.8850 H       
  37 H37           -2.0280     1.6644     0.0207 H       
  38 H38           -0.7014     3.9910     0.9171 H       
  39 H39           -0.7098     4.0007    -0.8628 H       
  40 H40           -3.2008     3.6786    -0.8046 H       
  41 H41           -2.7989     4.1321     2.1870 H       
  42 H42           -4.3685     4.0441     1.3521 H       
  43 H43           -3.3195     2.6081     1.4289 H       
  44 H44           -3.8143     5.6132    -1.8946 H       
  45 H45           -3.8512     8.0679    -2.0836 H       
  46 H46           -2.7442     9.4512    -0.3735 H       
  47 H47           -1.6012     8.3797     1.5261 H       
  48 H48           -1.5715     5.9251     1.7195 H       
  49 H49            8.2103     2.9676     1.3925 H       
  50 H50            7.9653     3.5680     3.0637 H       
  51 H51            7.5027    -1.2907     2.5390 H       
  52 H52            3.9391     1.7171     0.9379 H       
  53 H53            3.5894    -3.3363     0.4301 H       
  54 H54            3.3012    -2.7643     2.1070 H       
  55 H55            5.2987    -1.7870    -1.6065 H       
  56 H56            4.6432    -1.5667    -3.9717 H       
  57 H57            2.3756    -0.8035    -4.5515 H       
  58 H58            0.7631    -0.2608    -2.7820 H       
@<TRIPOS>BOND
   1    1    2 1
   2    1    3 2
   3    1    4 am
   4    2   26 1
   5    2   35 1
   6    2   36 1
   7    4    5 1
   8    4   37 1
   9    5    6 1
  10    5   38 1
  11    5   39 1
  12    6    7 1
  13    6    8 1
  14    6   40 1
  15    7   41 1
  16    7   42 1
  17    7   43 1
  18    8    9 ar
  19    8   13 ar
  20    9   10 ar
  21    9   44 1
  22   10   11 ar
  23   10   45 1
  24   11   12 ar
  25   11   46 1
  26   12   13 ar
  27   12   47 1
  28   13   48 1
  29   14   15 1
  30   14   18 1
  31   15   16 1
  32   15   49 1
  33   15   50 1
  34   16   17 1
  35   17   18 ar
  36   17   19 ar
  37   18   22 ar
  38   19   20 ar
  39   19   51 1
  40   20   21 ar
  41   20   23 1
  42   21   22 ar
  43   21   24 1
  44   22   52 1
  45   23   25 1
  46   24   25 1
  47   24   27 1
  48   24   28 1
  49   25   53 1
  50   25   54 1
  51   26   27 am
  52   26   33 1
  53   27   34 2
  54   28   29 ar
  55   28   33 ar
  56   29   30 ar
  57   29   55 1
  58   30   31 ar
  59   30   56 1
  60   31   32 ar
  61   31   57 1
  62   32   33 ar
  63   32   58 1

#	End of record

