#	Name: ASD03430755
#	Creating user name:	WinNT
#	Creation time:	15. 06. 2019 20:41

#	Modifying user name:	WinNT
#	Modification time:	15. 06. 2019 20:41

#	Program:	/corina/corina34_cracker 3.40 0067  02.08.2006

@<TRIPOS>MOLECULE
ASD03430755
  33   36    0    0    0
SMALL
NO_CHARGES


@<TRIPOS>ATOM
   1 C1            -0.0167     1.3791     0.0096 C.ar    
   2 C2             0.0021    -0.0041     0.0020 C.ar    
   3 C3             1.2037    -0.6807    -0.0134 C.ar    
   4 C4             2.4099     0.0141    -0.0127 C.ar    
   5 C5             2.3866     1.4053    -0.0092 C.ar    
   6 C6             1.1809     2.0839     0.0020 C.ar    
   7 O7             3.4724    -0.8404    -0.0038 O.3     
   8 C8             1.5526    -2.1449    -0.0447 C.3     
   9 C9             3.0372    -2.1445    -0.4346 C.3     
  10 C10            0.4284    -3.8528     1.0229 C.ar    
  11 C11            1.3213    -2.8145     1.2774 C.ar    
  12 C12            0.7153    -2.9085    -1.0298 C.2     
  13 N13            0.0935    -3.8806    -0.3330 N.am    
  14 O14            0.6172    -2.6925    -2.2193 O.2     
  15 C15            1.7948    -2.5933     2.5511 C.ar    
  16 C16            1.3835    -3.4051     3.5939 C.ar    
  17 C17            0.4967    -4.4381     3.3531 C.ar    
  18 C18            0.0198    -4.6641     2.0783 C.ar    
  19 O19            1.1678     3.4433     0.0050 O.3     
  20 F20           -1.1940     2.0418     0.0188 F       
  21 C21            2.4347     4.1044    -0.0033 C.3     
  22 H22           -0.9266    -0.5554     0.0085 H       
  23 H23            3.3142     1.9583    -0.0151 H       
  24 H24            3.1543    -2.2550    -1.5127 H       
  25 H25            3.5772    -2.9280     0.0969 H       
  26 H26           -0.5153    -4.5246    -0.7273 H       
  27 H27            2.4878    -1.7860     2.7367 H       
  28 H28            1.7542    -3.2319     4.5934 H       
  29 H29            0.1759    -5.0715     4.1669 H       
  30 H30           -0.6731    -5.4728     1.8984 H       
  31 H31            2.2815     5.1835     0.0002 H       
  32 H32            3.0013     3.8150     0.8818 H       
  33 H33            2.9877     3.8188    -0.8981 H       
@<TRIPOS>BOND
   1    1    2 ar
   2    1    6 ar
   3    1   20 1
   4    2    3 ar
   5    2   22 1
   6    3    4 ar
   7    3    8 1
   8    4    5 ar
   9    4    7 1
  10    5    6 ar
  11    5   23 1
  12    6   19 1
  13    7    9 1
  14    8    9 1
  15    8   11 1
  16    8   12 1
  17    9   24 1
  18    9   25 1
  19   10   11 ar
  20   10   13 1
  21   10   18 ar
  22   11   15 ar
  23   12   13 am
  24   12   14 2
  25   13   26 1
  26   15   16 ar
  27   15   27 1
  28   16   17 ar
  29   16   28 1
  30   17   18 ar
  31   17   29 1
  32   18   30 1
  33   19   21 1
  34   21   31 1
  35   21   32 1
  36   21   33 1

#	End of record

