#	Name: ASD01148885
#	Creating user name:	WinNT
#	Creation time:	15. 06. 2019 19:03

#	Modifying user name:	WinNT
#	Modification time:	15. 06. 2019 19:03

#	Program:	/corina/corina34_cracker 3.40 0067  02.08.2006

@<TRIPOS>MOLECULE
ASD01148885
  38   40    0    0    0
SMALL
NO_CHARGES


@<TRIPOS>ATOM
   1 C1            -0.4571     0.2907    -0.4679 C.ar    
   2 C2            -0.1352    -1.0540    -0.4505 C.ar    
   3 C3             1.1841    -1.4484    -0.3421 C.ar    
   4 C4             2.1874    -0.4931    -0.2506 C.ar    
   5 C5             1.8611     0.8563    -0.2683 C.ar    
   6 C6             0.5400     1.2445    -0.3769 C.ar    
   7 S7            -2.1406     0.7899    -0.6136 S.o2    
   8 O8            -2.1239     2.1066    -1.1477 O.2     
   9 O9            -2.8275    -0.2904    -1.2304 O.2     
  10 N10           -2.7492     0.9156     0.9214 N.am    
  11 N11            3.5268    -0.8901    -0.1401 N.pl3   
  12 C12            4.4995    -0.7042    -1.0918 C.2     
  13 C13            5.6617    -1.2264    -0.6090 C.2     
  14 C14            5.3907    -1.7435     0.6687 C.2     
  15 C15            4.0853    -1.5213     0.9341 C.2     
  16 C16            3.3657    -1.9078     2.2006 C.3     
  17 C17            4.3177    -0.0534    -2.4067 C.ar    
  18 C18            5.4198     0.4580    -3.0937 C.ar    
  19 C19            5.2439     1.0637    -4.3205 C.ar    
  20 C20            3.9771     1.1653    -4.8703 C.ar    
  21 C21            2.8799     0.6602    -4.1932 C.ar    
  22 C22            3.0440     0.0468    -2.9687 C.ar    
  23 Cl23           3.7636     1.9294    -6.4144 Cl      
  24 H24           -0.9161    -1.7966    -0.5214 H       
  25 H25            1.4348    -2.4988    -0.3282 H       
  26 H26            2.6394     1.6017    -0.1970 H       
  27 H27            0.2855     2.2940    -0.3911 H       
  28 H28           -2.1828     0.7230     1.6850 H       
  29 H29           -3.6721     1.1818     1.0569 H       
  30 H30            6.6156    -1.2403    -1.1154 H       
  31 H31            6.1002    -2.2278     1.3234 H       
  32 H32            2.9557    -2.9120     2.0936 H       
  33 H33            4.0652    -1.8881     3.0363 H       
  34 H34            2.5559    -1.2027     2.3880 H       
  35 H35            6.4082     0.3800    -2.6655 H       
  36 H36            6.0959     1.4598    -4.8530 H       
  37 H37            1.8942     0.7426    -4.6269 H       
  38 H38            2.1881    -0.3508    -2.4436 H       
@<TRIPOS>BOND
   1    1    2 ar
   2    1    6 ar
   3    1    7 1
   4    2    3 ar
   5    2   24 1
   6    3    4 ar
   7    3   25 1
   8    4    5 ar
   9    4   11 1
  10    5    6 ar
  11    5   26 1
  12    6   27 1
  13    7    8 2
  14    7    9 2
  15    7   10 am
  16   10   28 1
  17   10   29 1
  18   11   12 1
  19   11   15 1
  20   12   13 2
  21   12   17 1
  22   13   14 1
  23   13   30 1
  24   14   15 2
  25   14   31 1
  26   15   16 1
  27   16   32 1
  28   16   33 1
  29   16   34 1
  30   17   18 ar
  31   17   22 ar
  32   18   19 ar
  33   18   35 1
  34   19   20 ar
  35   19   36 1
  36   20   21 ar
  37   20   23 1
  38   21   22 ar
  39   21   37 1
  40   22   38 1

#	End of record

