#	Name: ASD02508312
#	Creating user name:	WinNT
#	Creation time:	15. 06. 2019 20:24

#	Modifying user name:	WinNT
#	Modification time:	15. 06. 2019 20:24

#	Program:	/corina/corina34_cracker 3.40 0067  02.08.2006

@<TRIPOS>MOLECULE
ASD02508312
  52   55    0    0    0
SMALL
NO_CHARGES


@<TRIPOS>ATOM
   1 C1            -0.0166     1.3764     0.0096 C.ar    
   2 C2             0.0021    -0.0041     0.0020 C.ar    
   3 C3            -1.1881    -0.7112     0.0100 C.ar    
   4 C4            -2.3942    -0.0377     0.0251 C.ar    
   5 C5            -2.4129     1.3447     0.0327 C.ar    
   6 C6            -1.2256     2.0509     0.0299 C.ar    
   7 S7            -3.9503     2.2053     0.0519 S.o2    
   8 O8            -3.6952     3.4948    -0.4881 O.2     
   9 O9            -4.9161     1.3138    -0.4882 O.2     
  10 C10           -4.3894     2.4511     1.7405 C.ar    
  11 C11           -3.9764     3.5922     2.4016 C.ar    
  12 C12           -4.3200     3.7879     3.7311 C.ar    
  13 C13           -5.0836     2.8352     4.3949 C.ar    
  14 C14           -5.4942     1.6918     3.7258 C.ar    
  15 C15           -5.1514     1.5046     2.4001 C.ar    
  16 O16           -3.8993     4.9128     4.3714 O.3     
  17 C17           -4.5750     5.2522     5.5871 C.3     
  18 C18           -4.6954     3.9827     6.4409 C.3     
  19 O19           -5.4386     3.0110     5.6971 O.3     
  20 C20            1.4034     1.8833    -0.0012 C.3     
  21 N21            2.2927     0.7175    -0.0160 N.am    
  22 C22            1.4353    -0.4720    -0.0142 C.3     
  23 S23            3.9485     0.7400    -0.0322 S.o2    
  24 O24            4.3097    -0.4889    -0.6473 O.2     
  25 O25            4.2762     1.9848    -0.6342 O.2     
  26 C26            4.4184     0.7372     1.7199 C.3     
  27 C27            5.9436     0.7572     1.8390 C.3     
  28 C28            6.3386     0.8805     3.3119 C.3     
  29 C29            6.5171    -0.5395     1.2640 C.3     
  30 H30           -1.1737    -1.7911     0.0041 H       
  31 H31           -3.3218    -0.5906     0.0306 H       
  32 H32           -1.2405     3.1307     0.0362 H       
  33 H33           -3.3851     4.3321     1.8827 H       
  34 H34           -6.0856     0.9487     4.2401 H       
  35 H35           -5.4721     0.6136     1.8810 H       
  36 H36           -4.0025     6.0059     6.1278 H       
  37 H37           -5.5689     5.6379     5.3599 H       
  38 H38           -3.7017     3.5939     6.6636 H       
  39 H39           -5.2174     4.2125     7.3698 H       
  40 H40            1.5728     2.4885    -0.8918 H       
  41 H41            1.5899     2.4789     0.8924 H       
  42 H42            1.6380    -1.0722     0.8728 H       
  43 H43            1.6210    -1.0627    -0.9113 H       
  44 H44            4.0042     1.6190     2.2086 H       
  45 H45            4.0283    -0.1607     2.1992 H       
  46 H46            6.3402     1.6074     1.2840 H       
  47 H47            5.9420     0.0303     3.8669 H       
  48 H48            7.4252     0.8948     3.3967 H       
  49 H49            5.9300     1.8043     3.7216 H       
  50 H50            6.2357    -0.6273     0.2146 H       
  51 H51            7.6037    -0.5252     1.3488 H       
  52 H52            6.1205    -1.3897     1.8189 H       
@<TRIPOS>BOND
   1    1    2 ar
   2    1   20 1
   3    1    6 ar
   4    2    3 ar
   5    2   22 1
   6    3    4 ar
   7    3   30 1
   8    4    5 ar
   9    4   31 1
  10    5    6 ar
  11    5    7 1
  12    6   32 1
  13    7    8 2
  14    7    9 2
  15    7   10 1
  16   10   11 ar
  17   10   15 ar
  18   11   12 ar
  19   11   33 1
  20   12   13 ar
  21   12   16 1
  22   13   14 ar
  23   13   19 1
  24   14   15 ar
  25   14   34 1
  26   15   35 1
  27   16   17 1
  28   17   18 1
  29   17   36 1
  30   17   37 1
  31   18   19 1
  32   18   38 1
  33   18   39 1
  34   20   21 1
  35   20   40 1
  36   20   41 1
  37   21   22 1
  38   21   23 am
  39   22   42 1
  40   22   43 1
  41   23   24 2
  42   23   25 2
  43   23   26 1
  44   26   27 1
  45   26   44 1
  46   26   45 1
  47   27   28 1
  48   27   29 1
  49   27   46 1
  50   28   47 1
  51   28   48 1
  52   28   49 1
  53   29   50 1
  54   29   51 1
  55   29   52 1

#	End of record

