#	Name: ASD04880395
#	Creating user name:	WinNT
#	Creation time:	15. 06. 2019 20:53

#	Modifying user name:	WinNT
#	Modification time:	15. 06. 2019 20:53

#	Program:	/corina/corina34_cracker 3.40 0067  02.08.2006

@<TRIPOS>MOLECULE
ASD04880395
  41   43    0    0    0
SMALL
NO_CHARGES


@<TRIPOS>ATOM
   1 C1            -0.0109     1.3876     0.0556 C.ar    
   2 C2             1.1769     2.0949     0.0954 C.ar    
   3 C3             2.3835     1.4264     0.0661 C.ar    
   4 C4             2.4052     0.0325    -0.0035 C.ar    
   5 C5             1.2039    -0.6775    -0.0429 C.ar    
   6 C6             0.0021     0.0034    -0.0135 C.ar    
   7 C7             3.6948    -0.6889    -0.0356 C.2     
   8 O8             3.7145    -1.9025     0.0363 O.2     
   9 N9             4.8489    -0.0014    -0.1447 N.am    
  10 C10            6.2000    -0.5795    -0.0686 C.3     
  11 N11            4.9576     1.3718    -0.3541 N.2     
  12 C12            6.1712     1.7992    -0.4243 C.2     
  13 C13            7.1258     0.6389    -0.2550 C.3     
  14 F14           -1.1620    -0.6811    -0.0511 F       
  15 C15            6.5678     3.2024    -0.6402 C.ar    
  16 C16            5.5918     4.1921    -0.7868 C.ar    
  17 C17            5.9672     5.5024    -0.9880 C.ar    
  18 C18            7.3134     5.8405    -1.0456 C.ar    
  19 C19            8.2867     4.8605    -0.9009 C.ar    
  20 C20            7.9206     3.5481    -0.6932 C.ar    
  21 O21            7.6789     7.1337    -1.2446 O.3     
  22 C22            9.0797     7.4118    -1.2933 C.3     
  23 C23            4.1311     3.8264    -0.7255 C.3     
  24 O24            3.3380     5.0021    -0.9011 O.3     
  25 H25           -0.9526     1.9158     0.0830 H       
  26 H26            1.1599     3.1734     0.1492 H       
  27 H27            3.3098     1.9808     0.0965 H       
  28 H28            1.2140    -1.7561    -0.0971 H       
  29 H29            6.3653    -1.0415     0.9048 H       
  30 H30            6.3531    -1.3036    -0.8689 H       
  31 H31            7.7507     0.7834     0.6263 H       
  32 H32            7.7418     0.5174    -1.1460 H       
  33 H33            5.2137     6.2678    -1.1014 H       
  34 H34            9.3321     5.1278    -0.9472 H       
  35 H35            8.6782     2.7867    -0.5804 H       
  36 H36            9.5413     7.1187    -0.3504 H       
  37 H37            9.5334     6.8502    -2.1100 H       
  38 H38            9.2328     8.4785    -1.4568 H       
  39 H39            3.9019     3.1120    -1.5162 H       
  40 H40            3.9088     3.3796     0.2436 H       
  41 H41            2.3849     4.8413    -0.8729 H       
@<TRIPOS>BOND
   1    1    2 ar
   2    1    6 ar
   3    1   25 1
   4    2    3 ar
   5    2   26 1
   6    3    4 ar
   7    3   27 1
   8    4    5 ar
   9    4    7 1
  10    5    6 ar
  11    5   28 1
  12    6   14 1
  13    7    8 2
  14    7    9 am
  15    9   10 1
  16    9   11 1
  17   10   13 1
  18   10   29 1
  19   10   30 1
  20   11   12 2
  21   12   13 1
  22   12   15 1
  23   13   31 1
  24   13   32 1
  25   15   16 ar
  26   15   20 ar
  27   16   17 ar
  28   16   23 1
  29   17   18 ar
  30   17   33 1
  31   18   19 ar
  32   18   21 1
  33   19   20 ar
  34   19   34 1
  35   20   35 1
  36   21   22 1
  37   22   36 1
  38   22   37 1
  39   22   38 1
  40   23   24 1
  41   23   39 1
  42   23   40 1
  43   24   41 1

#	End of record

