#	Name: ASD02508457
#	Creating user name:	WinNT
#	Creation time:	15. 06. 2019 20:24

#	Modifying user name:	WinNT
#	Modification time:	15. 06. 2019 20:24

#	Program:	/corina/corina34_cracker 3.40 0067  02.08.2006

@<TRIPOS>MOLECULE
ASD02508457
  35   37    0    0    0
SMALL
NO_CHARGES


@<TRIPOS>ATOM
   1 N1            -0.0197     1.3282     0.0703 N.2     
   2 C2             0.0059    -0.0066    -0.0613 C.2     
   3 C3             1.2923    -0.3998    -0.1133 C.2     
   4 N4             2.0584     0.7333    -0.0098 N.pl3   
   5 C5             1.2027     1.7834     0.1024 C.2     
   6 C6             3.4552     0.7962    -0.0176 C.ar    
   7 C7             4.1111     1.6157    -0.9307 C.ar    
   8 N8             4.1573     0.0792     0.8485 N.ar    
   9 C9             5.4777     0.1406     0.8386 C.ar    
  10 C10            6.1270     0.9515    -0.0737 C.ar    
  11 N11            5.4298     1.6725    -0.9354 N.ar    
  12 S12            1.8792    -2.0526    -0.2820 S.o2    
  13 N13            1.8807    -2.4097    -1.8990 N.am    
  14 C14            2.7316    -1.7184    -2.7668 C.ar    
  15 C15            4.0576    -1.5031    -2.4155 C.ar    
  16 C16            4.8966    -0.8203    -3.2746 C.ar    
  17 C17            4.4162    -0.3504    -4.4850 C.ar    
  18 C18            3.0941    -0.5640    -4.8375 C.ar    
  19 C19            2.2532    -1.2510    -3.9842 C.ar    
  20 O20            3.2400    -2.0389     0.1271 O.2     
  21 O21            0.8972    -2.8898     0.3129 O.2     
  22 C22            2.5741    -0.0513    -6.1557 C.3     
  23 F23            5.2383     0.3179    -5.3233 F       
  24 H24           -0.8568    -0.6541    -0.1158 H       
  25 H25            1.4869     2.8207     0.2009 H       
  26 H26            3.5420     2.2043    -1.6351 H       
  27 H27            6.0500    -0.4431     1.5443 H       
  28 H28            7.2059     1.0001    -0.0793 H       
  29 H29            1.2912    -3.0983    -2.2442 H       
  30 H30            4.4326    -1.8689    -1.4710 H       
  31 H31            5.9280    -0.6527    -3.0017 H       
  32 H32            1.2222    -1.4174    -4.2595 H       
  33 H33            2.7114    -0.8142    -6.9220 H       
  34 H34            1.5136     0.1825    -6.0618 H       
  35 H35            3.1210     0.8487    -6.4368 H       
@<TRIPOS>BOND
   1    1    2 1
   2    1    5 2
   3    2    3 2
   4    2   24 1
   5    3    4 1
   6    3   12 1
   7    4    5 1
   8    4    6 1
   9    5   25 1
  10    6    7 ar
  11    6    8 ar
  12    7   11 ar
  13    7   26 1
  14    8    9 ar
  15    9   10 ar
  16    9   27 1
  17   10   11 ar
  18   10   28 1
  19   12   13 am
  20   12   20 2
  21   12   21 2
  22   13   14 1
  23   13   29 1
  24   14   15 ar
  25   14   19 ar
  26   15   16 ar
  27   15   30 1
  28   16   17 ar
  29   16   31 1
  30   17   18 ar
  31   17   23 1
  32   18   19 ar
  33   18   22 1
  34   19   32 1
  35   22   33 1
  36   22   34 1
  37   22   35 1

#	End of record

