#	Name: ASD00069155
#	Creating user name:	WinNT
#	Creation time:	15. 06. 2019 18:29

#	Modifying user name:	WinNT
#	Modification time:	15. 06. 2019 18:29

#	Program:	/corina/corina34_cracker 3.40 0067  02.08.2006

@<TRIPOS>MOLECULE
ASD00069155
  57   61    0    0    0
SMALL
NO_CHARGES


@<TRIPOS>ATOM
   1 C1            -0.1007     1.1820     0.5867 C.2     
   2 N2             0.0059     0.0017     0.0147 N.2     
   3 C3             1.2520    -0.4543     0.1836 C.2     
   4 C4             1.9530     0.4808     0.8909 C.2     
   5 N5             1.1050     1.5054     1.1431 N.pl3   
   6 C6            -1.3141     2.0172     0.6169 C.2     
   7 O7            -1.2958     3.0965     1.1776 O.2     
   8 N8            -2.4444     1.5854     0.0232 N.am    
   9 N9             1.9446    -3.6868    -1.3220 N.pl3   
  10 N10            3.1516    -3.4358    -0.6582 N.2     
  11 C11            3.0599    -2.2811    -0.0528 C.2     
  12 C12            1.7812    -1.7515    -0.3113 C.2     
  13 C13            1.1168    -2.6448    -1.0987 C.2     
  14 C14           -3.6200     2.3397     0.1232 C.ar    
  15 C15           -4.8631     1.7144     0.0124 C.ar    
  16 C16           -6.0276     2.4617     0.1120 C.ar    
  17 C17           -5.9603     3.8249     0.3208 C.ar    
  18 C18           -4.7225     4.4540     0.4316 C.ar    
  19 C19           -3.5510     3.7060     0.3378 C.ar    
  20 N20           -5.2217     8.0116     0.9642 N.pl3   
  21 N21           -3.8238     7.9331     0.9696 N.2     
  22 C22           -3.4773     6.6865     0.7854 C.2     
  23 C23           -4.6518     5.9204     0.6551 C.2     
  24 C24           -5.7126     6.7701     0.7705 C.2     
  25 N25           -4.9346     0.3332    -0.1996 N.3     
  26 C26           -5.6603    -0.3298     0.8914 C.3     
  27 C27           -5.5933    -1.8470     0.7023 C.3     
  28 C28           -6.2148    -2.2161    -0.6475 C.3     
  29 C29           -5.4718    -1.4749    -1.7624 C.3     
  30 C30           -5.5422     0.0314    -1.5019 C.3     
  31 C31           -6.0961    -3.7253    -0.8695 C.3     
  32 N32           -6.7972    -4.0949    -2.1064 N.3     
  33 H33            2.9880     0.4149     1.1923 H       
  34 H34            1.3144     2.3186     1.6287 H       
  35 H35           -2.4435     0.7522    -0.4734 H       
  36 H36            1.7402    -4.4719    -1.8537 H       
  37 H37            3.8307    -1.8146     0.5426 H       
  38 H38            0.1104    -2.5376    -1.4756 H       
  39 H39           -6.9886     1.9764     0.0258 H       
  40 H40           -6.8685     4.4042     0.3979 H       
  41 H41           -2.5905     4.1915     0.4283 H       
  42 H42           -5.7465     8.8186     1.0834 H       
  43 H43           -2.4662     6.3095     0.7406 H       
  44 H44           -6.7564     6.4982     0.7168 H       
  45 H45           -5.2057    -0.0623     1.8452 H       
  46 H46           -6.7018    -0.0084     0.8828 H       
  47 H47           -4.5528    -2.1709     0.7246 H       
  48 H48           -6.1453    -2.3383     1.5036 H       
  49 H49           -7.2659    -1.9273    -0.6558 H       
  50 H50           -4.4293    -1.7930    -1.7789 H       
  51 H51           -5.9369    -1.7004    -2.7221 H       
  52 H52           -6.5843     0.3512    -1.4993 H       
  53 H53           -5.0019     0.5614    -2.2863 H       
  54 H54           -5.0443    -3.9987    -0.9524 H       
  55 H55           -6.5433    -4.2527    -0.0269 H       
  56 H56           -6.7333    -5.0876    -2.2753 H       
  57 H57           -7.7598    -3.7938    -2.0802 H       
@<TRIPOS>BOND
   1    1    2 2
   2    1    5 1
   3    1    6 1
   4    2    3 1
   5    3    4 2
   6    3   12 1
   7    4    5 1
   8    4   33 1
   9    5   34 1
  10    6    7 2
  11    6    8 am
  12    8   14 1
  13    8   35 1
  14    9   10 1
  15    9   13 1
  16    9   36 1
  17   10   11 2
  18   11   12 1
  19   11   37 1
  20   12   13 2
  21   13   38 1
  22   14   15 ar
  23   14   19 ar
  24   15   16 ar
  25   15   25 1
  26   16   17 ar
  27   16   39 1
  28   17   18 ar
  29   17   40 1
  30   18   19 ar
  31   18   23 1
  32   19   41 1
  33   20   21 1
  34   20   24 1
  35   20   42 1
  36   21   22 2
  37   22   23 1
  38   22   43 1
  39   23   24 2
  40   24   44 1
  41   25   26 1
  42   25   30 1
  43   26   27 1
  44   26   45 1
  45   26   46 1
  46   27   28 1
  47   27   47 1
  48   27   48 1
  49   28   29 1
  50   28   31 1
  51   28   49 1
  52   29   30 1
  53   29   50 1
  54   29   51 1
  55   30   52 1
  56   30   53 1
  57   31   32 1
  58   31   54 1
  59   31   55 1
  60   32   56 1
  61   32   57 1

#	End of record

