#	Name: ASD02500221
#	Creating user name:	WinNT
#	Creation time:	15. 06. 2019 20:22

#	Modifying user name:	WinNT
#	Modification time:	15. 06. 2019 20:22

#	Program:	/corina/corina34_cracker 3.40 0067  02.08.2006

@<TRIPOS>MOLECULE
ASD02500221
  60   64    0    0    0
SMALL
NO_CHARGES


@<TRIPOS>ATOM
   1 N1            -3.3839     5.6424    -0.1366 N.ar    
   2 C2            -4.4867     6.3077    -0.3803 C.ar    
   3 C3            -5.6294     6.1439     0.3999 C.ar    
   4 C4            -5.6184     5.2709     1.4502 C.ar    
   5 C5            -4.4324     4.5578     1.7086 C.ar    
   6 C6            -4.3456     3.6439     2.7707 C.ar    
   7 C7            -3.1802     2.9738     2.9883 C.ar    
   8 C8            -2.0718     3.1834     2.1708 C.ar    
   9 C9            -2.1210     4.0620     1.1324 C.ar    
  10 C10           -3.3062     4.7727     0.8758 C.ar    
  11 S11           -0.7041     4.3084     0.1145 S.o2    
  12 O12           -0.5056     5.7133     0.0361 O.2     
  13 O13            0.2896     3.4082     0.5852 O.2     
  14 N14           -1.1040     3.8067    -1.4122 N.am    
  15 C15           -1.3433     2.4583    -1.6614 C.ar    
  16 C16           -1.0019     1.9077    -2.8959 C.ar    
  17 C17           -1.2379     0.5735    -3.1446 C.ar    
  18 C18           -1.8197    -0.2276    -2.1569 C.ar    
  19 C19           -2.1598     0.3284    -0.9208 C.ar    
  20 C20           -1.9172     1.6615    -0.6762 C.ar    
  21 F21           -0.4400     2.6831    -3.8489 F       
  22 C22           -2.0743    -1.6567    -2.4196 C.2     
  23 O23           -1.8385    -2.4842    -1.5605 O.2     
  24 N24           -2.5684    -2.0451    -3.6119 N.am    
  25 C25           -2.9128    -3.4528    -3.8561 C.3     
  26 C26           -4.3747    -3.5273    -4.3141 C.3     
  27 N27           -4.5791    -2.5506    -5.3931 N.am    
  28 C28           -4.2346    -1.1429    -5.1488 C.3     
  29 C29           -2.7781    -1.0675    -4.6890 C.3     
  30 C30           -5.0732    -2.9390    -6.5853 C.2     
  31 C31           -5.2731    -1.9475    -7.6594 C.ar    
  32 C32           -6.4916    -1.2694    -7.7730 C.ar    
  33 C33           -6.6704    -0.3421    -8.7823 C.ar    
  34 C34           -5.6490    -0.0838    -9.6783 C.ar    
  35 C35           -4.4413    -0.7495    -9.5733 C.ar    
  36 C36           -4.2434    -1.6757    -8.5666 C.ar    
  37 O37           -5.3541    -4.1066    -6.7758 O.2     
  38 F38           -3.0609    -2.3209    -8.4625 F       
  39 F39           -7.4907    -1.5206    -6.8990 F       
  40 H40           -4.5100     7.0015    -1.2076 H       
  41 H41           -6.5230     6.7070     0.1745 H       
  42 H42           -6.4950     5.1318     2.0655 H       
  43 H43           -5.1979     3.4734     3.4117 H       
  44 H44           -3.1143     2.2709     3.8055 H       
  45 H45           -1.1586     2.6402     2.3643 H       
  46 H46           -1.1716     4.4525    -2.1328 H       
  47 H47           -0.9742     0.1468    -4.1011 H       
  48 H48           -2.6095    -0.2880    -0.1565 H       
  49 H49           -2.1764     2.0900     0.2807 H       
  50 H50           -2.2649    -3.8584    -4.6331 H       
  51 H51           -2.7879    -4.0248    -2.9367 H       
  52 H52           -4.5920    -4.5299    -4.6822 H       
  53 H53           -5.0326    -3.2914    -3.4776 H       
  54 H54           -4.3595    -0.5709    -6.0683 H       
  55 H55           -4.8826    -0.7373    -4.3718 H       
  56 H56           -2.5642    -0.0646    -4.3195 H       
  57 H57           -2.1203    -1.2994    -5.5267 H       
  58 H58           -7.6104     0.1820    -8.8716 H       
  59 H59           -5.7955     0.6418   -10.4648 H       
  60 H60           -3.6490    -0.5417   -10.2772 H       
@<TRIPOS>BOND
   1    1    2 ar
   2    1   10 ar
   3    2    3 ar
   4    2   40 1
   5    3    4 ar
   6    3   41 1
   7    4    5 ar
   8    4   42 1
   9    5    6 ar
  10    5   10 ar
  11    6    7 ar
  12    6   43 1
  13    7    8 ar
  14    7   44 1
  15    8    9 ar
  16    8   45 1
  17    9   10 ar
  18    9   11 1
  19   11   12 2
  20   11   13 2
  21   11   14 am
  22   14   15 1
  23   14   46 1
  24   15   16 ar
  25   15   20 ar
  26   16   17 ar
  27   16   21 1
  28   17   18 ar
  29   17   47 1
  30   18   19 ar
  31   18   22 1
  32   19   20 ar
  33   19   48 1
  34   20   49 1
  35   22   23 2
  36   22   24 am
  37   24   25 1
  38   24   29 1
  39   25   26 1
  40   25   50 1
  41   25   51 1
  42   26   27 1
  43   26   52 1
  44   26   53 1
  45   27   28 1
  46   27   30 am
  47   28   29 1
  48   28   54 1
  49   28   55 1
  50   29   56 1
  51   29   57 1
  52   30   31 1
  53   30   37 2
  54   31   32 ar
  55   31   36 ar
  56   32   33 ar
  57   32   39 1
  58   33   34 ar
  59   33   58 1
  60   34   35 ar
  61   34   59 1
  62   35   36 ar
  63   35   60 1
  64   36   38 1

#	End of record

