#	Name: ASD08150337
#	Creating user name:	WinNT
#	Creation time:	15. 06. 2019 21:15

#	Modifying user name:	WinNT
#	Modification time:	15. 06. 2019 21:15

#	Program:	/corina/corina34_cracker 3.40 0067  02.08.2006

@<TRIPOS>MOLECULE
ASD08150337
  69   72    0    0    0
SMALL
NO_CHARGES


@<TRIPOS>ATOM
   1 N1             8.1041     2.6110     1.9737 N.am    
   2 C2             8.2624     3.3632     0.7197 C.3     
   3 C3             8.1725     2.3802    -0.4523 C.3     
   4 N4             6.9280     1.6072    -0.3446 N.3     
   5 C5             6.9125     0.7895     0.8757 C.3     
   6 C6             6.9508     1.7073     2.1022 C.3     
   7 C7             8.9953     2.7420     2.9762 C.2     
   8 O8             9.9451     3.4894     2.8509 O.2     
   9 O9             8.8331     2.0448     4.1165 O.3     
  10 C10            6.7293     0.8155    -1.4814 C.ar    
  11 C11            6.0051     1.3139    -2.5568 C.ar    
  12 C12            5.8094     0.5332    -3.6783 C.ar    
  13 C13            6.3369    -0.7508    -3.7314 C.ar    
  14 C14            7.0609    -1.2490    -2.6562 C.ar    
  15 C15            7.2610    -0.4660    -1.5365 C.ar    
  16 C16            5.4325     2.7066    -2.4990 C.3     
  17 F17            4.6438     2.9340    -3.6319 F       
  18 F18            4.6467     2.8405    -1.3493 F       
  19 F19            6.4753     3.6384    -2.4622 F       
  20 N20            6.1381    -1.5428    -4.8687 N.pl3   
  21 N21            7.3727    -5.5113    -4.8808 N.ar    
  22 C22            8.1534    -4.5757    -5.3689 C.ar    
  23 C23            7.7766    -3.2396    -5.3820 C.ar    
  24 C24            6.5433    -2.8690    -4.8695 C.ar    
  25 C25            5.7104    -3.8876    -4.3463 C.ar    
  26 C26            4.4494    -3.5945    -3.8104 C.ar    
  27 C27            3.6760    -4.6032    -3.3159 C.ar    
  28 C28            4.1249    -5.9221    -3.3374 C.ar    
  29 C29            5.3453    -6.2396    -3.8508 C.ar    
  30 C30            6.1692    -5.2263    -4.3695 C.ar    
  31 C31            8.7041    -2.1970    -5.9512 C.3     
  32 N32            9.4071    -1.5164    -4.8555 N.3     
  33 C33           10.3222    -0.4908    -5.3739 C.3     
  34 Cl34           2.1140    -4.2396    -2.6514 Cl      
  35 C35            9.8316     2.2355     5.1534 C.3     
  36 C36            9.8580     3.7070     5.5715 C.3     
  37 C37            9.4819     1.3676     6.3639 C.3     
  38 C38           11.2068     1.8328     4.6173 C.3     
  39 H39            7.4694     4.1064     0.6360 H       
  40 H40            9.2338     3.8575     0.7094 H       
  41 H41            8.1771     2.9329    -1.3918 H       
  42 H42            9.0254     1.7021    -0.4245 H       
  43 H43            6.0035     0.1885     0.8993 H       
  44 H44            7.7830     0.1335     0.8850 H       
  45 H45            7.0551     1.1068     3.0058 H       
  46 H46            6.0317     2.2913     2.1513 H       
  47 H47            5.2460     0.9205    -4.5144 H       
  48 H48            7.4707    -2.2474    -2.6973 H       
  49 H49            7.8279    -0.8518    -0.7021 H       
  50 H50            5.7170    -1.1638    -5.6560 H       
  51 H51            9.1166    -4.8532    -5.7711 H       
  52 H52            4.0921    -2.5755    -3.7886 H       
  53 H53            3.4953    -6.7045    -2.9402 H       
  54 H54            5.6788    -7.2668    -3.8598 H       
  55 H55            9.4310    -2.6765    -6.6069 H       
  56 H56            8.1264    -1.4686    -6.5202 H       
  57 H57            8.7530    -1.1185    -4.1983 H       
  58 H58           11.0603    -0.9584    -6.0256 H       
  59 H59            9.7557     0.2494    -5.9390 H       
  60 H60           10.8295    -0.0025    -4.5419 H       
  61 H61            8.8782     3.9939     5.9533 H       
  62 H62           10.6075     3.8502     6.3498 H       
  63 H63           10.1071     4.3254     4.7091 H       
  64 H64            9.4630     0.3192     6.0660 H       
  65 H65           10.2314     1.5107     7.1422 H       
  66 H66            8.5021     1.6545     6.7457 H       
  67 H67           11.4560     2.4512     3.7549 H       
  68 H68           11.9563     1.9760     5.3957 H       
  69 H69           11.1880     0.7845     4.3195 H       
@<TRIPOS>BOND
   1    1    2 1
   2    1    6 1
   3    1    7 am
   4    2    3 1
   5    2   39 1
   6    2   40 1
   7    3    4 1
   8    3   41 1
   9    3   42 1
  10    4    5 1
  11    4   10 1
  12    5    6 1
  13    5   43 1
  14    5   44 1
  15    6   45 1
  16    6   46 1
  17    7    8 2
  18    7    9 1
  19    9   35 1
  20   10   11 ar
  21   10   15 ar
  22   11   12 ar
  23   11   16 1
  24   12   13 ar
  25   12   47 1
  26   13   14 ar
  27   13   20 1
  28   14   15 ar
  29   14   48 1
  30   15   49 1
  31   16   17 1
  32   16   18 1
  33   16   19 1
  34   20   24 1
  35   20   50 1
  36   21   22 ar
  37   21   30 ar
  38   22   23 ar
  39   22   51 1
  40   23   24 ar
  41   23   31 1
  42   24   25 ar
  43   25   26 ar
  44   25   30 ar
  45   26   27 ar
  46   26   52 1
  47   27   28 ar
  48   27   34 1
  49   28   29 ar
  50   28   53 1
  51   29   30 ar
  52   29   54 1
  53   31   32 1
  54   31   55 1
  55   31   56 1
  56   32   33 1
  57   32   57 1
  58   33   58 1
  59   33   59 1
  60   33   60 1
  61   35   36 1
  62   35   38 1
  63   35   37 1
  64   36   61 1
  65   36   62 1
  66   36   63 1
  67   37   64 1
  68   37   65 1
  69   37   66 1
  70   38   67 1
  71   38   68 1
  72   38   69 1

#	End of record

