#	Name: ASD03950102
#	Creating user name:	WinNT
#	Creation time:	15. 06. 2019 20:48

#	Modifying user name:	WinNT
#	Modification time:	15. 06. 2019 20:48

#	Program:	/corina/corina34_cracker 3.40 0067  02.08.2006

@<TRIPOS>MOLECULE
ASD03950102
  31   33    0    0    0
SMALL
NO_CHARGES


@<TRIPOS>ATOM
   1 N1            -0.0169     1.3944     0.0097 N.pl3   
   2 N2             0.0021    -0.0041     0.0020 N.2     
   3 C3             1.2316    -0.4335    -0.0120 C.2     
   4 C4             2.1094     0.7333    -0.0141 C.ar    
   5 C5             3.4988     0.9014    -0.0268 C.ar    
   6 C6             4.0392     2.1681    -0.0252 C.ar    
   7 C7             3.2200     3.2863    -0.0114 C.ar    
   8 C8             1.8354     3.1469     0.0010 C.ar    
   9 C9             1.2675     1.8600    -0.0001 C.ar    
  10 C10            0.9943     4.3058     0.0152 C.1     
  11 N11            0.3271     5.2252     0.0265 N.1     
  12 N12            0.9752    -4.6784    -0.0274 N.3     
  13 C13            1.5352    -4.0587     1.1804 C.3     
  14 C14            1.1393    -2.5812     1.2277 C.3     
  15 C15            1.6695    -1.8754    -0.0235 C.3     
  16 C16            1.1096    -2.5704    -1.2678 C.3     
  17 C17            1.5064    -4.0482    -1.2427 C.3     
  18 Br18           5.9177     2.3842    -0.0412 Br      
  19 H19           -0.8148     1.9459     0.0167 H       
  20 H20            4.1472     0.0378    -0.0376 H       
  21 H21            3.6595     4.2729    -0.0099 H       
  22 H22            1.1418    -5.6735    -0.0337 H       
  23 H23            1.1470    -4.5672     2.0629 H       
  24 H24            2.6218    -4.1431     1.1614 H       
  25 H25            0.0531    -2.4964     1.2606 H       
  26 H26            1.5682    -2.1178     2.1162 H       
  27 H27            2.7583    -1.9254    -0.0361 H       
  28 H28            0.0230    -2.4854    -1.2741 H       
  29 H29            1.5173    -2.0992    -2.1621 H       
  30 H30            2.5931    -4.1326    -1.2503 H       
  31 H31            1.0972    -4.5490    -2.1201 H       
@<TRIPOS>BOND
   1    1    2 1
   2    1    9 1
   3    1   19 1
   4    2    3 2
   5    3    4 1
   6    3   15 1
   7    4    5 ar
   8    4    9 ar
   9    5    6 ar
  10    5   20 1
  11    6    7 ar
  12    6   18 1
  13    7    8 ar
  14    7   21 1
  15    8    9 ar
  16    8   10 1
  17   10   11 3
  18   12   13 1
  19   12   17 1
  20   12   22 1
  21   13   14 1
  22   13   23 1
  23   13   24 1
  24   14   15 1
  25   14   25 1
  26   14   26 1
  27   15   16 1
  28   15   27 1
  29   16   17 1
  30   16   28 1
  31   16   29 1
  32   17   30 1
  33   17   31 1

#	End of record

