#	Name: ASD05430366
#	Creating user name:	WinNT
#	Creation time:	15. 06. 2019 21:00

#	Modifying user name:	WinNT
#	Modification time:	15. 06. 2019 21:00

#	Program:	/corina/corina34_cracker 3.40 0067  02.08.2006

@<TRIPOS>MOLECULE
ASD05430366
  64   68    0    0    0
SMALL
NO_CHARGES


@<TRIPOS>ATOM
   1 C1            -0.1351     1.2709     0.1334 C.ar    
   2 C2            -0.1167     0.0892     0.8739 C.ar    
   3 C3            -1.2933    -0.4139     1.4146 C.ar    
   4 C4            -2.4839     0.2517     1.2216 C.ar    
   5 C5            -2.5100     1.4375     0.4800 C.ar    
   6 C6            -1.3248     1.9470    -0.0595 C.ar    
   7 C7            -4.9320     1.4589     0.1750 C.2     
   8 C8            -3.7810     2.1501     0.2727 C.2     
   9 N9            -7.2551     1.5131    -0.5984 N.pl3   
  10 C10           -6.2433     2.1238     0.1240 C.2     
  11 C11           -9.5552     1.4990    -1.3173 C.ar    
  12 C12          -10.4350     1.6906    -2.3664 C.ar    
  13 C13           -9.8342     0.5591    -0.3427 C.ar    
  14 C14          -10.9929    -0.1905    -0.4164 C.ar    
  15 C15          -11.8748     0.0006    -1.4666 C.ar    
  16 C16          -11.5945     0.9425    -2.4419 C.ar    
  17 F17          -13.0076    -0.7319    -1.5399 F       
  18 O18            1.0183     1.7607    -0.3939 O.3     
  19 C19            0.9256     2.9753    -1.1410 C.3     
  20 C20            1.5875    -1.0389     2.2699 C.2     
  21 N21            1.0911    -0.5922     1.0725 N.pl3   
  22 C22            2.7656    -1.6352     2.0055 C.2     
  23 N23            2.9873    -1.5578     0.6850 N.2     
  24 C24            1.9916    -0.9353     0.1150 C.2     
  25 C25            3.6776    -2.2781     3.0185 C.3     
  26 O26           -7.2476     0.0971    -0.6910 O.3     
  27 C27           -5.9645    -0.4560    -0.9881 C.3     
  28 C28           -4.9610    -0.0609     0.1037 C.3     
  29 C29           -8.2881     2.3110    -1.2394 C.3     
  30 C30           -8.5736     3.6004    -0.4816 C.3     
  31 C31           -7.9106     3.6287     0.8877 C.3     
  32 N32           -6.5063     3.2071     0.7972 N.2     
  33 C33           -7.9742     5.0509     1.4484 C.3     
  34 O34           -7.4584     5.0610     2.7810 O.3     
  35 C35           -7.8367     2.6594    -2.6592 C.3     
  36 H36           -1.2746    -1.3293     1.9874 H       
  37 H37           -3.3972    -0.1421     1.6425 H       
  38 H38           -1.3405     2.8622    -0.6326 H       
  39 H39           -3.7903     3.2275     0.1990 H       
  40 H40          -10.2161     2.4254    -3.1270 H       
  41 H41           -9.1462     0.4103     0.4764 H       
  42 H42          -11.2104    -0.9252     0.3447 H       
  43 H43          -12.2818     1.0927    -3.2614 H       
  44 H44            1.9145     3.2546    -1.5046 H       
  45 H45            0.2547     2.8308    -1.9878 H       
  46 H46            0.5370     3.7671    -0.5006 H       
  47 H47            1.1248    -0.9293     3.2396 H       
  48 H48            1.8992    -0.7279    -0.9408 H       
  49 H49            3.4136    -3.3298     3.1293 H       
  50 H50            4.7107    -2.1964     2.6807 H       
  51 H51            3.5681    -1.7730     3.9782 H       
  52 H52           -6.0392    -1.5426    -1.0295 H       
  53 H53           -5.6227    -0.0805    -1.9526 H       
  54 H54           -3.9705    -0.4380    -0.1506 H       
  55 H55           -5.2782    -0.4700     1.0629 H       
  56 H56           -8.2072     4.4430    -1.0682 H       
  57 H57           -9.6512     3.7037    -0.3542 H       
  58 H58           -8.4443     2.9555     1.5585 H       
  59 H59           -7.3777     5.7150     0.8229 H       
  60 H60           -9.0093     5.3922     1.4568 H       
  61 H61           -7.4682     5.9325     3.1999 H       
  62 H62           -7.6763     1.7416    -3.2249 H       
  63 H63           -8.6052     3.2580    -3.1483 H       
  64 H64           -6.9069     3.2267    -2.6159 H       
@<TRIPOS>BOND
   1    1    2 ar
   2    1   18 1
   3    1    6 ar
   4    2    3 ar
   5    2   21 1
   6    3    4 ar
   7    3   36 1
   8    4    5 ar
   9    4   37 1
  10    5    6 ar
  11    5    8 1
  12    6   38 1
  13    7    8 2
  14    7   28 1
  15    7   10 1
  16    8   39 1
  17    9   10 1
  18    9   29 1
  19    9   26 1
  20   10   32 2
  21   11   12 ar
  22   11   13 ar
  23   11   29 1
  24   12   16 ar
  25   12   40 1
  26   13   14 ar
  27   13   41 1
  28   14   15 ar
  29   14   42 1
  30   15   16 ar
  31   15   17 1
  32   16   43 1
  33   18   19 1
  34   19   44 1
  35   19   45 1
  36   19   46 1
  37   20   21 1
  38   20   22 2
  39   20   47 1
  40   21   24 1
  41   22   23 1
  42   22   25 1
  43   23   24 2
  44   24   48 1
  45   25   49 1
  46   25   50 1
  47   25   51 1
  48   26   27 1
  49   27   28 1
  50   27   52 1
  51   27   53 1
  52   28   54 1
  53   28   55 1
  54   29   30 1
  55   29   35 1
  56   30   31 1
  57   30   56 1
  58   30   57 1
  59   31   32 1
  60   31   33 1
  61   31   58 1
  62   33   34 1
  63   33   59 1
  64   33   60 1
  65   34   61 1
  66   35   62 1
  67   35   63 1
  68   35   64 1

#	End of record

