#	Name: ASD01190084
#	Creating user name:	WinNT
#	Creation time:	15. 06. 2019 19:07

#	Modifying user name:	WinNT
#	Modification time:	15. 06. 2019 19:07

#	Program:	/corina/corina34_cracker 3.40 0067  02.08.2006

@<TRIPOS>MOLECULE
ASD01190084
  56   60    0    0    0
SMALL
NO_CHARGES


@<TRIPOS>ATOM
   1 C1             0.8808     0.9871    -1.0967 C.3     
   2 C2             0.9227     1.5127    -2.5330 C.3     
   3 C3             0.3815     0.4428    -3.4835 C.3     
   4 O4             0.1185     2.6896    -2.6332 O.3     
   5 N5             1.5079     1.9623    -0.2013 N.pl3   
   6 C6             2.8150     1.9320     0.2024 C.2     
   7 C7             3.0660     2.9679     1.0184 C.2     
   8 C8             1.8177     3.7234     1.1479 C.ar    
   9 C9             1.4484     4.8757     1.8446 C.ar    
  10 C10            0.1665     5.3399     1.7567 C.ar    
  11 C11           -0.7726     4.6750     0.9798 C.ar    
  12 C12           -0.4299     3.5363     0.2846 C.ar    
  13 C13            0.8715     3.0494     0.3546 C.ar    
  14 C14            4.3824     3.2921     1.6765 C.3     
  15 C15            5.4313     2.2613     1.2541 C.3     
  16 O16            4.2262     3.2582     3.0965 O.3     
  17 N17            6.0908     8.4824     0.3529 N.pl3   
  18 N18            6.3392     8.9632     1.6427 N.2     
  19 C19            6.0766     8.0393     2.5232 C.2     
  20 C20            5.6213     6.8536     1.8044 C.ar    
  21 C21            5.2059     5.5769     2.1988 C.ar    
  22 C22            4.8305     4.6672     1.2530 C.ar    
  23 C23            4.8580     4.9968    -0.0966 C.ar    
  24 C24            5.2602     6.2366    -0.5060 C.ar    
  25 C25            5.6484     7.1855     0.4359 C.ar    
  26 C26            6.2604     9.2093    -0.8325 C.ar    
  27 C27            5.9933    10.5719    -0.8568 C.ar    
  28 C28            6.1611    11.2867    -2.0265 C.ar    
  29 C29            6.5954    10.6456    -3.1746 C.ar    
  30 C30            6.8623     9.2869    -3.1525 C.ar    
  31 C31            6.7012     8.5695    -1.9835 C.ar    
  32 F32            6.7585    11.3465    -4.3180 F       
  33 F33            5.5843     2.2945    -0.1361 F       
  34 F34            6.6533     2.5623     1.8650 F       
  35 F35            5.0153     0.9848     1.6472 F       
  36 H36           -0.1556     0.8322    -0.7966 H       
  37 H37            1.4206     0.0419    -1.0398 H       
  38 H38            1.9514     1.7515    -2.8026 H       
  39 H39           -0.6472     0.2040    -3.2139 H       
  40 H40            0.4114     0.8173    -4.5068 H       
  41 H41            0.9950    -0.4549    -3.4071 H       
  42 H42           -0.8114     2.5510    -2.4071 H       
  43 H43            3.5375     1.1850    -0.0917 H       
  44 H44            2.1735     5.3979     2.4512 H       
  45 H45           -0.1187     6.2310     2.2961 H       
  46 H46           -1.7821     5.0542     0.9203 H       
  47 H47           -1.1677     3.0260    -0.3168 H       
  48 H48            3.5750     3.8876     3.4356 H       
  49 H49            6.1781     8.1341     3.5943 H       
  50 H50            5.1825     5.3127     3.2457 H       
  51 H51            4.5581     4.2639    -0.8309 H       
  52 H52            5.2774     6.4800    -1.5581 H       
  53 H53            5.6543    11.0721     0.0383 H       
  54 H54            5.9532    12.3463    -2.0459 H       
  55 H55            7.2005     8.7887    -4.0491 H       
  56 H56            6.9141     7.5108    -1.9654 H       
@<TRIPOS>BOND
   1    1    2 1
   2    1    5 1
   3    1   36 1
   4    1   37 1
   5    2    3 1
   6    2    4 1
   7    2   38 1
   8    3   39 1
   9    3   40 1
  10    3   41 1
  11    4   42 1
  12    5    6 1
  13    5   13 1
  14    6    7 2
  15    6   43 1
  16    7    8 1
  17    7   14 1
  18    8    9 ar
  19    8   13 ar
  20    9   10 ar
  21    9   44 1
  22   10   11 ar
  23   10   45 1
  24   11   12 ar
  25   11   46 1
  26   12   13 ar
  27   12   47 1
  28   14   15 1
  29   14   16 1
  30   14   22 1
  31   15   33 1
  32   15   34 1
  33   15   35 1
  34   16   48 1
  35   17   18 1
  36   17   25 1
  37   17   26 1
  38   18   19 2
  39   19   20 1
  40   19   49 1
  41   20   21 ar
  42   20   25 ar
  43   21   22 ar
  44   21   50 1
  45   22   23 ar
  46   23   24 ar
  47   23   51 1
  48   24   25 ar
  49   24   52 1
  50   26   27 ar
  51   26   31 ar
  52   27   28 ar
  53   27   53 1
  54   28   29 ar
  55   28   54 1
  56   29   30 ar
  57   29   32 1
  58   30   31 ar
  59   30   55 1
  60   31   56 1

#	End of record

