#	Name: ASD09116318
#	Creating user name:	WinNT
#	Creation time:	15. 06. 2019 21:21

#	Modifying user name:	WinNT
#	Modification time:	15. 06. 2019 21:21

#	Program:	/corina/corina34_cracker 3.40 0067  02.08.2006

@<TRIPOS>MOLECULE
ASD09116318
  64   69    0    0    0
SMALL
NO_CHARGES


@<TRIPOS>ATOM
   1 N1            -0.0295     1.4181     0.1435 N.2     
   2 N2            -0.0207     0.0189     0.2631 N.pl3   
   3 C3             1.2219     1.8083     0.1145 C.2     
   4 N4             2.0182     0.7369     0.2088 N.2     
   5 C5             1.2869    -0.3530     0.2994 C.2     
   6 N6             1.7626    -1.6451     0.4115 N.pl3   
   7 C7            -1.1298    -0.8204     0.3310 C.ar    
   8 N8             1.6542     3.1294     0.0024 N.pl3   
   9 C9             3.0187     3.4300     0.0967 C.ar    
  10 C10            3.5367     4.5261    -0.5807 C.ar    
  11 C11            3.8528     2.6353     0.8723 C.ar    
  12 C12            5.1981     2.9317     0.9653 C.ar    
  13 C13            5.7171     4.0247     0.2837 C.ar    
  14 N14           -2.3429    -0.2893     0.2809 N.ar    
  15 C15           -3.4127    -1.0703     0.3439 C.ar    
  16 C16           -3.2475    -2.4533     0.4426 C.ar    
  17 C17           -1.9675    -2.9649     0.5013 C.ar    
  18 N18           -0.9422    -2.1266     0.4383 N.ar    
  19 N19            7.0808     4.3254     0.3783 N.3     
  20 C20            7.4143     5.5152    -0.4171 C.3     
  21 C21            8.8937     5.8565    -0.2242 C.3     
  22 N22            9.7157     4.7079    -0.6300 N.3     
  23 C23            9.3823     3.5180     0.1654 C.3     
  24 C24            7.9028     3.1768    -0.0275 C.3     
  25 C25           11.1469     5.0234    -0.5307 C.3     
  26 C26            4.8821     4.8225    -0.4876 C.ar    
  27 C27           -4.7867    -0.5199     0.3421 C.ar    
  28 C28           -5.6862    -0.9511     1.3191 C.ar    
  29 C29           -5.2204    -1.9160     2.3747 C.3     
  30 C30           -5.1237    -3.3376     1.8275 C.3     
  31 C31           -4.4551    -3.3454     0.4556 C.3     
  32 C32           -5.1889     0.4079    -0.6123 C.ar    
  33 C33           -6.4855     0.8845    -0.5990 C.ar    
  34 C34           -7.3792     0.4390     0.3580 C.ar    
  35 C35           -6.9806    -0.4781     1.3151 C.ar    
  36 H36            2.7182    -1.8103     0.4285 H       
  37 H37            1.1409    -2.3871     0.4731 H       
  38 H38            1.0098     3.8401    -0.1410 H       
  39 H39            2.8873     5.1465    -1.1805 H       
  40 H40            3.4490     1.7857     1.4029 H       
  41 H41            5.8468     2.3137     1.5684 H       
  42 H42           -1.8038    -4.0285     0.5927 H       
  43 H43            7.2220     5.3137    -1.4710 H       
  44 H44            6.8016     6.3551    -0.0895 H       
  45 H45            9.1502     6.7214    -0.8359 H       
  46 H46            9.0804     6.0846     0.8252 H       
  47 H47            9.9949     2.6782    -0.1622 H       
  48 H48            9.5745     3.7196     1.2193 H       
  49 H49            7.6463     2.3118     0.5842 H       
  50 H50            7.7161     2.9487    -1.0769 H       
  51 H51           11.3914     5.2815     0.4997 H       
  52 H52           11.7323     4.1564    -0.8368 H       
  53 H53           11.3791     5.8666    -1.1813 H       
  54 H54            5.2858     5.6723    -1.0180 H       
  55 H55           -4.2395    -1.6049     2.7340 H       
  56 H56           -5.9246    -1.9014     3.2065 H       
  57 H57           -4.5382    -3.9477     2.5154 H       
  58 H58           -6.1258    -3.7576     1.7406 H       
  59 H59           -5.1671    -2.9955    -0.2918 H       
  60 H60           -4.1513    -4.3632     0.2109 H       
  61 H61           -4.4912     0.7540    -1.3605 H       
  62 H62           -6.8018     1.6066    -1.3371 H       
  63 H63           -8.3940     0.8087     0.3583 H       
  64 H64           -7.6839    -0.8228     2.0587 H       
@<TRIPOS>BOND
   1    1    2 1
   2    1    3 2
   3    2    7 1
   4    2    5 1
   5    3    4 1
   6    3    8 1
   7    4    5 2
   8    5    6 1
   9    6   36 1
  10    6   37 1
  11    7   14 ar
  12    7   18 ar
  13    8    9 1
  14    8   38 1
  15    9   10 ar
  16    9   11 ar
  17   10   26 ar
  18   10   39 1
  19   11   12 ar
  20   11   40 1
  21   12   13 ar
  22   12   41 1
  23   13   26 ar
  24   13   19 1
  25   14   15 ar
  26   15   16 ar
  27   15   27 1
  28   16   17 ar
  29   16   31 1
  30   17   18 ar
  31   17   42 1
  32   19   20 1
  33   19   24 1
  34   20   21 1
  35   20   43 1
  36   20   44 1
  37   21   22 1
  38   21   45 1
  39   21   46 1
  40   22   23 1
  41   22   25 1
  42   23   24 1
  43   23   47 1
  44   23   48 1
  45   24   49 1
  46   24   50 1
  47   25   51 1
  48   25   52 1
  49   25   53 1
  50   26   54 1
  51   27   28 ar
  52   27   32 ar
  53   28   29 1
  54   28   35 ar
  55   29   30 1
  56   29   55 1
  57   29   56 1
  58   30   31 1
  59   30   57 1
  60   30   58 1
  61   31   59 1
  62   31   60 1
  63   32   33 ar
  64   32   61 1
  65   33   34 ar
  66   33   62 1
  67   34   35 ar
  68   34   63 1
  69   35   64 1

#	End of record

