#	Name: ASD07030087
#	Creating user name:	WinNT
#	Creation time:	15. 06. 2019 21:08

#	Modifying user name:	WinNT
#	Modification time:	15. 06. 2019 21:08

#	Program:	/corina/corina34_cracker 3.40 0067  02.08.2006

@<TRIPOS>MOLECULE
ASD07030087
  72   74    0    0    0
SMALL
NO_CHARGES


@<TRIPOS>ATOM
   1 N1            -0.0179     1.4702     0.0101 N.3     
   2 C2             0.0021    -0.0041     0.0020 C.3     
   3 C3             1.4820    -0.4413     0.0110 C.3     
   4 C4             2.2089     0.7978     0.5967 C.3     
   5 C5             1.3770     1.9600    -0.0006 C.3     
   6 N6             1.6723    -1.6126     0.8769 N.3     
   7 C7            -0.7682     1.9929    -1.1396 C.3     
   8 C8            -0.9813     3.4982    -0.9679 C.3     
   9 N9            -1.7316     4.0208    -2.1176 N.3     
  10 C10           -1.9554     5.4668    -1.9869 C.3     
  11 C11           -2.1713     6.2673    -3.2727 C.3     
  12 C12           -3.3474     6.0001    -2.3313 C.3     
  13 C13           -0.1777     9.3065    -4.3188 C.ar    
  14 C14           -0.6856     8.0101    -4.2742 C.ar    
  15 C15           -1.6222     7.6700    -3.3196 C.ar    
  16 C16           -2.0595     8.6124    -2.4054 C.ar    
  17 C17           -1.5623     9.9012    -2.4407 C.ar    
  18 C18           -0.6213    10.2564    -3.3940 C.ar    
  19 C19            0.8338     9.6757    -5.3390 C.ar    
  20 C20            0.6555    10.8161    -6.1199 C.ar    
  21 C21            1.5999    11.1548    -7.0677 C.ar    
  22 C22            2.7216    10.3648    -7.2432 C.ar    
  23 C23            2.9035     9.2315    -6.4712 C.ar    
  24 C24            1.9688     8.8866    -5.5162 C.ar    
  25 C25            3.7493    10.7398    -8.2797 C.3     
  26 F26            4.7129    11.5727    -7.7010 F       
  27 F27            4.3653     9.5817    -8.7660 F       
  28 F28            3.1236    11.4132    -9.3344 F       
  29 O29           -0.1314    11.5229    -3.4294 O.3     
  30 C30           -0.6309    12.4393    -2.4533 C.3     
  31 C31            0.0216    13.7839    -2.6463 C.ar    
  32 C32           -0.5572    14.7193    -3.4834 C.ar    
  33 C33            0.0413    15.9527    -3.6605 C.ar    
  34 C34            1.2186    16.2508    -3.0000 C.ar    
  35 C35            1.7969    15.3157    -2.1622 C.ar    
  36 C36            1.1960    14.0839    -1.9818 C.ar    
  37 H37           -0.5030    -0.3866     0.8889 H       
  38 H38           -0.4892    -0.3766    -0.8968 H       
  39 H39            1.8287    -0.6487    -1.0014 H       
  40 H40            2.1590     0.8012     1.6856 H       
  41 H41            3.2429     0.8417     0.2547 H       
  42 H42            1.6974     2.1707    -1.0209 H       
  43 H43            1.4709     2.8516     0.6194 H       
  44 H44            2.6388    -1.9023     0.8860 H       
  45 H45            1.3411    -1.4285     1.8121 H       
  46 H46           -0.2061     1.8076    -2.0549 H       
  47 H47           -1.7352     1.4935    -1.1997 H       
  48 H48           -1.5434     3.6835    -0.0526 H       
  49 H49           -0.0143     3.9975    -0.9077 H       
  50 H50           -1.2623     3.8045    -2.9842 H       
  51 H51           -1.4163     5.9546    -1.1748 H       
  52 H52           -2.1472     5.7211    -4.2157 H       
  53 H53           -4.0972     5.2781    -2.6550 H       
  54 H54           -3.7241     6.8389    -1.7459 H       
  55 H55           -0.3469     7.2721    -4.9863 H       
  56 H56           -2.7931     8.3395    -1.6612 H       
  57 H57           -1.9076    10.6324    -1.7248 H       
  58 H58           -0.2201    11.4335    -5.9839 H       
  59 H59            1.4626    12.0382    -7.6737 H       
  60 H60            3.7811     8.6180    -6.6127 H       
  61 H61            2.1141     8.0042    -4.9107 H       
  62 H62           -1.7103    12.5394    -2.5678 H       
  63 H63           -0.4046    12.0655    -1.4547 H       
  64 H64           -1.4770    14.4864    -3.9994 H       
  65 H65           -0.4105    16.6833    -4.3150 H       
  66 H66            1.6866    17.2142    -3.1389 H       
  67 H67            2.7169    15.5485    -1.6465 H       
  68 H68            1.6460    13.3547    -1.3243 H       
  69 Cl69           9.7129    22.2142     6.8121 Cl      
  70 H70            9.7129    23.5842     6.8121 H       
  71 Cl71          14.7129    28.5842    11.8121 Cl      
  72 H72           14.7129    29.9542    11.8121 H       
@<TRIPOS>BOND
   1    1    2 1
   2    1    5 1
   3    1    7 1
   4    2    3 1
   5    2   37 1
   6    2   38 1
   7    3    4 1
   8    3    6 1
   9    3   39 1
  10    4    5 1
  11    4   40 1
  12    4   41 1
  13    5   42 1
  14    5   43 1
  15    6   44 1
  16    6   45 1
  17    7    8 1
  18    7   46 1
  19    7   47 1
  20    8    9 1
  21    8   48 1
  22    8   49 1
  23    9   10 1
  24    9   50 1
  25   10   11 1
  26   10   12 1
  27   10   51 1
  28   11   12 1
  29   11   15 1
  30   11   52 1
  31   12   53 1
  32   12   54 1
  33   13   14 ar
  34   13   18 ar
  35   13   19 1
  36   14   15 ar
  37   14   55 1
  38   15   16 ar
  39   16   17 ar
  40   16   56 1
  41   17   18 ar
  42   17   57 1
  43   18   29 1
  44   19   20 ar
  45   19   24 ar
  46   20   21 ar
  47   20   58 1
  48   21   22 ar
  49   21   59 1
  50   22   23 ar
  51   22   25 1
  52   23   24 ar
  53   23   60 1
  54   24   61 1
  55   25   26 1
  56   25   27 1
  57   25   28 1
  58   29   30 1
  59   30   31 1
  60   30   62 1
  61   30   63 1
  62   31   32 ar
  63   31   36 ar
  64   32   33 ar
  65   32   64 1
  66   33   34 ar
  67   33   65 1
  68   34   35 ar
  69   34   66 1
  70   35   36 ar
  71   35   67 1
  72   36   68 1
  73   69   70 1
  74   71   72 1

#	End of record

