#	Name: ASD01510037
#	Creating user name:	WinNT
#	Creation time:	15. 06. 2019 19:21

#	Modifying user name:	WinNT
#	Modification time:	15. 06. 2019 19:21

#	Program:	/corina/corina34_cracker 3.40 0067  02.08.2006

@<TRIPOS>MOLECULE
ASD01510037
  50   52    0    0    0
SMALL
NO_CHARGES


@<TRIPOS>ATOM
   1 C1            -0.0187     1.5258     0.0104 C.3     
   2 C2             0.0021    -0.0041     0.0020 C.3     
   3 O3             0.6709    -0.4649    -1.1737 O.3     
   4 C4             0.7765    -1.8073    -1.3358 C.ar    
   5 N5             0.2728    -2.6372    -0.4285 N.ar    
   6 C6             0.3716    -3.9491    -0.5792 C.ar    
   7 N7             0.9708    -4.4879    -1.6300 N.ar    
   8 C8             1.4991    -3.7230    -2.5795 C.ar    
   9 C9             1.4104    -2.3361    -2.4601 C.ar    
  10 S10            2.0943    -1.2783    -3.6922 S.3     
  11 C11            0.7043    -1.1173    -4.7630 C.ar    
  12 N12            0.8123    -0.3714    -5.8531 N.ar    
  13 C13           -0.2166    -0.2274    -6.6849 C.ar    
  14 N14           -0.0952     0.5543    -7.8233 N.pl3   
  15 C15           -1.4160    -0.8724    -6.3971 C.ar    
  16 C16           -1.4917    -1.6473    -5.2432 C.ar    
  17 N17           -0.4204    -1.7497    -4.4603 N.ar    
  18 N18           -2.6659    -2.3078    -4.9166 N.pl3   
  19 O19            2.1111    -4.2831    -3.6525 O.3     
  20 C20            2.1545    -5.7105    -3.7027 C.3     
  21 C21            2.8782    -6.1543    -4.9756 C.3     
  22 N22           -0.1666    -4.7814     0.3901 N.3     
  23 C23            0.0427    -6.1952     0.0458 C.3     
  24 C24           -0.5123    -7.0758     1.1685 C.3     
  25 O25           -1.8939    -6.7667     1.3712 O.3     
  26 C26           -2.1340    -5.3978     1.7088 C.3     
  27 C27           -1.5954    -4.5003     0.5916 C.3     
  28 H28            1.0039     1.9031     0.0027 H       
  29 H29           -0.5459     1.8868    -0.8726 H       
  30 H30           -0.5289     1.8773     0.9072 H       
  31 H31            0.5293    -0.3651     0.8851 H       
  32 H32           -1.0205    -0.3814     0.0098 H       
  33 H33            0.7437     1.0008    -8.0178 H       
  34 H34           -0.8491     0.6549    -8.4252 H       
  35 H35           -2.2680    -0.7738    -7.0535 H       
  36 H36           -3.4418    -2.2317    -5.4938 H       
  37 H37           -2.7116    -2.8460    -4.1110 H       
  38 H38            2.6882    -6.0887    -2.8308 H       
  39 H39            1.1384    -6.1050    -3.7062 H       
  40 H40            2.3446    -5.7761    -5.8476 H       
  41 H41            3.8943    -5.7598    -4.9722 H       
  42 H42            2.9113    -7.2431    -5.0139 H       
  43 H43           -0.4754    -6.4235    -0.8857 H       
  44 H44            1.1090    -6.3868    -0.0737 H       
  45 H45           -0.4110    -8.1253     0.8918 H       
  46 H46            0.0418    -6.8860     2.0877 H       
  47 H47           -3.2055    -5.2337     1.8229 H       
  48 H48           -1.6270    -5.1592     2.6437 H       
  49 H49           -1.7248    -3.4545     0.8706 H       
  50 H50           -2.1396    -4.7014    -0.3311 H       
@<TRIPOS>BOND
   1    1    2 1
   2    1   28 1
   3    1   29 1
   4    1   30 1
   5    2    3 1
   6    2   31 1
   7    2   32 1
   8    3    4 1
   9    4    5 ar
  10    4    9 ar
  11    5    6 ar
  12    6    7 ar
  13    6   22 1
  14    7    8 ar
  15    8    9 ar
  16    8   19 1
  17    9   10 1
  18   10   11 1
  19   11   12 ar
  20   11   17 ar
  21   12   13 ar
  22   13   14 1
  23   13   15 ar
  24   14   33 1
  25   14   34 1
  26   15   16 ar
  27   15   35 1
  28   16   17 ar
  29   16   18 1
  30   18   36 1
  31   18   37 1
  32   19   20 1
  33   20   21 1
  34   20   38 1
  35   20   39 1
  36   21   40 1
  37   21   41 1
  38   21   42 1
  39   22   23 1
  40   22   27 1
  41   23   24 1
  42   23   43 1
  43   23   44 1
  44   24   25 1
  45   24   45 1
  46   24   46 1
  47   25   26 1
  48   26   27 1
  49   26   47 1
  50   26   48 1
  51   27   49 1
  52   27   50 1

#	End of record

