#	Name: ASD03090590
#	Creating user name:	WinNT
#	Creation time:	15. 06. 2019 20:29

#	Modifying user name:	WinNT
#	Modification time:	15. 06. 2019 20:29

#	Program:	/corina/corina34_cracker 3.40 0067  02.08.2006

@<TRIPOS>MOLECULE
ASD03090590
  32   33    0    0    0
SMALL
NO_CHARGES


@<TRIPOS>ATOM
   1 N1            -0.0162     1.3436     0.0094 N.am    
   2 C2             0.0194     0.1476     0.6299 C.2     
   3 O3             1.0729    -0.2853     1.0556 O.2     
   4 N4            -1.1127    -0.5684     0.7786 N.am    
   5 S5            -2.4310    -2.8126     1.6753 S.3     
   6 C6            -1.0759    -1.8022     1.4187 C.2     
   7 N7            -0.0097    -2.3532     1.9069 N.2     
   8 C8            -0.1566    -3.5327     2.4833 C.2     
   9 C9            -1.4076    -3.9989     2.4810 C.2     
  10 Cl10          -1.9340    -5.5100     3.1541 Cl      
  11 C11            1.1453     2.1274    -0.0708 C.ar    
  12 C12            1.0452     3.5108    -0.1993 C.ar    
  13 C13            2.1928     4.2818    -0.2783 C.ar    
  14 C14            3.4394     3.6758    -0.2294 C.ar    
  15 C15            3.5377     2.2977    -0.1018 C.ar    
  16 C16            2.3934     1.5260    -0.0165 C.ar    
  17 O17            4.5663     4.4330    -0.3069 O.3     
  18 C18            4.3913     5.8452    -0.4377 C.3     
  19 O19           -0.1779     4.1034    -0.2476 O.3     
  20 C20           -0.2047     5.5260    -0.3803 C.3     
  21 Br21           5.2389     1.4745    -0.0365 Br      
  22 H22           -0.8436     1.6607    -0.3852 H       
  23 H23           -1.9531    -0.2230     0.4390 H       
  24 H24            0.6683    -4.0760     2.9203 H       
  25 H25            2.1171     5.3545    -0.3784 H       
  26 H26            2.4719     0.4539     0.0877 H       
  27 H27            3.8315     6.0592    -1.3481 H       
  28 H28            3.8423     6.2246     0.4241 H       
  29 H29            5.3668     6.3290    -0.4888 H       
  30 H30           -1.2390     5.8690    -0.4064 H       
  31 H31            0.3072     5.9797     0.4683 H       
  32 H32            0.2971     5.8143    -1.3039 H       
@<TRIPOS>BOND
   1    1    2 am
   2    1   11 1
   3    1   22 1
   4    2    3 2
   5    2    4 am
   6    4    6 1
   7    4   23 1
   8    5    6 1
   9    5    9 1
  10    6    7 2
  11    7    8 1
  12    8    9 2
  13    8   24 1
  14    9   10 1
  15   11   12 ar
  16   11   16 ar
  17   12   13 ar
  18   12   19 1
  19   13   14 ar
  20   13   25 1
  21   14   15 ar
  22   14   17 1
  23   15   16 ar
  24   15   21 1
  25   16   26 1
  26   17   18 1
  27   18   27 1
  28   18   28 1
  29   18   29 1
  30   19   20 1
  31   20   30 1
  32   20   31 1
  33   20   32 1

#	End of record

