#	Name: ASD01001229
#	Creating user name:	WinNT
#	Creation time:	15. 06. 2019 18:55

#	Modifying user name:	WinNT
#	Modification time:	15. 06. 2019 18:55

#	Program:	/corina/corina34_cracker 3.40 0067  02.08.2006

@<TRIPOS>MOLECULE
ASD01001229
  52   56    0    0    0
SMALL
NO_CHARGES


@<TRIPOS>ATOM
   1 C1            -0.0268     0.4245     0.3771 C.ar    
   2 C2             0.2156    -0.9374     0.4432 C.ar    
   3 C3             1.4949    -1.4641     0.3892 C.ar    
   4 C4             2.5451    -0.5575     0.2629 C.ar    
   5 C5             2.2906     0.8361     0.1943 C.ar    
   6 C6             0.9886     1.3410     0.2525 C.ar    
   7 N7             3.8972    -0.7272     0.1836 N.pl3   
   8 C8             4.5089     0.4917     0.0614 C.2     
   9 C9             3.5865     1.4771     0.0660 C.2     
  10 C10            5.9990     0.7368    -0.0734 C.3     
  11 N11            6.1863     2.1908     0.0033 N.am    
  12 C12            5.2687     3.1612    -0.6337 C.3     
  13 C13            3.8725     2.9544    -0.0347 C.3     
  14 C14            7.1376     2.8926     0.6222 C.2     
  15 N15            6.9275     4.2140     0.5368 N.am    
  16 C16            5.8235     4.4975    -0.1842 C.2     
  17 O17            5.3690     5.5956    -0.4238 O.2     
  18 O18            8.0842     2.3920     1.1972 O.2     
  19 C19            7.7907     5.2255     1.1515 C.3     
  20 C20            8.8884     5.6273     0.1644 C.3     
  21 C21            9.7899     6.6838     0.8064 C.3     
  22 C22           10.8876     7.0855    -0.1808 C.3     
  23 C23            6.4900     0.2213    -1.4016 C.ar    
  24 C24            6.0537     0.8079    -2.5735 C.ar    
  25 C25            6.5065     0.3330    -3.7961 C.ar    
  26 C26            7.3965    -0.7301    -3.8380 C.ar    
  27 C27            7.8299    -1.3134    -2.6629 C.ar    
  28 C28            7.3814    -0.8350    -1.4459 C.ar    
  29 O29            6.0783     0.9082    -4.9506 O.3     
  30 H30           -1.0468     0.7768     0.4203 H       
  31 H31           -0.6222    -1.6119     0.5407 H       
  32 H32            1.6706    -2.5284     0.4428 H       
  33 H33            0.7904     2.4015     0.2012 H       
  34 H34            4.3552    -1.5818     0.2102 H       
  35 H35            6.5339     0.2472     0.7403 H       
  36 H36            5.2593     3.0559    -1.7186 H       
  37 H37            3.1280     3.4261    -0.6761 H       
  38 H38            3.8330     3.4012     0.9587 H       
  39 H39            7.1963     6.1018     1.4103 H       
  40 H40            8.2454     4.8157     2.0534 H       
  41 H41            9.4829     4.7511    -0.0944 H       
  42 H42            8.4338     6.0372    -0.7375 H       
  43 H43            9.1955     7.5600     1.0651 H       
  44 H44           10.2446     6.2739     1.7082 H       
  45 H45           11.5299     7.8382     0.2765 H       
  46 H46           11.4821     6.2093    -0.4396 H       
  47 H47           10.4330     7.4954    -1.0827 H       
  48 H48            5.3604     1.6352    -2.5383 H       
  49 H49            7.7501    -1.1017    -4.7884 H       
  50 H50            8.5229    -2.1411    -2.6951 H       
  51 H51            7.7213    -1.2924    -0.5285 H       
  52 H52            6.6318     1.6409    -5.2537 H       
@<TRIPOS>BOND
   1    1    2 ar
   2    1    6 ar
   3    1   30 1
   4    2    3 ar
   5    2   31 1
   6    3    4 ar
   7    3   32 1
   8    4    5 ar
   9    4    7 1
  10    5    6 ar
  11    5    9 1
  12    6   33 1
  13    7    8 1
  14    7   34 1
  15    8    9 2
  16    8   10 1
  17    9   13 1
  18   10   11 1
  19   10   23 1
  20   10   35 1
  21   11   12 1
  22   11   14 am
  23   12   13 1
  24   12   16 1
  25   12   36 1
  26   13   37 1
  27   13   38 1
  28   14   15 am
  29   14   18 2
  30   15   16 am
  31   15   19 1
  32   16   17 2
  33   19   20 1
  34   19   39 1
  35   19   40 1
  36   20   21 1
  37   20   41 1
  38   20   42 1
  39   21   22 1
  40   21   43 1
  41   21   44 1
  42   22   45 1
  43   22   46 1
  44   22   47 1
  45   23   24 ar
  46   23   28 ar
  47   24   25 ar
  48   24   48 1
  49   25   26 ar
  50   25   29 1
  51   26   27 ar
  52   26   49 1
  53   27   28 ar
  54   27   50 1
  55   28   51 1
  56   29   52 1

#	End of record

