#	Name: ASD08150685
#	Creating user name:	WinNT
#	Creation time:	15. 06. 2019 21:16

#	Modifying user name:	WinNT
#	Modification time:	15. 06. 2019 21:16

#	Program:	/corina/corina34_cracker 3.40 0067  02.08.2006

@<TRIPOS>MOLECULE
ASD08150685
  49   50    0    0    0
SMALL
NO_CHARGES


@<TRIPOS>ATOM
   1 C1             0.0001     1.4759     0.0227 C.3     
   2 C2             3.6996     1.7974    -0.6605 C.ar    
   3 C3             3.9987     2.9932    -0.0239 C.ar    
   4 C4             2.9927     3.6998     0.6313 C.ar    
   5 C5             1.6988     3.2048     0.6438 C.ar    
   6 C6             1.4083     2.0124     0.0072 C.ar    
   7 C7             2.4064     1.3105    -0.6433 C.ar    
   8 N8             5.3090     3.4886    -0.0395 N.am    
   9 C9             5.9979     3.5359    -1.1969 C.2     
  10 N10            7.2244     4.0937    -1.2289 N.am    
  11 S11            5.3149     2.8873    -2.6266 S.2     
  12 C12            7.9132     4.1409    -2.3864 C.2     
  13 C13            9.2580     4.7525    -2.4214 C.ar    
  14 O14            7.4284     3.6806    -3.4012 O.2     
  15 C15            9.8178     5.2823    -1.2575 C.ar    
  16 C16           11.0740     5.8514    -1.2972 C.ar    
  17 C17           11.7785     5.8979    -2.4869 C.ar    
  18 C18           11.2294     5.3745    -3.6444 C.ar    
  19 C19            9.9768     4.7979    -3.6177 C.ar    
  20 C20           12.0041     5.4301    -4.9358 C.3     
  21 C21           12.8569     4.1673    -5.0737 C.3     
  22 C22            2.0830     0.0117    -1.3357 C.3     
  23 C23            1.5677     0.3006    -2.7471 C.3     
  24 O24            3.2800     4.8722     1.2574 O.3     
  25 C25           -0.1529     0.4781     1.1725 C.3     
  26 F26            0.1148     1.1205     2.3861 F       
  27 F27           -1.4602    -0.0199     1.1869 F       
  28 F28            0.7468    -0.5785     0.9957 F       
  29 H29           -0.7009     2.2992     0.1605 H       
  30 H30           -0.2085     0.9755    -0.9228 H       
  31 H31            4.4764     1.2494    -1.1731 H       
  32 H32            0.9169     3.7505     1.1510 H       
  33 H33            5.7205     3.7976     0.7828 H       
  34 H34            7.6113     4.4611    -0.4189 H       
  35 H35            9.2687     5.2470    -0.3282 H       
  36 H36           11.5082     6.2620    -0.3976 H       
  37 H37           12.7614     6.3448    -2.5125 H       
  38 H38            9.5494     4.3899    -4.5217 H       
  39 H39           11.3097     5.4928    -5.7737 H       
  40 H40           12.6513     6.3071    -4.9339 H       
  41 H41           13.4173     4.2074    -6.0078 H       
  42 H42           13.5514     4.1046    -4.2359 H       
  43 H43           12.2098     3.2902    -5.0756 H       
  44 H44            2.9820    -0.6018    -1.3957 H       
  45 H45            1.3172    -0.5202    -0.7712 H       
  46 H46            1.3338    -0.6388    -3.2479 H       
  47 H47            0.6687     0.9141    -2.6872 H       
  48 H48            2.3335     0.8325    -3.3117 H       
  49 H49            3.1876     5.6522     0.6934 H       
@<TRIPOS>BOND
   1    1   25 1
   2    1    6 1
   3    1   29 1
   4    1   30 1
   5    2    3 ar
   6    2    7 ar
   7    2   31 1
   8    3    4 ar
   9    3    8 1
  10    4    5 ar
  11    4   24 1
  12    5    6 ar
  13    5   32 1
  14    6    7 ar
  15    7   22 1
  16    8    9 am
  17    8   33 1
  18    9   10 am
  19    9   11 2
  20   10   12 am
  21   10   34 1
  22   12   13 1
  23   12   14 2
  24   13   15 ar
  25   13   19 ar
  26   15   16 ar
  27   15   35 1
  28   16   17 ar
  29   16   36 1
  30   17   18 ar
  31   17   37 1
  32   18   19 ar
  33   18   20 1
  34   19   38 1
  35   20   21 1
  36   20   39 1
  37   20   40 1
  38   21   41 1
  39   21   42 1
  40   21   43 1
  41   22   23 1
  42   22   44 1
  43   22   45 1
  44   23   46 1
  45   23   47 1
  46   23   48 1
  47   24   49 1
  48   25   26 1
  49   25   27 1
  50   25   28 1

#	End of record

