#	Name: ASD01918374
#	Creating user name:	WinNT
#	Creation time:	15. 06. 2019 20:11

#	Modifying user name:	WinNT
#	Modification time:	15. 06. 2019 20:11

#	Program:	/corina/corina34_cracker 3.40 0067  02.08.2006

@<TRIPOS>MOLECULE
ASD01918374
  45   47    0    0    0
SMALL
NO_CHARGES


@<TRIPOS>ATOM
   1 Cl1            0.0000     0.0000     0.0000 Cl      
   2 H2             0.0000     1.3700     0.0000 H       
   3 C3             6.9363    10.5330     5.8831 C.3     
   4 N4             6.9562     9.0642     5.8750 N.3     
   5 C5             5.5822     8.5125     5.9959 C.3     
   6 C6             5.7858     7.0704     6.5081 C.3     
   7 C7             7.1581     7.0851     7.2124 C.3     
   8 C8             7.6683     8.5349     7.0665 C.3     
   9 C9             9.1577     8.5473     6.8373 C.2     
  10 N10           10.0732     8.9266     7.6935 N.2     
  11 C11           11.2553     8.7668     7.0560 C.2     
  12 N12           10.9901     8.3042     5.8615 N.2     
  13 O13            9.7927     8.1679     5.7239 O.3     
  14 C14           12.6001     9.0612     7.6077 C.ar    
  15 C15           12.7280     9.5487     8.9086 C.ar    
  16 C16           13.9751     9.8221     9.4225 C.ar    
  17 C17           15.1147     9.6110     8.6396 C.ar    
  18 C18           14.9845     9.1222     7.3356 C.ar    
  19 C19           13.7360     8.8450     6.8271 C.ar    
  20 C20           16.4132     9.8953     9.1722 C.1     
  21 C21           17.4777    10.1284     9.6090 C.1     
  22 C22           18.7762    10.4128    10.1416 C.ar    
  23 C23           18.9290    10.8981    11.4479 C.ar    
  24 C24           20.1983    11.1577    11.9196 C.ar    
  25 N25           21.2585    10.9554    11.1603 N.ar    
  26 C26           21.1603    10.4999     9.9256 C.ar    
  27 C27           19.9310    10.2082     9.3737 C.ar    
  28 H28            7.9589    10.9103     5.8753 H       
  29 H29            6.4091    10.8941     5.0000 H       
  30 H30            6.4261    10.8846     6.7799 H       
  31 H31            5.0015     9.0922     6.7134 H       
  32 H32            5.0888     8.5046     5.0240 H       
  33 H33            5.0000     6.8054     7.2155 H       
  34 H34            5.7963     6.3700     5.6729 H       
  35 H35            7.0460     6.8274     8.2655 H       
  36 H36            7.8423     6.3920     6.7229 H       
  37 H37            7.4141     9.1182     7.9515 H       
  38 H38           11.8477     9.7120     9.5127 H       
  39 H39           14.0737    10.1998    10.4294 H       
  40 H40           15.8633     8.9589     6.7295 H       
  41 H41           13.6352     8.4636     5.8217 H       
  42 H42           18.0659    11.0664    12.0749 H       
  43 H43           20.3266    11.5322    12.9244 H       
  44 H44           22.0557    10.3496     9.3407 H       
  45 H45           19.8586     9.8313     8.3642 H       
@<TRIPOS>BOND
   1    1    2 1
   2    3    4 1
   3    3   28 1
   4    3   29 1
   5    3   30 1
   6    4    8 1
   7    4    5 1
   8    5    6 1
   9    5   31 1
  10    5   32 1
  11    6    7 1
  12    6   33 1
  13    6   34 1
  14    7    8 1
  15    7   35 1
  16    7   36 1
  17    8    9 1
  18    8   37 1
  19    9   13 1
  20    9   10 2
  21   10   11 1
  22   11   12 2
  23   11   14 1
  24   12   13 1
  25   14   19 ar
  26   14   15 ar
  27   15   16 ar
  28   15   38 1
  29   16   17 ar
  30   16   39 1
  31   17   18 ar
  32   17   20 1
  33   18   19 ar
  34   18   40 1
  35   19   41 1
  36   20   21 3
  37   21   22 1
  38   22   27 ar
  39   22   23 ar
  40   23   24 ar
  41   23   42 1
  42   24   25 ar
  43   24   43 1
  44   25   26 ar
  45   26   27 ar
  46   26   44 1
  47   27   45 1

#	End of record

