#	Name: ASD01209228
#	Creating user name:	WinNT
#	Creation time:	15. 06. 2019 19:11

#	Modifying user name:	WinNT
#	Modification time:	15. 06. 2019 19:11

#	Program:	/corina/corina34_cracker 3.40 0067  02.08.2006

@<TRIPOS>MOLECULE
ASD01209228
  76   78    0    0    0
SMALL
NO_CHARGES


@<TRIPOS>ATOM
   1 O1             1.5287    -0.6095     0.8611 O.3     
   2 O2             3.4263     0.6881     2.1370 O.3     
   3 C3             9.9028     8.5370     0.4335 C.ar    
   4 C4             9.5425     9.7280    -0.1780 C.ar    
   5 C5             8.2344    10.1797    -0.0941 C.ar    
   6 C6             7.2889     9.4387     0.6016 C.ar    
   7 C7             7.6505     8.2523     1.2099 C.ar    
   8 C8             8.9526     7.7972     1.1229 C.ar    
   9 C9             5.9587     6.4747     1.0265 C.2     
  10 N10            4.9988     5.6464     1.4838 N.am    
  11 O11            6.2885     6.4352    -0.1399 O.2     
  12 C12            4.3868     4.7469     0.6186 C.2     
  13 P13            2.6708     0.5171     0.7255 P.3     
  14 O14            3.6463     0.1087    -0.3098 O.2     
  15 C15            1.9071     2.1024     0.2492 C.3     
  16 N16            3.4563     3.9095     0.9546 N.2     
  17 S17            4.7469     4.5892    -1.0453 S.3     
  18 C18            3.5437     3.3110    -1.1952 C.2     
  19 C19            2.9856     3.1256     0.0027 C.2     
  20 C20            1.8188    -1.9844     1.1212 C.3     
  21 C21            0.5120    -2.7774     1.1884 C.3     
  22 C22            4.2115    -0.3481     2.7300 C.3     
  23 C23            4.7840     0.1440     4.0608 C.3     
  24 O24           11.1842     8.0917     0.3531 O.3     
  25 C25           12.1335     8.9567    -0.2734 C.3     
  26 C26           12.0981     8.7414    -1.7878 C.3     
  27 C27           13.5351     8.6428     0.2537 C.3     
  28 O28           13.9083     7.3216    -0.1428 O.3     
  29 C29           15.2080     6.9269     0.3010 C.3     
  30 C30            6.6221     7.4499     1.9645 C.3     
  31 O31            7.8783    11.3468    -0.6920 O.3     
  32 C32            6.5763    11.7292    -0.6199 C.ar    
  33 C33            6.0880    12.3184     0.5375 C.ar    
  34 C34            5.7343    11.5363    -1.7058 C.ar    
  35 C35            4.4113    11.9263    -1.6301 C.ar    
  36 C36            3.9259    12.5085    -0.4737 C.ar    
  37 C37            4.7642    12.7066     0.6080 C.ar    
  38 S38            2.2380    13.0054    -0.3807 S.o2    
  39 C39            1.3713    11.5463     0.2601 C.3     
  40 O40            2.2329    14.0509     0.5816 O.2     
  41 O41            1.8700    13.2508    -1.7311 O.2     
  42 H42           10.2797    10.3032    -0.7185 H       
  43 H43            6.2697     9.7900     0.6673 H       
  44 H44            9.2328     6.8694     1.5993 H       
  45 H45            4.7350     5.6780     2.4167 H       
  46 H46            1.3219     1.9650    -0.6602 H       
  47 H47            1.2554     2.4475     1.0519 H       
  48 H48            3.2981     2.7739    -2.0994 H       
  49 H49            2.4440    -2.3814     0.3215 H       
  50 H50            2.3457    -2.0711     2.0715 H       
  51 H51            0.7333    -3.8261     1.3868 H       
  52 H52           -0.1132    -2.3804     1.9881 H       
  53 H53           -0.0149    -2.6907     0.2382 H       
  54 H54            3.5856    -1.2232     2.9052 H       
  55 H55            5.0284    -0.6141     2.0592 H       
  56 H56            5.3830    -0.6464     4.5131 H       
  57 H57            5.4099     1.0191     3.8856 H       
  58 H58            3.9671     0.4100     4.7316 H       
  59 H59           11.8843     9.9937    -0.0480 H       
  60 H60           12.8222     9.4013    -2.2656 H       
  61 H61           12.3472     7.7045    -2.0132 H       
  62 H62           11.0995     8.9650    -2.1633 H       
  63 H63           14.2465     9.3598    -0.1562 H       
  64 H64           13.5376     8.7100     1.3416 H       
  65 H65           15.2452     6.9585     1.3899 H       
  66 H66           15.4161     5.9129    -0.0404 H       
  67 H67           15.9541     7.6083    -0.1080 H       
  68 H68            7.1088     6.9033     2.7723 H       
  69 H69            5.8713     8.1214     2.3811 H       
  70 H70            6.7423    12.4730     1.3828 H       
  71 H71            6.1130    11.0820    -2.6094 H       
  72 H72            3.7555    11.7768    -2.4751 H       
  73 H73            4.3826    13.1615     1.5101 H       
  74 H74            1.7733    11.2858     1.2392 H       
  75 H75            0.3076    11.7663     0.3509 H       
  76 H76            1.5122    10.7101    -0.4248 H       
@<TRIPOS>BOND
   1    1   20 1
   2    1   13 1
   3    2   22 1
   4    2   13 1
   5    3    4 ar
   6    3   24 1
   7    3    8 ar
   8    4    5 ar
   9    4   42 1
  10    5    6 ar
  11    5   31 1
  12    6    7 ar
  13    6   43 1
  14    7    8 ar
  15    7   30 1
  16    8   44 1
  17    9   10 am
  18    9   11 2
  19    9   30 1
  20   10   12 1
  21   10   45 1
  22   12   16 2
  23   12   17 1
  24   13   14 2
  25   13   15 1
  26   15   19 1
  27   15   46 1
  28   15   47 1
  29   16   19 1
  30   17   18 1
  31   18   19 2
  32   18   48 1
  33   20   21 1
  34   20   49 1
  35   20   50 1
  36   21   51 1
  37   21   52 1
  38   21   53 1
  39   22   23 1
  40   22   54 1
  41   22   55 1
  42   23   56 1
  43   23   57 1
  44   23   58 1
  45   24   25 1
  46   25   26 1
  47   25   27 1
  48   25   59 1
  49   26   60 1
  50   26   61 1
  51   26   62 1
  52   27   28 1
  53   27   63 1
  54   27   64 1
  55   28   29 1
  56   29   65 1
  57   29   66 1
  58   29   67 1
  59   30   68 1
  60   30   69 1
  61   31   32 1
  62   32   33 ar
  63   32   34 ar
  64   33   37 ar
  65   33   70 1
  66   34   35 ar
  67   34   71 1
  68   35   36 ar
  69   35   72 1
  70   36   37 ar
  71   36   38 1
  72   37   73 1
  73   38   39 1
  74   38   40 2
  75   38   41 2
  76   39   74 1
  77   39   75 1
  78   39   76 1

#	End of record

