#	Name: ASD06170315
#	Creating user name:	WinNT
#	Creation time:	15. 06. 2019 21:05

#	Modifying user name:	WinNT
#	Modification time:	15. 06. 2019 21:05

#	Program:	/corina/corina34_cracker 3.40 0067  02.08.2006

@<TRIPOS>MOLECULE
ASD06170315
  67   71    0    0    0
SMALL
NO_CHARGES


@<TRIPOS>ATOM
   1 N1             0.1184     1.3977     0.6258 N.am    
   2 N2             0.1319     0.0141     0.8256 N.pl3   
   3 C3             1.3578    -0.4759     0.5601 C.2     
   4 C4             2.1756     0.5706     0.1809 C.2     
   5 C5             1.3482     1.7865     0.2299 C.2     
   6 C6             3.5916     0.4864    -0.1966 C.2     
   7 O7             4.1589    -0.5902    -0.1944 O.2     
   8 N8             4.2634     1.6015    -0.5456 N.am    
   9 C9            -1.0172    -0.7844     1.2595 C.3     
  10 C10            1.7683    -1.9225     0.6599 C.3     
  11 C11            5.6486     1.5510    -0.7442 C.ar    
  12 C12            6.2478     0.3697    -1.1602 C.ar    
  13 C13            7.6144     0.3194    -1.3558 C.ar    
  14 C14            8.3889     1.4484    -1.1372 C.ar    
  15 C15            7.7906     2.6319    -0.7212 C.ar    
  16 C16            6.4226     2.6843    -0.5305 C.ar    
  17 O17            9.7342     1.3977    -1.3296 O.3     
  18 N18           12.1469     1.3747     2.0151 N.ar    
  19 C19           12.7262     1.2334     0.8170 C.ar    
  20 C20           11.9335     1.2358    -0.3566 C.ar    
  21 C21           10.5337     1.3889    -0.2350 C.ar    
  22 C22           10.0043     1.5300     1.0360 C.ar    
  23 C23           10.8481     1.5175     2.1391 C.ar    
  24 O24            1.7034     2.9199    -0.0347 O.2     
  25 C25           -0.9864     2.2373     0.8010 C.ar    
  26 C26           -1.8003     2.0922     1.9165 C.ar    
  27 C27           12.5429     1.0885    -1.6112 C.ar    
  28 C28           13.8935     0.9439    -1.6954 C.ar    
  29 C29           14.6855     0.9396    -0.5436 C.ar    
  30 C30           14.1173     1.0821     0.7021 C.ar    
  31 C31           16.5614     0.6489    -1.9740 C.3     
  32 O32           16.0313     0.7928    -0.6548 O.3     
  33 C33           -1.6995    -1.4023     0.0374 C.3     
  34 C34           -2.8915     2.9238     2.0866 C.ar    
  35 C35           -3.1727     3.8991     1.1460 C.ar    
  36 C36           -2.3636     4.0449     0.0341 C.ar    
  37 C37           -1.2683     3.2216    -0.1378 C.ar    
  38 O38           -2.1445    -0.3627    -0.8362 O.3     
  39 F39            8.5452     3.7321    -0.5083 F       
  40 Cl40          -3.9102     2.7439     3.4807 Cl      
  41 C41           -2.8996    -2.2362     0.4906 C.3     
  42 H42            3.7873     2.4389    -0.6593 H       
  43 H43           -0.6778    -1.5774     1.9259 H       
  44 H44           -1.7255    -0.1452     1.7866 H       
  45 H45            1.5972    -2.4156    -0.2970 H       
  46 H46            2.8261    -1.9832     0.9158 H       
  47 H47            1.1786    -2.4150     1.4330 H       
  48 H48            5.6453    -0.5102    -1.3307 H       
  49 H49            8.0799    -0.6001    -1.6787 H       
  50 H50            5.9564     3.6048    -0.2116 H       
  51 H51            8.9393     1.6496     1.1694 H       
  52 H52           10.4238     1.6281     3.1261 H       
  53 H53           -1.5813     1.3306     2.6502 H       
  54 H54           11.9417     1.0894    -2.5084 H       
  55 H55           14.3588     0.8307    -2.6635 H       
  56 H56           14.7379     1.0776     1.5859 H       
  57 H57           16.1305    -0.2350    -2.4443 H       
  58 H58           16.3134     1.5315    -2.5635 H       
  59 H59           17.6447     0.5404    -1.9204 H       
  60 H60           -0.9912    -2.0415    -0.4897 H       
  61 H61           -4.0258     4.5475     1.2805 H       
  62 H62           -2.5858     4.8068    -0.6984 H       
  63 H63           -0.6369     3.3366    -1.0064 H       
  64 H64           -2.7786     0.2457    -0.4326 H       
  65 H65           -3.6079    -1.5970     1.0177 H       
  66 H66           -3.3857    -2.6764    -0.3801 H       
  67 H67           -2.5602    -3.0292     1.1570 H       
@<TRIPOS>BOND
   1    1    2 1
   2    1    5 am
   3    1   25 1
   4    2    3 1
   5    2    9 1
   6    3    4 2
   7    3   10 1
   8    4    5 1
   9    4    6 1
  10    5   24 2
  11    6    7 2
  12    6    8 am
  13    8   11 1
  14    8   42 1
  15    9   33 1
  16    9   43 1
  17    9   44 1
  18   10   45 1
  19   10   46 1
  20   10   47 1
  21   11   12 ar
  22   11   16 ar
  23   12   13 ar
  24   12   48 1
  25   13   14 ar
  26   13   49 1
  27   14   15 ar
  28   14   17 1
  29   15   16 ar
  30   15   39 1
  31   16   50 1
  32   17   21 1
  33   18   19 ar
  34   18   23 ar
  35   19   20 ar
  36   19   30 ar
  37   20   21 ar
  38   20   27 ar
  39   21   22 ar
  40   22   23 ar
  41   22   51 1
  42   23   52 1
  43   25   26 ar
  44   25   37 ar
  45   26   34 ar
  46   26   53 1
  47   27   28 ar
  48   27   54 1
  49   28   29 ar
  50   28   55 1
  51   29   30 ar
  52   29   32 1
  53   30   56 1
  54   31   32 1
  55   31   57 1
  56   31   58 1
  57   31   59 1
  58   33   38 1
  59   33   41 1
  60   33   60 1
  61   34   35 ar
  62   34   40 1
  63   35   36 ar
  64   35   61 1
  65   36   37 ar
  66   36   62 1
  67   37   63 1
  68   38   64 1
  69   41   65 1
  70   41   66 1
  71   41   67 1

#	End of record

