#	Name: ASD00841991
#	Creating user name:	WinNT
#	Creation time:	15. 06. 2019 18:43

#	Modifying user name:	WinNT
#	Modification time:	15. 06. 2019 18:43

#	Program:	/corina/corina34_cracker 3.40 0067  02.08.2006

@<TRIPOS>MOLECULE
ASD00841991
  93   98    0    0    0
SMALL
NO_CHARGES


@<TRIPOS>ATOM
   1 C1             1.0004     1.5550    -0.3873 C.ar    
   2 C2             1.3082     0.2247    -0.6317 C.ar    
   3 C3             1.2414    -0.7012     0.3995 C.ar    
   4 C4             0.8687    -0.2965     1.6664 C.ar    
   5 C5             0.5618     1.0302     1.9074 C.ar    
   6 C6             0.6281     1.9548     0.8817 C.ar    
   7 C7             1.5747    -2.1473     0.1374 C.3     
   8 C8             1.3089    -2.9850     1.3700 C.2     
   9 C9             0.7706    -2.6744    -1.0529 C.3     
  10 C10           -0.6986    -2.4459    -0.8072 C.2     
  11 N11           -1.6095    -2.9209    -1.6796 N.am    
  12 O12           -1.0612    -1.8347     0.1755 O.2     
  13 C13           -3.0362    -2.6105    -1.5153 C.3     
  14 C14           -3.8283    -3.9218    -1.5070 C.3     
  15 C15           -3.5000    -4.7194    -2.7712 C.3     
  16 C16           -2.0074    -5.0569    -2.7903 C.3     
  17 C17           -1.1941    -3.7539    -2.8164 C.3     
  18 N18           -4.2830    -5.9623    -2.7827 N.3     
  19 C19           -4.0835    -6.6988    -4.0386 C.3     
  20 C20           -4.8509    -8.0216    -3.9786 C.3     
  21 N21           -6.2770    -7.7478    -3.7528 N.3     
  22 C22           -6.4765    -7.0114    -2.4968 C.3     
  23 C23           -5.7091    -5.6885    -2.5569 C.3     
  24 C24           -7.0600    -8.9908    -3.7643 C.3     
  25 O25            0.2386    -3.1384     1.9193 O.2     
  26 N26            2.4806    -3.5273     1.7409 N.am    
  27 C27            3.0576    -2.3138    -0.1057 C.ar    
  28 C28            3.5259    -3.1560     0.8999 C.ar    
  29 C29            3.9057    -1.8132    -1.0607 C.ar    
  30 C30            5.2639    -2.1494    -1.0307 C.ar    
  31 C31            5.7418    -2.9956    -0.0228 C.ar    
  32 C32            4.8792    -3.4931     0.9303 C.ar    
  33 F33            7.0512    -3.3262     0.0150 F       
  34 C34            2.4087    -6.1749     2.4887 C.ar    
  35 C35            1.1647    -6.5621     2.0116 C.ar    
  36 C36            3.4515    -7.0814     2.5180 C.ar    
  37 C37            3.2583    -8.3747     2.0723 C.ar    
  38 C38            2.0157    -8.7668     1.5941 C.ar    
  39 C39            0.9681    -7.8596     1.5641 C.ar    
  40 O40            1.8262   -10.0393     1.1562 O.3     
  41 O41            0.1395    -5.6704     1.9834 O.3     
  42 C42           -1.1133    -6.1379     1.4795 C.3     
  43 C43            2.9497   -10.9203     1.2166 C.3     
  44 C44            6.1575    -1.6326    -2.0231 C.1     
  45 N45            6.8664    -1.2226    -2.8104 N.1     
  46 O46            1.6743    -0.1711    -1.8792 O.3     
  47 C47            2.1535     0.2140    -4.2164 C.3     
  48 C48            1.6126     0.8108    -2.9156 C.3     
  49 S49            2.6612    -4.5242     3.0508 S.o2    
  50 O50            4.0259    -4.4362     3.4369 O.2     
  51 O51            1.5843    -4.2306     3.9301 O.2     
  52 H52            1.0560     2.2784    -1.1873 H       
  53 H53            0.8165    -1.0168     2.4694 H       
  54 H54            0.2699     1.3446     2.8985 H       
  55 H55            0.3880     2.9903     1.0725 H       
  56 H56            1.0738    -2.1479    -1.9579 H       
  57 H57            0.9572    -3.7415    -1.1735 H       
  58 H58           -3.1897    -2.0849    -0.5729 H       
  59 H59           -3.3719    -1.9861    -2.3432 H       
  60 H60           -3.5563    -4.5055    -0.6276 H       
  61 H61           -4.8956    -3.7019    -1.4824 H       
  62 H62           -3.7493    -4.1253    -3.6504 H       
  63 H63           -1.7526    -5.6300    -1.8988 H       
  64 H64           -1.7788    -5.6450    -3.6791 H       
  65 H65           -1.3808    -3.2252    -3.7511 H       
  66 H66           -0.1322    -3.9842    -2.7302 H       
  67 H67           -4.4524    -6.1019    -4.8727 H       
  68 H68           -3.0213    -6.9006    -4.1771 H       
  69 H69           -4.7280    -8.5564    -4.9204 H       
  70 H70           -4.4636    -8.6300    -3.1614 H       
  71 H71           -7.5387    -6.8096    -2.3583 H       
  72 H72           -6.1076    -7.6083    -1.6627 H       
  73 H73           -5.8320    -5.1538    -1.6150 H       
  74 H74           -6.0964    -5.0802    -3.3741 H       
  75 H75           -6.7021    -9.6529    -2.9759 H       
  76 H76           -8.1116    -8.7593    -3.5949 H       
  77 H77           -6.9472    -9.4823    -4.7306 H       
  78 H78            3.5263    -1.1615    -1.8339 H       
  79 H79            5.2532    -4.1456     1.7055 H       
  80 H80            4.4191    -6.7782     2.8897 H       
  81 H81            4.0749    -9.0811     2.0955 H       
  82 H82            0.0004    -8.1630     1.1927 H       
  83 H83           -1.8428    -5.3287     1.5121 H       
  84 H84           -0.9885    -6.4733     0.4500 H       
  85 H85           -1.4642    -6.9683     2.0922 H       
  86 H86            3.7596   -10.5185     0.6077 H       
  87 H87            3.2836   -11.0129     2.2500 H       
  88 H88            2.6628   -11.9014     0.8381 H       
  89 H89            3.1573    -0.1758    -4.0476 H       
  90 H90            1.5002    -0.5946    -4.5444 H       
  91 H91            2.1882     0.9870    -4.9840 H       
  92 H92            0.5779     1.1213    -3.0609 H       
  93 H93            2.2150     1.6745    -2.6341 H       
@<TRIPOS>BOND
   1    1    2 ar
   2    1    6 ar
   3    1   52 1
   4    2    3 ar
   5    2   46 1
   6    3    4 ar
   7    3    7 1
   8    4    5 ar
   9    4   53 1
  10    5    6 ar
  11    5   54 1
  12    6   55 1
  13    7    8 1
  14    7    9 1
  15    7   27 1
  16    8   25 2
  17    8   26 am
  18    9   10 1
  19    9   56 1
  20    9   57 1
  21   10   11 am
  22   10   12 2
  23   11   13 1
  24   11   17 1
  25   13   14 1
  26   13   58 1
  27   13   59 1
  28   14   15 1
  29   14   60 1
  30   14   61 1
  31   15   16 1
  32   15   18 1
  33   15   62 1
  34   16   17 1
  35   16   63 1
  36   16   64 1
  37   17   65 1
  38   17   66 1
  39   18   19 1
  40   18   23 1
  41   19   20 1
  42   19   67 1
  43   19   68 1
  44   20   21 1
  45   20   69 1
  46   20   70 1
  47   21   22 1
  48   21   24 1
  49   22   23 1
  50   22   71 1
  51   22   72 1
  52   23   73 1
  53   23   74 1
  54   24   75 1
  55   24   76 1
  56   24   77 1
  57   26   49 am
  58   26   28 1
  59   27   28 ar
  60   27   29 ar
  61   28   32 ar
  62   29   30 ar
  63   29   78 1
  64   30   31 ar
  65   30   44 1
  66   31   32 ar
  67   31   33 1
  68   32   79 1
  69   34   35 ar
  70   34   36 ar
  71   34   49 1
  72   35   41 1
  73   35   39 ar
  74   36   37 ar
  75   36   80 1
  76   37   38 ar
  77   37   81 1
  78   38   39 ar
  79   38   40 1
  80   39   82 1
  81   40   43 1
  82   41   42 1
  83   42   83 1
  84   42   84 1
  85   42   85 1
  86   43   86 1
  87   43   87 1
  88   43   88 1
  89   44   45 3
  90   46   48 1
  91   47   48 1
  92   47   89 1
  93   47   90 1
  94   47   91 1
  95   48   92 1
  96   48   93 1
  97   49   50 2
  98   49   51 2

#	End of record

