#	Name: ASD03730034
#	Creating user name:	WinNT
#	Creation time:	15. 06. 2019 20:43

#	Modifying user name:	WinNT
#	Modification time:	15. 06. 2019 20:43

#	Program:	/corina/corina34_cracker 3.40 0067  02.08.2006

@<TRIPOS>MOLECULE
ASD03730034
  56   61    0    0    0
SMALL
NO_CHARGES


@<TRIPOS>ATOM
   1 O1            -1.9689    -0.3604     0.3205 O.3     
   2 C2            -1.3216    -1.6438     0.2294 C.3     
   3 C3             0.0020    -1.3016    -0.4684 C.3     
   4 C4             0.1989     0.1539    -0.1391 C.ar    
   5 C5            -1.0255     0.6228     0.3315 C.ar    
   6 C6            -1.1296     1.9518     0.7287 C.ar    
   7 C7            -0.0337     2.7937     0.6465 C.ar    
   8 C8             1.1775     2.3163     0.1663 C.ar    
   9 C9             1.2873     0.9947    -0.2244 C.ar    
  10 N10            1.6321    -2.7970    -1.0447 N.am    
  11 C11            1.1323    -2.1554     0.0303 C.2     
  12 C12           -0.0617    -1.5494    -1.9462 C.ar    
  13 C13           -0.8676    -1.0742    -2.9569 C.ar    
  14 C14           -0.6732    -1.5039    -4.2576 C.ar    
  15 C15            0.3319    -2.4107    -4.5405 C.ar    
  16 C16            1.1416    -2.8892    -3.5316 C.ar    
  17 C17            0.9535    -2.4627    -2.2191 C.ar    
  18 O18            1.5195    -2.2494     1.1759 O.2     
  19 O19           -0.1445     4.0907     1.0365 O.3     
  20 C20            1.0254     4.9038     0.9251 C.3     
  21 F21            1.4378     4.9470    -0.4110 F       
  22 F22            0.7363     6.1997     1.3660 F       
  23 F23            2.0473     4.3609     1.7113 F       
  24 C24            2.7564    -3.7346    -0.9881 C.3     
  25 C25            3.9025    -3.1945    -1.8040 C.ar    
  26 C26            4.6981    -4.0574    -2.5342 C.ar    
  27 C27            5.7495    -3.5619    -3.2825 C.ar    
  28 C28            6.0050    -2.2035    -3.3010 C.ar    
  29 C29            5.2088    -1.3405    -2.5715 C.ar    
  30 C30            4.1547    -1.8355    -1.8266 C.ar    
  31 C31            3.1957    -3.9064     0.4432 C.ar    
  32 C32            2.9391    -5.0912     1.1075 C.ar    
  33 C33            3.3421    -5.2488     2.4204 C.ar    
  34 C34            4.0019    -4.2217     3.0688 C.ar    
  35 C35            4.2593    -3.0372     2.4043 C.ar    
  36 C36            3.8602    -2.8812     1.0900 C.ar    
  37 H37           -1.1403    -2.0569     1.2216 H       
  38 H38           -1.9112    -2.3324    -0.3758 H       
  39 H39           -2.0701     2.3288     1.1027 H       
  40 H40            2.0309     2.9746     0.0980 H       
  41 H41            2.2290     0.6201    -0.5975 H       
  42 H42           -1.6520    -0.3661    -2.7340 H       
  43 H43           -1.3054    -1.1321    -5.0504 H       
  44 H44            0.4832    -2.7461    -5.5559 H       
  45 H45            1.9243    -3.5975    -3.7602 H       
  46 H46            2.4461    -4.6987    -1.3911 H       
  47 H47            4.4986    -5.1187    -2.5198 H       
  48 H48            6.3716    -4.2362    -3.8525 H       
  49 H49            6.8268    -1.8165    -3.8851 H       
  50 H50            5.4085    -0.2792    -2.5857 H       
  51 H51            3.5304    -1.1609    -1.2596 H       
  52 H52            2.4236    -5.8937     0.6008 H       
  53 H53            3.1410    -6.1742     2.9396 H       
  54 H54            4.3161    -4.3445     4.0948 H       
  55 H55            4.7745    -2.2346     2.9110 H       
  56 H56            4.0645    -1.9572     0.5696 H       
@<TRIPOS>BOND
   1    1    2 1
   2    1    5 1
   3    2    3 1
   4    2   37 1
   5    2   38 1
   6    3    4 1
   7    3   11 1
   8    3   12 1
   9    4    5 ar
  10    4    9 ar
  11    5    6 ar
  12    6    7 ar
  13    6   39 1
  14    7    8 ar
  15    7   19 1
  16    8    9 ar
  17    8   40 1
  18    9   41 1
  19   10   11 am
  20   10   17 1
  21   10   24 1
  22   11   18 2
  23   12   13 ar
  24   12   17 ar
  25   13   14 ar
  26   13   42 1
  27   14   15 ar
  28   14   43 1
  29   15   16 ar
  30   15   44 1
  31   16   17 ar
  32   16   45 1
  33   19   20 1
  34   20   21 1
  35   20   22 1
  36   20   23 1
  37   24   25 1
  38   24   31 1
  39   24   46 1
  40   25   26 ar
  41   25   30 ar
  42   26   27 ar
  43   26   47 1
  44   27   28 ar
  45   27   48 1
  46   28   29 ar
  47   28   49 1
  48   29   30 ar
  49   29   50 1
  50   30   51 1
  51   31   32 ar
  52   31   36 ar
  53   32   33 ar
  54   32   52 1
  55   33   34 ar
  56   33   53 1
  57   34   35 ar
  58   34   54 1
  59   35   36 ar
  60   35   55 1
  61   36   56 1

#	End of record

