#	Name: ASD01883223
#	Creating user name:	WinNT
#	Creation time:	15. 06. 2019 19:46

#	Modifying user name:	WinNT
#	Modification time:	15. 06. 2019 19:46

#	Program:	/corina/corina34_cracker 3.40 0067  02.08.2006

@<TRIPOS>MOLECULE
ASD01883223
  51   52    0    0    0
SMALL
NO_CHARGES


@<TRIPOS>ATOM
   1 N1             0.1041     1.1937    -0.1240 N.am    
   2 C2             0.1030    -0.1520    -0.1506 C.2     
   3 C3            -1.1251    -0.8586    -0.1156 C.2     
   4 C4            -2.3228    -0.1266    -0.0534 C.2     
   5 C5            -2.2556     1.2795    -0.0282 C.2     
   6 C6            -1.0535     1.8995    -0.0586 C.2     
   7 O7             1.1570    -0.7623    -0.2051 O.2     
   8 C8            -1.1448    -2.2902    -0.1437 C.1     
   9 N9            -1.1605    -3.4259    -0.1660 N.1     
  10 C10            1.3809     1.9111    -0.1601 C.3     
  11 C11            1.7685     2.1894    -1.6138 C.3     
  12 C12            3.1020     2.9386    -1.6516 C.3     
  13 C13            3.5512     3.1073    -3.1044 C.3     
  14 C14            2.9315     4.3159    -1.0073 C.3     
  15 C15           -3.6291    -0.8199    -0.0155 C.ar    
  16 C16           -4.4432    -0.7199     1.1138 C.ar    
  17 C17           -5.6602    -1.3689     1.1427 C.ar    
  18 C18           -6.0742    -2.1181     0.0555 C.ar    
  19 C19           -5.2719    -2.2213    -1.0671 C.ar    
  20 C20           -4.0554    -1.5722    -1.1112 C.ar    
  21 C21           -7.4044    -2.8251     0.0945 C.3     
  22 N22           -8.4449    -1.9374    -0.4305 N.am    
  23 C23           -8.7347    -1.9434    -1.7467 C.2     
  24 C24           -9.8824    -1.1184    -2.2693 C.3     
  25 C25           -9.1703    -1.0432     0.4752 C.3     
  26 O26           -8.0718    -2.6128    -2.5106 O.2     
  27 H27           -3.1632     1.8630     0.0196 H       
  28 H28           -1.0144     2.9786    -0.0388 H       
  29 H29            1.2829     2.8546     0.3768 H       
  30 H30            2.1528     1.3030     0.3117 H       
  31 H31            1.8665     1.2459    -2.1507 H       
  32 H32            0.9966     2.7974    -2.0856 H       
  33 H33            3.8533     2.3711    -1.1025 H       
  34 H34            2.7999     3.6748    -3.6535 H       
  35 H35            4.5012     3.6410    -3.1313 H       
  36 H36            3.6726     2.1261    -3.5634 H       
  37 H37            3.8815     4.8496    -1.0343 H       
  38 H38            2.1802     4.8834    -1.5564 H       
  39 H39            2.6115     4.1957     0.0277 H       
  40 H40           -4.1210    -0.1360     1.9633 H       
  41 H41           -6.2911    -1.2923     2.0159 H       
  42 H42           -5.6007    -2.8076    -1.9123 H       
  43 H43           -3.4302    -1.6532    -1.9882 H       
  44 H44           -7.3545    -3.7270    -0.5156 H       
  45 H45           -7.6424    -3.0952     1.1234 H       
  46 H46           -9.5441    -0.0980    -2.4490 H       
  47 H47          -10.2454    -1.5504    -3.2019 H       
  48 H48          -10.6879    -1.1102    -1.5350 H       
  49 H49           -8.6024    -0.1223     0.6085 H       
  50 H50          -10.1466    -0.8097     0.0504 H       
  51 H51           -9.3015    -1.5321     1.4405 H       
@<TRIPOS>BOND
   1    1    2 am
   2    1   10 1
   3    1    6 1
   4    2    3 1
   5    2    7 2
   6    3    4 2
   7    3    8 1
   8    4    5 1
   9    4   15 1
  10    5    6 2
  11    5   27 1
  12    6   28 1
  13    8    9 3
  14   10   11 1
  15   10   29 1
  16   10   30 1
  17   11   12 1
  18   11   31 1
  19   11   32 1
  20   12   13 1
  21   12   14 1
  22   12   33 1
  23   13   34 1
  24   13   35 1
  25   13   36 1
  26   14   37 1
  27   14   38 1
  28   14   39 1
  29   15   16 ar
  30   15   20 ar
  31   16   17 ar
  32   16   40 1
  33   17   18 ar
  34   17   41 1
  35   18   19 ar
  36   18   21 1
  37   19   20 ar
  38   19   42 1
  39   20   43 1
  40   21   22 1
  41   21   44 1
  42   21   45 1
  43   22   23 am
  44   22   25 1
  45   23   24 1
  46   23   26 2
  47   24   46 1
  48   24   47 1
  49   24   48 1
  50   25   49 1
  51   25   50 1
  52   25   51 1

#	End of record

