#	Name: ASD02560422
#	Creating user name:	WinNT
#	Creation time:	15. 06. 2019 20:25

#	Modifying user name:	WinNT
#	Modification time:	15. 06. 2019 20:25

#	Program:	/corina/corina34_cracker 3.40 0067  02.08.2006

@<TRIPOS>MOLECULE
ASD02560422
  51   56    0    0    0
SMALL
NO_CHARGES


@<TRIPOS>ATOM
   1 C1             0.0447     1.4060     0.6666 C.2     
   2 C2             0.0626    -0.0002     0.6697 C.2     
   3 C3             1.2219    -0.6671     0.5014 C.2     
   4 N4             2.3974     0.0123     0.3249 N.pl3   
   5 C5             2.4109     1.3885     0.3169 C.2     
   6 C6             1.2028     2.0962     0.4926 C.2     
   7 C7             3.6846    -0.4084     0.1360 C.2     
   8 C8             4.4613     0.7248     0.0159 C.2     
   9 N9             3.6554     1.7964     0.1306 N.2     
  10 C10            5.9267     0.7569    -0.2007 C.ar    
  11 N11            4.1273    -1.7302     0.0766 N.3     
  12 C12            3.0096    -2.6679     0.2487 C.3     
  13 C13            3.5335    -4.1038     0.1803 C.3     
  14 C14            6.7662    -0.0442     0.5722 C.ar    
  15 C15            6.4720     1.5849    -1.1833 C.ar    
  16 C16            8.1305    -0.0100     0.3659 C.ar    
  17 C17            8.6660     0.8166    -0.6053 C.ar    
  18 C18            7.8384     1.6100    -1.3799 C.ar    
  19 Cl19           5.4345     2.5803    -2.1562 Cl      
  20 C20            2.3492    -2.4302     1.6082 C.3     
  21 C21            1.1852    -3.4068     1.7874 C.3     
  22 C22            1.7090    -4.8427     1.7191 C.3     
  23 C23            2.3695    -5.0805     0.3596 C.3     
  24 C24            0.1577    -3.1853     0.6756 C.3     
  25 C25            1.3421    -4.8589    -0.7522 C.3     
  26 C26            0.8182    -3.4231    -0.6839 C.3     
  27 C27            1.9822    -2.4464    -0.8632 C.3     
  28 H28           -0.8871     1.9361     0.7977 H       
  29 H29           -0.8574    -0.5488     0.8079 H       
  30 H30            1.2236    -1.7471     0.5063 H       
  31 H31            1.1982     3.1762     0.4882 H       
  32 H32            4.6192    -1.9084    -0.7862 H       
  33 H33            4.0040    -4.2732    -0.7882 H       
  34 H34            4.2655    -4.2616     0.9725 H       
  35 H35            6.3498    -0.6899     1.3312 H       
  36 H36            8.7815    -0.6300     0.9645 H       
  37 H37            9.7342     0.8398    -0.7624 H       
  38 H38            8.2623     2.2534    -2.1367 H       
  39 H39            3.0811    -2.5880     2.4003 H       
  40 H40            1.9760    -1.4072     1.6569 H       
  41 H41            0.7146    -3.2374     2.7560 H       
  42 H42            2.4410    -5.0005     2.5112 H       
  43 H43            0.8798    -5.5385     1.8468 H       
  44 H44            2.7427    -6.1034     0.3109 H       
  45 H45           -0.6715    -3.8811     0.8033 H       
  46 H46           -0.2155    -2.1624     0.7243 H       
  47 H47            1.8126    -5.0283    -1.7208 H       
  48 H48            0.5128    -5.5547    -0.6245 H       
  49 H49            0.0862    -3.2652    -1.4760 H       
  50 H50            1.6090    -1.4235    -0.8145 H       
  51 H51            2.4527    -2.6158    -1.8317 H       
@<TRIPOS>BOND
   1    1    2 1
   2    1    6 2
   3    1   28 1
   4    2    3 2
   5    2   29 1
   6    3    4 1
   7    3   30 1
   8    4    5 1
   9    4    7 1
  10    5    6 1
  11    5    9 2
  12    6   31 1
  13    7    8 2
  14    7   11 1
  15    8    9 1
  16    8   10 1
  17   10   14 ar
  18   10   15 ar
  19   11   12 1
  20   11   32 1
  21   12   13 1
  22   12   20 1
  23   12   27 1
  24   13   23 1
  25   13   33 1
  26   13   34 1
  27   14   16 ar
  28   14   35 1
  29   15   19 1
  30   15   18 ar
  31   16   17 ar
  32   16   36 1
  33   17   18 ar
  34   17   37 1
  35   18   38 1
  36   20   21 1
  37   20   39 1
  38   20   40 1
  39   21   22 1
  40   21   24 1
  41   21   41 1
  42   22   23 1
  43   22   42 1
  44   22   43 1
  45   23   25 1
  46   23   44 1
  47   24   26 1
  48   24   45 1
  49   24   46 1
  50   25   26 1
  51   25   47 1
  52   25   48 1
  53   26   27 1
  54   26   49 1
  55   27   50 1
  56   27   51 1

#	End of record

