#	Name: ASD01910581
#	Creating user name:	WinNT
#	Creation time:	15. 06. 2019 19:56

#	Modifying user name:	WinNT
#	Modification time:	15. 06. 2019 19:56

#	Program:	/corina/corina34_cracker 3.40 0067  02.08.2006

@<TRIPOS>MOLECULE
ASD01910581
  41   44    0    0    0
SMALL
NO_CHARGES


@<TRIPOS>ATOM
   1 O1             0.1191     0.7053    -0.2239 O.3     
   2 C2             0.2617    -0.6305    -0.1916 C.2     
   3 N3             1.5641    -0.8703    -0.1459 N.2     
   4 C4             2.1513     0.3354    -0.1527 C.2     
   5 N5             1.2109     1.2329    -0.2007 N.2     
   6 C6            -0.8151    -1.6290    -0.2041 C.2     
   7 C7            -2.1668    -1.3675    -0.2518 C.2     
   8 C8            -2.8266    -2.6032    -0.2462 C.2     
   9 C9            -1.8857    -3.5752    -0.1962 C.2     
  10 N10           -0.6566    -2.9945    -0.1762 N.pl3   
  11 C11            3.9704     1.4296     1.1329 C.3     
  12 C12            3.6339     0.6025    -0.1119 C.3     
  13 C13            4.0474     1.3803    -1.3634 C.3     
  14 C14            5.5581     1.6235    -1.3389 C.3     
  15 C15            5.9164     2.4621    -0.1080 C.3     
  16 N16            5.3938     1.7910     1.0899 N.am    
  17 C17            6.2049     1.5118     2.1295 C.2     
  18 C18            5.6402     0.9545     3.3807 C.ar    
  19 O19            7.3992     1.7170     2.0405 O.2     
  20 C20            6.3043    -0.0576     4.0804 C.ar    
  21 C21            5.7418    -0.5483     5.2429 C.ar    
  22 N22            4.5965    -0.0755     5.6926 N.ar    
  23 C23            3.9382     0.8779     5.0640 C.ar    
  24 C24            4.4314     1.4302     3.8977 C.ar    
  25 Cl25          -4.5450    -2.8450    -0.2941 Cl      
  26 H26           -2.6306    -0.3928    -0.2863 H       
  27 H27           -2.0794    -4.6375    -0.1795 H       
  28 H28            0.1909    -3.4651    -0.1414 H       
  29 H29            3.3637     2.3350     1.1450 H       
  30 H30            3.7697     0.8408     2.0280 H       
  31 H31            4.1736    -0.3438    -0.0768 H       
  32 H32            3.7866     0.8046    -2.2514 H       
  33 H33            3.5258     2.3372    -1.3851 H       
  34 H34            6.0798     0.6676    -1.2923 H       
  35 H35            5.8554     2.1570    -2.2417 H       
  36 H36            6.9998     2.5547    -0.0317 H       
  37 H37            5.4684     3.4518    -0.1972 H       
  38 H38            7.2426    -0.4501     3.7173 H       
  39 H39            6.2471    -1.3301     5.7904 H       
  40 H40            3.0028     1.2353     5.4687 H       
  41 H41            3.8868     2.2114     3.3881 H       
@<TRIPOS>BOND
   1    1    2 1
   2    1    5 1
   3    2    3 2
   4    2    6 1
   5    3    4 1
   6    4    5 2
   7    4   12 1
   8    6    7 2
   9    6   10 1
  10    7    8 1
  11    7   26 1
  12    8    9 2
  13    8   25 1
  14    9   10 1
  15    9   27 1
  16   10   28 1
  17   11   12 1
  18   11   16 1
  19   11   29 1
  20   11   30 1
  21   12   13 1
  22   12   31 1
  23   13   14 1
  24   13   32 1
  25   13   33 1
  26   14   15 1
  27   14   34 1
  28   14   35 1
  29   15   16 1
  30   15   36 1
  31   15   37 1
  32   16   17 am
  33   17   18 1
  34   17   19 2
  35   18   20 ar
  36   18   24 ar
  37   20   21 ar
  38   20   38 1
  39   21   22 ar
  40   21   39 1
  41   22   23 ar
  42   23   24 ar
  43   23   40 1
  44   24   41 1

#	End of record

