#	Name: ASD01901021
#	Creating user name:	WinNT
#	Creation time:	15. 06. 2019 19:53

#	Modifying user name:	WinNT
#	Modification time:	15. 06. 2019 19:53

#	Program:	/corina/corina34_cracker 3.40 0067  02.08.2006

@<TRIPOS>MOLECULE
ASD01901021
  29   31    0    0    0
SMALL
NO_CHARGES


@<TRIPOS>ATOM
   1 C1            -0.0159     1.3209     0.0093 C.ar    
   2 N2             0.0021    -0.0041     0.0020 N.ar    
   3 C3             1.1479    -0.6646    -0.0124 C.ar    
   4 C4             2.3381     0.0462    -0.0200 C.ar    
   5 C5             2.2829     1.4309    -0.0120 C.ar    
   6 N6             1.1033     2.0297     0.0024 N.ar    
   7 N7            -1.2329     1.9800     0.0186 N.pl3   
   8 C8             1.1594    -2.1715    -0.0202 C.3     
   9 C9             1.2700    -2.8702    -1.3768 C.3     
  10 C10            2.4631    -2.8659    -0.4190 C.3     
  11 C11            0.5245    -4.1679    -1.5540 C.ar    
  12 C12           -0.4442    -4.2803    -2.5337 C.ar    
  13 C13           -1.1280    -5.4706    -2.6962 C.ar    
  14 C14           -0.8428    -6.5486    -1.8792 C.ar    
  15 C15            0.1265    -6.4365    -0.9001 C.ar    
  16 C16            0.8134    -5.2475    -0.7405 C.ar    
  17 H17            3.2877    -0.4681    -0.0314 H       
  18 H18            3.1918     2.0141    -0.0175 H       
  19 H19           -2.0594     1.4723     0.0197 H       
  20 H20           -1.2593     2.9496     0.0240 H       
  21 H21            0.5475    -2.6504     0.7442 H       
  22 H22            1.3343    -2.2399    -2.2638 H       
  23 H23            3.3124    -2.2328    -0.6759 H       
  24 H24            2.7089    -3.8017     0.0829 H       
  25 H25           -0.6670    -3.4381    -3.1720 H       
  26 H26           -1.8853    -5.5582    -3.4612 H       
  27 H27           -1.3776    -7.4784    -2.0057 H       
  28 H28            0.3491    -7.2786    -0.2616 H       
  29 H29            1.5733    -5.1610     0.0221 H       
@<TRIPOS>BOND
   1    1    2 ar
   2    1    6 ar
   3    1    7 1
   4    2    3 ar
   5    3    4 ar
   6    3    8 1
   7    4    5 ar
   8    4   17 1
   9    5    6 ar
  10    5   18 1
  11    7   19 1
  12    7   20 1
  13    8    9 1
  14    8   10 1
  15    8   21 1
  16    9   10 1
  17    9   11 1
  18    9   22 1
  19   10   23 1
  20   10   24 1
  21   11   12 ar
  22   11   16 ar
  23   12   13 ar
  24   12   25 1
  25   13   14 ar
  26   13   26 1
  27   14   15 ar
  28   14   27 1
  29   15   16 ar
  30   15   28 1
  31   16   29 1

#	End of record

