#	Name: ASD01813798
#	Creating user name:	WinNT
#	Creation time:	15. 06. 2019 19:31

#	Modifying user name:	WinNT
#	Modification time:	15. 06. 2019 19:31

#	Program:	/corina/corina34_cracker 3.40 0067  02.08.2006

@<TRIPOS>MOLECULE
ASD01813798
  59   63    0    0    0
SMALL
NO_CHARGES


@<TRIPOS>ATOM
   1 C1            -0.0225     1.8097     0.0120 C.3     
   2 S2             0.0021    -0.0041     0.0020 S.3     
   3 C3             0.8799    -0.3967     1.4784 C.ar    
   4 C4             1.1063    -1.7284     1.8128 C.ar    
   5 C5             1.7968    -2.0221     2.9747 C.ar    
   6 C6             2.2396    -0.9707     3.7664 C.ar    
   7 C7             2.9964    -1.2438     5.0407 C.3     
   8 C8             4.4726    -1.3074     4.7444 C.ar    
   9 C9             5.0537    -2.5086     4.5125 C.ar    
  10 C10            6.4252    -2.6126     4.2329 C.ar    
  11 C11            7.0660    -3.9095     3.9799 C.2     
  12 O12            6.4269    -4.9459     4.0039 O.2     
  13 N13            8.3938    -3.9086     3.7187 N.am    
  14 C14            9.0902    -2.7447     3.6955 C.2     
  15 N15            8.5434    -1.5850     3.9166 N.2     
  16 C16            7.2330    -1.4618     4.1865 C.ar    
  17 C17            6.6131    -0.1636     4.4354 C.ar    
  18 C18            7.3555     1.0212     4.4047 C.ar    
  19 C19            6.7356     2.2131     4.6428 C.ar    
  20 C20            5.3726     2.2651     4.9162 C.ar    
  21 C21            4.6207     1.1287     4.9535 C.ar    
  22 C22            5.2241    -0.1141     4.7076 C.ar    
  23 C23            9.0845    -5.1742     3.4595 C.3     
  24 H24            8.3735    -5.9983     3.5191 H       
  25 C25            9.7049    -5.1401     2.0890 C.3     
  26 C26            9.6998    -6.5206     1.4050 C.3     
  27 C27           10.0686    -7.6656     2.3676 C.3     
  28 C28           11.2075    -7.3046     3.2823 C.3     
  29 C29           10.6227    -6.7658     4.6039 C.3     
  30 C30           10.2022    -5.3777     4.5028 C.3     
  31 H31           11.0631    -4.7717     4.2206 H       
  32 O32            9.7296    -4.9404     5.7785 O.3     
  33 C33            1.9800     0.3275     3.3743 C.ar    
  34 N34            1.3235     0.5787     2.2578 N.ar    
  35 H35            1.0001     2.1870     0.0043 H       
  36 H36           -0.5497     2.1708    -0.8711 H       
  37 H37           -0.5327     2.1613     0.9088 H       
  38 H38            0.7474    -2.5218     1.1740 H       
  39 H39            1.9870    -3.0462     3.2600 H       
  40 H40            2.8035    -0.4445     5.7562 H       
  41 H41            2.6689    -2.1947     5.4611 H       
  42 H42            4.4502    -3.4038     4.5438 H       
  43 H43           10.1486    -2.7826     3.4840 H       
  44 H44            8.4143     0.9928     4.1939 H       
  45 H45            7.3102     3.1273     4.6191 H       
  46 H46            4.9033     3.2198     5.1020 H       
  47 H47            3.5635     1.1851     5.1671 H       
  48 H48            9.1498    -4.4369     1.4681 H       
  49 H49           10.7346    -4.7936     2.1765 H       
  50 H50            8.7056    -6.7085     0.9998 H       
  51 H51           10.4155    -6.5082     0.5830 H       
  52 H52            9.1958    -7.9131     2.9719 H       
  53 H53           10.3499    -8.5413     1.7827 H       
  54 H54           11.8108    -8.1900     3.4829 H       
  55 H55           11.8236    -6.5367     2.8145 H       
  56 H56            9.7613    -7.3730     4.8822 H       
  57 H57           11.3785    -6.8500     5.3847 H       
  58 H58           10.3761    -5.0357     6.4913 H       
  59 H59            2.3226     1.1480     3.9872 H       
@<TRIPOS>BOND
   1    1    2 1
   2    1   35 1
   3    1   36 1
   4    1   37 1
   5    2    3 1
   6    3   34 ar
   7    3    4 ar
   8    4    5 ar
   9    4   38 1
  10    5    6 ar
  11    5   39 1
  12    6    7 1
  13    6   33 ar
  14    7    8 1
  15    7   40 1
  16    7   41 1
  17    8   22 ar
  18    8    9 ar
  19    9   10 ar
  20    9   42 1
  21   10   16 ar
  22   10   11 1
  23   11   12 2
  24   11   13 am
  25   13   14 1
  26   13   23 1
  27   14   15 2
  28   14   43 1
  29   15   16 1
  30   16   17 ar
  31   17   22 ar
  32   17   18 ar
  33   18   19 ar
  34   18   44 1
  35   19   20 ar
  36   19   45 1
  37   20   21 ar
  38   20   46 1
  39   21   22 ar
  40   21   47 1
  41   23   24 1
  42   23   30 1
  43   23   25 1
  44   25   26 1
  45   25   48 1
  46   25   49 1
  47   26   27 1
  48   26   50 1
  49   26   51 1
  50   27   28 1
  51   27   52 1
  52   27   53 1
  53   28   29 1
  54   28   54 1
  55   28   55 1
  56   29   30 1
  57   29   56 1
  58   29   57 1
  59   30   31 1
  60   30   32 1
  61   32   58 1
  62   33   34 ar
  63   33   59 1

#	End of record

