#	Name: ASD01917342
#	Creating user name:	WinNT
#	Creation time:	15. 06. 2019 20:09

#	Modifying user name:	WinNT
#	Modification time:	15. 06. 2019 20:09

#	Program:	/corina/corina34_cracker 3.40 0067  02.08.2006

@<TRIPOS>MOLECULE
ASD01917342
  54   57    0    0    0
SMALL
NO_CHARGES


@<TRIPOS>ATOM
   1 C1            -0.0079     1.3961     0.0066 C.ar    
   2 C2             0.0139     0.0032     0.0026 C.ar    
   3 C3             1.2357    -0.6508    -0.0160 C.ar    
   4 C4             2.3935     0.1114    -0.0299 C.ar    
   5 C5             2.2969     1.4936    -0.0248 C.ar    
   6 N6             1.1241     2.0887    -0.0071 N.ar    
   7 C7            -1.3060     2.1105     0.0201 C.2     
   8 O8            -2.3456     1.4814     0.0276 O.2     
   9 N9            -1.3337     3.4579     0.0241 N.am    
  10 C10           -2.6171     4.1642     0.0375 C.3     
  11 C11           -3.4946     3.8162    -1.1778 C.3     
  12 C12           -4.8909     4.4059    -0.9698 C.3     
  13 C13           -4.8006     5.9132    -0.7235 C.3     
  14 C14           -3.8670     6.1709     0.4722 C.3     
  15 C15           -4.2543     5.1707     1.5858 C.3     
  16 C16           -3.4469     3.8671     1.3078 C.3     
  17 C17           -2.4510     5.7069     0.0398 C.3     
  18 C18           -3.9078     7.6033     0.9388 C.2     
  19 N19           -5.0704     8.1438     1.3542 N.am    
  20 O20           -2.8945     8.2695     0.9404 O.2     
  21 C21           -5.0892     9.4320     1.8866 C.ar    
  22 C22           -6.3039    10.0248     2.2129 C.ar    
  23 C23           -6.3082    11.3037     2.7410 C.ar    
  24 C24           -5.0924    11.9482     2.9254 C.ar    
  25 C25           -3.9239    11.2993     2.5791 C.ar    
  26 N26           -3.9504    10.0774     2.0821 N.ar    
  27 C27           -2.6010    11.9935     2.7762 C.3     
  28 C28            3.5527     2.3265    -0.0399 C.3     
  29 H29           -0.9081    -0.5590     0.0141 H       
  30 H30            1.2846    -1.7297    -0.0192 H       
  31 H31            3.3614    -0.3675    -0.0441 H       
  32 H32           -0.5038     3.9601     0.0181 H       
  33 H33           -3.0515     4.2376    -2.0801 H       
  34 H34           -3.5672     2.7332    -1.2770 H       
  35 H35           -5.4963     4.2210    -1.8571 H       
  36 H36           -5.3601     3.9275    -0.1101 H       
  37 H37           -4.4010     6.4044    -1.6107 H       
  38 H38           -5.7928     6.3067    -0.5029 H       
  39 H39           -3.9864     5.5748     2.5621 H       
  40 H40           -5.3234     4.9620     1.5467 H       
  41 H41           -4.1275     3.0356     1.1248 H       
  42 H42           -2.7849     3.6336     2.1416 H       
  43 H43           -1.6901     6.0169     0.7560 H       
  44 H44           -2.2189     6.0765    -0.9591 H       
  45 H45           -5.8941     7.6365     1.2827 H       
  46 H46           -7.2314     9.4944     2.0558 H       
  47 H47           -7.2363    11.7896     3.0035 H       
  48 H48           -5.0610    12.9470     3.3351 H       
  49 H49           -2.2181    11.7699     3.7720 H       
  50 H50           -1.8913    11.6428     2.0269 H       
  51 H51           -2.7366    13.0701     2.6724 H       
  52 H52            3.8414     2.5300    -1.0711 H       
  53 H53            3.3708     3.2676     0.4790 H       
  54 H54            4.3544     1.7842     0.4615 H       
@<TRIPOS>BOND
   1    1    2 ar
   2    1    6 ar
   3    1    7 1
   4    2    3 ar
   5    2   29 1
   6    3    4 ar
   7    3   30 1
   8    4    5 ar
   9    4   31 1
  10    5    6 ar
  11    5   28 1
  12    7    8 2
  13    7    9 am
  14    9   10 1
  15    9   32 1
  16   10   11 1
  17   10   16 1
  18   10   17 1
  19   11   12 1
  20   11   33 1
  21   11   34 1
  22   12   13 1
  23   12   35 1
  24   12   36 1
  25   13   14 1
  26   13   37 1
  27   13   38 1
  28   14   15 1
  29   14   17 1
  30   14   18 1
  31   15   16 1
  32   15   39 1
  33   15   40 1
  34   16   41 1
  35   16   42 1
  36   17   43 1
  37   17   44 1
  38   18   19 am
  39   18   20 2
  40   19   21 1
  41   19   45 1
  42   21   22 ar
  43   21   26 ar
  44   22   23 ar
  45   22   46 1
  46   23   24 ar
  47   23   47 1
  48   24   25 ar
  49   24   48 1
  50   25   26 ar
  51   25   27 1
  52   27   49 1
  53   27   50 1
  54   27   51 1
  55   28   52 1
  56   28   53 1
  57   28   54 1

#	End of record

