#	Name: ASD01880189
#	Creating user name:	WinNT
#	Creation time:	15. 06. 2019 19:40

#	Modifying user name:	WinNT
#	Modification time:	15. 06. 2019 19:40

#	Program:	/corina/corina34_cracker 3.40 0067  02.08.2006

@<TRIPOS>MOLECULE
ASD01880189
  45   49    0    0    0
SMALL
NO_CHARGES


@<TRIPOS>ATOM
   1 C1            -0.0184     1.5028     0.0103 C.2     
   2 C2             0.0021    -0.0041     0.0020 C.3     
   3 N3            -0.0988    -0.5027     1.3801 N.3     
   4 C4            -0.3226    -1.9712     1.3998 C.3     
   5 C5            -0.9314    -2.2533     2.7902 C.3     
   6 C6            -1.5699    -0.9185     3.2265 C.3     
   7 C7            -1.2932     0.0577     2.0630 C.3     
   8 C8            -2.4489    -2.1399     2.9497 C.3     
   9 H9            -1.4650    -0.5367     4.2420 H       
  10 H10           -0.3512    -2.8651     3.4810 H       
  11 C11           -3.0855    -2.8378     4.1532 C.3     
  12 O12           -4.5076    -2.7225     4.0734 O.3     
  13 C13           -5.2300    -3.2931     5.0731 C.ar    
  14 C14           -6.6153    -3.2192     5.0588 C.ar    
  15 C15           -7.3473    -3.8000     6.0762 C.ar    
  16 C16           -6.7005    -4.4546     7.1082 C.ar    
  17 C17           -5.3200    -4.5292     7.1250 C.ar    
  18 C18           -4.5836    -3.9553     6.1067 C.ar    
  19 C19            1.0681     2.3058     0.0042 C.2     
  20 N20            0.6163     3.5973     0.0155 N.pl3   
  21 C21           -0.7534     3.5426     0.0283 C.2     
  22 N22           -1.1132     2.2668     0.0190 N.2     
  23 C23            1.2601     4.8007     0.0162 C.2     
  24 C24            0.5601     5.9545     0.0299 C.2     
  25 C25           -0.8443     5.9313     0.0437 C.2     
  26 C26           -1.4986     4.7387     0.0419 C.2     
  27 H27           -0.8403    -0.3757    -0.5814 H       
  28 H28            0.9341    -0.3524    -0.4431 H       
  29 H29           -1.0203    -2.2600     0.6137 H       
  30 H30            0.6226    -2.5015     1.2841 H       
  31 H31           -1.0787     1.0552     2.4466 H       
  32 H32           -2.1427     0.0865     1.3806 H       
  33 H33           -3.0502    -2.1304     2.0406 H       
  34 H34           -2.8058    -3.8913     4.1522 H       
  35 H35           -2.7341    -2.3694     5.0726 H       
  36 H36           -7.1210    -2.7078     4.2531 H       
  37 H37           -8.4257    -3.7425     6.0658 H       
  38 H38           -7.2746    -4.9080     7.9027 H       
  39 H39           -4.8170    -5.0404     7.9325 H       
  40 H40           -3.5053    -4.0139     6.1202 H       
  41 H41            2.1002     1.9878    -0.0070 H       
  42 H42            2.3396     4.8300     0.0061 H       
  43 H43            1.0822     6.9000     0.0307 H       
  44 H44           -1.4021     6.8560     0.0557 H       
  45 H45           -2.5781     4.7088     0.0521 H       
@<TRIPOS>BOND
   1    1    2 1
   2    1   19 2
   3    1   22 1
   4    2    3 1
   5    2   27 1
   6    2   28 1
   7    3    4 1
   8    3    7 1
   9    4    5 1
  10    4   29 1
  11    4   30 1
  12    5    6 1
  13    5   10 1
  14    5    8 1
  15    6    7 1
  16    6    9 1
  17    6    8 1
  18    7   31 1
  19    7   32 1
  20    8   11 1
  21    8   33 1
  22   11   12 1
  23   11   34 1
  24   11   35 1
  25   12   13 1
  26   13   14 ar
  27   13   18 ar
  28   14   15 ar
  29   14   36 1
  30   15   16 ar
  31   15   37 1
  32   16   17 ar
  33   16   38 1
  34   17   18 ar
  35   17   39 1
  36   18   40 1
  37   19   20 1
  38   19   41 1
  39   20   21 1
  40   20   23 1
  41   21   22 2
  42   21   26 1
  43   23   24 2
  44   23   42 1
  45   24   25 1
  46   24   43 1
  47   25   26 2
  48   25   44 1
  49   26   45 1

#	End of record

