#	Name: ASD07300471
#	Creating user name:	WinNT
#	Creation time:	15. 06. 2019 21:09

#	Modifying user name:	WinNT
#	Modification time:	15. 06. 2019 21:09

#	Program:	/corina/corina34_cracker 3.40 0067  02.08.2006

@<TRIPOS>MOLECULE
ASD07300471
  35   36    0    0    0
SMALL
NO_CHARGES


@<TRIPOS>ATOM
   1 N1            -0.0178     1.4611     0.0101 N.am    
   2 C2             0.0021    -0.0041     0.0020 C.3     
   3 C3             1.4907    -0.3873    -0.0143 C.3     
   4 C4             2.2255     0.9344    -0.0142 C.ar    
   5 C5             3.5778     1.2173    -0.0256 C.ar    
   6 C6             4.0133     2.5353    -0.0222 C.ar    
   7 C7             3.0831     3.5667    -0.0078 C.ar    
   8 C8             1.7349     3.2825     0.0036 C.ar    
   9 C9             1.2924     1.9583     0.0002 C.ar    
  10 C10           -1.1322     2.2190     0.0197 C.2     
  11 O11           -2.2264     1.6905     0.0222 O.2     
  12 O12           -1.0331     3.5619     0.0265 O.3     
  13 N13            5.3824     2.8234    -0.0328 N.pl3   
  14 C14           -2.2747     4.3145     0.0367 C.3     
  15 C15           -3.0786     3.9553     1.2880 C.3     
  16 C16           -1.9632     5.8124     0.0433 C.3     
  17 C17           -3.0909     3.9689    -1.2104 C.3     
  18 H18           -0.4788    -0.3936     0.8993 H       
  19 H19           -0.4959    -0.3840    -0.8900 H       
  20 H20            1.7446    -0.9633     0.8756 H       
  21 H21            1.7275    -0.9537    -0.9150 H       
  22 H22            4.2971     0.4117    -0.0368 H       
  23 H23            3.4173     4.5937    -0.0051 H       
  24 H24            1.0163     4.0886     0.0151 H       
  25 H25            6.0299     2.1013    -0.0425 H       
  26 H26            5.6840     3.7453    -0.0304 H       
  27 H27           -2.4971     4.2015     2.1765 H       
  28 H28           -4.0107     4.5203     1.2957 H       
  29 H29           -3.3006     2.8882     1.2833 H       
  30 H30           -1.3905     6.0684    -0.8481 H       
  31 H31           -2.8953     6.3774     0.0510 H       
  32 H32           -1.3817     6.0587     0.9318 H       
  33 H33           -3.3129     2.9017    -1.2151 H       
  34 H34           -4.0230     4.5338    -1.2027 H       
  35 H35           -2.5182     4.2248    -2.1018 H       
@<TRIPOS>BOND
   1    1    2 1
   2    1    9 1
   3    1   10 am
   4    2    3 1
   5    2   18 1
   6    2   19 1
   7    3    4 1
   8    3   20 1
   9    3   21 1
  10    4    5 ar
  11    4    9 ar
  12    5    6 ar
  13    5   22 1
  14    6    7 ar
  15    6   13 1
  16    7    8 ar
  17    7   23 1
  18    8    9 ar
  19    8   24 1
  20   10   11 2
  21   10   12 1
  22   12   14 1
  23   13   25 1
  24   13   26 1
  25   14   15 1
  26   14   17 1
  27   14   16 1
  28   15   27 1
  29   15   28 1
  30   15   29 1
  31   16   30 1
  32   16   31 1
  33   16   32 1
  34   17   33 1
  35   17   34 1
  36   17   35 1

#	End of record

