#	Name: ASD01911571
#	Creating user name:	WinNT
#	Creation time:	15. 06. 2019 19:58

#	Modifying user name:	WinNT
#	Modification time:	15. 06. 2019 19:58

#	Program:	/corina/corina34_cracker 3.40 0067  02.08.2006

@<TRIPOS>MOLECULE
ASD01911571
  34   36    0    0    0
SMALL
NO_CHARGES


@<TRIPOS>ATOM
   1 N1            -0.0171     1.3436     0.0001 N.am    
   2 C2             0.0021    -0.0041     0.0020 C.2     
   3 C3            -1.2505    -0.7542     0.1205 C.2     
   4 C4            -1.3859    -2.1134     0.0310 C.2     
   5 S5            -2.8469    -0.0657     0.4110 S.3     
   6 C6            -3.5481    -1.6810     0.3759 C.2     
   7 N7            -2.6013    -2.5624     0.1683 N.2     
   8 C8            -4.9364    -1.9842     0.5528 C.1     
   9 C9            -6.0746    -2.2328     0.6978 C.1     
  10 C10           -7.4629    -2.5361     0.8746 C.ar    
  11 C11           -7.9037    -3.8624     0.8262 C.ar    
  12 C12           -9.2413    -4.1475     0.9971 C.ar    
  13 C13          -10.1491    -3.1228     1.2167 C.ar    
  14 C14           -9.7185    -1.8057     1.2659 C.ar    
  15 C15           -8.3829    -1.5076     1.1022 C.ar    
  16 O16            1.0602    -0.5978    -0.0947 O.2     
  17 C17            1.1685     2.2197    -0.0146 C.3     
  18 F18          -11.4589    -3.4088     1.3831 F       
  19 C19           -1.2238     2.1834     0.0059 C.3     
  20 C20           -0.7585     3.6544    -0.0272 C.3     
  21 C21            0.6686     3.5532    -0.6241 C.3     
  22 H22           -0.5443    -2.7677    -0.1417 H       
  23 H23           -7.1977    -4.6615     0.6548 H       
  24 H24           -9.5831    -5.1713     0.9596 H       
  25 H25          -10.4307    -1.0121     1.4373 H       
  26 H26           -8.0487    -0.4813     1.1411 H       
  27 H27            1.5345     2.3798     0.9995 H       
  28 H28            1.9516     1.7878    -0.6377 H       
  29 H29           -1.8306     1.9666    -0.8733 H       
  30 H30           -1.8006     1.9973     0.9119 H       
  31 H31           -1.4036     4.2485    -0.6745 H       
  32 H32           -0.7297     4.0725     0.9790 H       
  33 H33            1.2889     4.3878    -0.2973 H       
  34 H34            0.6339     3.4968    -1.7121 H       
@<TRIPOS>BOND
   1    1    2 am
   2    1   19 1
   3    1   17 1
   4    2    3 1
   5    2   16 2
   6    3    4 2
   7    3    5 1
   8    4    7 1
   9    4   22 1
  10    5    6 1
  11    6    7 2
  12    6    8 1
  13    8    9 3
  14    9   10 1
  15   10   11 ar
  16   10   15 ar
  17   11   12 ar
  18   11   23 1
  19   12   13 ar
  20   12   24 1
  21   13   14 ar
  22   13   18 1
  23   14   15 ar
  24   14   25 1
  25   15   26 1
  26   17   21 1
  27   17   27 1
  28   17   28 1
  29   19   20 1
  30   19   29 1
  31   19   30 1
  32   20   21 1
  33   20   31 1
  34   20   32 1
  35   21   33 1
  36   21   34 1

#	End of record

