#	Name: ASD00069059
#	Creating user name:	WinNT
#	Creation time:	15. 06. 2019 18:29

#	Modifying user name:	WinNT
#	Modification time:	15. 06. 2019 18:29

#	Program:	/corina/corina34_cracker 3.40 0067  02.08.2006

@<TRIPOS>MOLECULE
ASD00069059
  27   27    0    0    0
SMALL
NO_CHARGES


@<TRIPOS>ATOM
   1 C1            -0.0187     1.5258     0.0104 C.3     
   2 C2             0.0021    -0.0041     0.0020 C.3     
   3 C3             0.7182    -0.4975    -1.2568 C.3     
   4 C4             2.1536     0.0321    -1.2676 C.3     
   5 C5             2.1328     1.5619    -1.2592 C.3     
   6 C6             1.4167     2.0553    -0.0004 C.3     
   7 F7             0.6787    -0.4675     1.1354 F       
   8 F8            -1.3104    -0.4883     0.0119 F       
   9 C9             3.5682     2.0915    -1.2701 C.3     
  10 C10            4.2844     1.5981    -2.5289 C.3     
  11 C11            3.5475     3.6213    -1.2617 C.3     
  12 H12           -0.5459     1.8868    -0.8726 H       
  13 H13           -0.5289     1.8773     0.9072 H       
  14 H14            0.7330    -1.5874    -1.2628 H       
  15 H15            0.1910    -0.1364    -2.1398 H       
  16 H16            2.6808    -0.3290    -0.3846 H       
  17 H17            2.6638    -0.3194    -2.1644 H       
  18 H18            1.6057     1.9230    -2.1423 H       
  19 H19            1.4019     3.1452     0.0056 H       
  20 H20            1.9439     1.6943     0.8826 H       
  21 H21            4.0954     1.7304    -0.3870 H       
  22 H22            3.7572     1.9592    -3.4120 H       
  23 H23            5.3070     1.9754    -2.5366 H       
  24 H24            4.2992     0.5082    -2.5349 H       
  25 H25            3.0373     3.9729    -0.3649 H       
  26 H26            4.5701     3.9986    -1.2694 H       
  27 H27            3.0203     3.9824    -2.1447 H       
@<TRIPOS>BOND
   1    1    2 1
   2    1    6 1
   3    1   12 1
   4    1   13 1
   5    2    3 1
   6    2    7 1
   7    2    8 1
   8    3    4 1
   9    3   14 1
  10    3   15 1
  11    4    5 1
  12    4   16 1
  13    4   17 1
  14    5    6 1
  15    5    9 1
  16    5   18 1
  17    6   19 1
  18    6   20 1
  19    9   10 1
  20    9   11 1
  21    9   21 1
  22   10   22 1
  23   10   23 1
  24   10   24 1
  25   11   25 1
  26   11   26 1
  27   11   27 1

#	End of record

