#	Name: ASD02030221
#	Creating user name:	WinNT
#	Creation time:	15. 06. 2019 20:14

#	Modifying user name:	WinNT
#	Modification time:	15. 06. 2019 20:14

#	Program:	/corina/corina34_cracker 3.40 0067  02.08.2006

@<TRIPOS>MOLECULE
ASD02030221
  55   59    0    0    0
SMALL
NO_CHARGES


@<TRIPOS>ATOM
   1 N1            -0.9986     2.1268    -1.3668 N.am    
   2 C2            -0.9330     0.7000    -1.7128 C.3     
   3 C3            -1.0927    -0.1235    -0.4289 C.3     
   4 N4            -2.2645     0.3740     0.3054 N.am    
   5 C5            -2.3302     1.8008     0.6515 C.3     
   6 C6            -2.1678     2.6232    -0.6276 C.3     
   7 C7            -0.0019     2.9639    -1.7162 C.2     
   8 C8             1.2191     2.4323    -2.3582 C.2     
   9 N9             2.3083     3.1163    -2.6349 N.2     
  10 N10            1.4144     1.1620    -2.7572 N.2     
  11 C11            2.6151     1.0969    -3.2737 C.2     
  12 N12            3.1621     2.3270    -3.1901 N.pl3   
  13 C13            4.4426     2.6859    -3.6323 C.ar    
  14 O14           -0.1068     4.1562    -1.5035 O.2     
  15 C15           -3.2612    -0.4632     0.6548 C.2     
  16 C16           -3.1817    -1.8964     0.2997 C.ar    
  17 O17           -4.2255    -0.0401     1.2619 O.2     
  18 C18            4.8876     3.9926    -3.4868 C.ar    
  19 C19            6.1513     4.3435    -3.9242 C.ar    
  20 C20            6.9715     3.3932    -4.5066 C.ar    
  21 C21            6.5298     2.0910    -4.6527 C.ar    
  22 C22            5.2708     1.7335    -4.2117 C.ar    
  23 C23           -3.6828     2.1112     1.2957 C.3     
  24 Cl24           6.7094     5.9773    -3.7430 Cl      
  25 C25           -4.3442    -2.6126     0.0232 C.ar    
  26 C26           -4.2604    -3.9626    -0.3106 C.ar    
  27 C27           -3.0137    -4.5889    -0.3659 C.ar    
  28 C28           -1.8651    -3.8731    -0.0907 C.ar    
  29 C29           -1.9405    -2.5337     0.2351 C.ar    
  30 N30           -5.5333    -5.9919    -0.9269 N.2     
  31 C31           -5.4893    -4.7308    -0.6052 C.2     
  32 C32           -6.7187    -6.5091    -1.1542 C.2     
  33 C33           -7.7539    -5.6722    -1.0275 C.2     
  34 S34           -7.1290    -4.0870    -0.5765 S.3     
  35 H35           -1.7366     0.4546    -2.4072 H       
  36 H36            0.0306     0.4788    -2.1718 H       
  37 H37           -1.2390    -1.1733    -0.6834 H       
  38 H38           -0.2010    -0.0152     0.1885 H       
  39 H39           -1.5265     2.0462     1.3458 H       
  40 H40           -2.0216     3.6726    -0.3717 H       
  41 H41           -3.0583     2.5159    -1.2470 H       
  42 H42            3.0842     0.2169    -3.6885 H       
  43 H43            4.2472     4.7345    -3.0329 H       
  44 H44            7.9582     3.6691    -4.8479 H       
  45 H45            7.1718     1.3516    -5.1083 H       
  46 H46            4.9270     0.7161    -4.3260 H       
  47 H47           -3.7648     1.5784     2.2431 H       
  48 H48           -3.7628     3.1836     1.4738 H       
  49 H49           -4.4843     1.7927     0.6292 H       
  50 H50           -5.3061    -2.1236     0.0677 H       
  51 H51           -2.9475    -5.6354    -0.6242 H       
  52 H52           -0.9033    -4.3624    -0.1346 H       
  53 H53           -1.0385    -1.9796     0.4492 H       
  54 H54           -6.8494    -7.5459    -1.4268 H       
  55 H55           -8.7935    -5.9240    -1.1762 H       
@<TRIPOS>BOND
   1    1    2 1
   2    1    7 am
   3    1    6 1
   4    2    3 1
   5    2   35 1
   6    2   36 1
   7    3    4 1
   8    3   37 1
   9    3   38 1
  10    4    5 1
  11    4   15 am
  12    5    6 1
  13    5   23 1
  14    5   39 1
  15    6   40 1
  16    6   41 1
  17    7    8 1
  18    7   14 2
  19    8    9 2
  20    8   10 1
  21    9   12 1
  22   10   11 2
  23   11   12 1
  24   11   42 1
  25   12   13 1
  26   13   18 ar
  27   13   22 ar
  28   15   16 1
  29   15   17 2
  30   16   25 ar
  31   16   29 ar
  32   18   19 ar
  33   18   43 1
  34   19   20 ar
  35   19   24 1
  36   20   21 ar
  37   20   44 1
  38   21   22 ar
  39   21   45 1
  40   22   46 1
  41   23   47 1
  42   23   48 1
  43   23   49 1
  44   25   26 ar
  45   25   50 1
  46   26   27 ar
  47   26   31 1
  48   27   28 ar
  49   27   51 1
  50   28   29 ar
  51   28   52 1
  52   29   53 1
  53   30   31 2
  54   30   32 1
  55   31   34 1
  56   32   33 2
  57   32   54 1
  58   33   34 1
  59   33   55 1

#	End of record

