#	Name: ASD01020013
#	Creating user name:	WinNT
#	Creation time:	15. 06. 2019 18:56

#	Modifying user name:	WinNT
#	Modification time:	15. 06. 2019 18:56

#	Program:	/corina/corina34_cracker 3.40 0067  02.08.2006

@<TRIPOS>MOLECULE
ASD01020013
  40   43    0    0    0
SMALL
NO_CHARGES


@<TRIPOS>ATOM
   1 C1             1.0040     1.6035     2.3008 C.2     
   2 C2             1.5059     3.6029     1.1293 C.2     
   3 C3             1.7268     3.7742    -1.3157 C.ar    
   4 C4             1.6956    10.4099     0.4612 C.ar    
   5 C5             2.5721     9.3467     0.5244 C.ar    
   6 C6             2.1034     8.0472     0.3215 C.ar    
   7 C7             0.7477     7.8414     0.0563 C.ar    
   8 C8            -0.1181     8.9089    -0.0050 C.ar    
   9 C9             0.3532    10.1942     0.2029 C.ar    
  10 C10            2.7784     6.7352     0.3260 C.2     
  11 O11            3.9651     6.5652     0.5270 O.2     
  12 C12            2.2020     4.3246     0.0043 C.3     
  13 N13            1.6461     2.2691     1.2631 N.am    
  14 O14            0.8194     4.2223     1.9142 O.2     
  15 N15            1.0721     0.3275     2.5189 N.2     
  16 C16            0.3976    -0.1386     3.5533 C.2     
  17 C17           -0.2722     0.7876     4.2420 C.2     
  18 S18            0.0155     2.3495     3.4794 S.3     
  19 C19            0.3989     3.8990    -1.6788 C.ar    
  20 C20           -0.0371     3.3938    -2.8894 C.ar    
  21 C21            0.8550     2.7642    -3.7371 C.ar    
  22 C22            2.1831     2.6402    -3.3745 C.ar    
  23 C23            2.6200     3.1496    -2.1660 C.ar    
  24 C24            0.5668     6.3534    -0.1108 C.3     
  25 N25            1.8933     5.7548     0.0766 N.am    
  26 H26            2.0578    11.4151     0.6184 H       
  27 H27            3.6183     9.5190     0.7299 H       
  28 H28           -1.1662     8.7436    -0.2064 H       
  29 H29           -0.3272    11.0316     0.1549 H       
  30 H30            3.2789     4.1804     0.0915 H       
  31 H31            2.1951     1.7737     0.6354 H       
  32 H32            0.3883    -1.1850     3.8206 H       
  33 H33           -0.8807     0.6111     5.1166 H       
  34 H34           -0.2981     4.3909    -1.0165 H       
  35 H35           -1.0748     3.4907    -3.1727 H       
  36 H36            0.5142     2.3689    -4.6827 H       
  37 H37            2.8800     2.1480    -4.0367 H       
  38 H38            3.6585     3.0560    -1.8843 H       
  39 H39           -0.1252     5.9735     0.6409 H       
  40 H40            0.1935     6.1314    -1.1105 H       
@<TRIPOS>BOND
   1    1   15 2
   2    1   13 1
   3    1   18 1
   4    2   13 am
   5    2   12 1
   6    2   14 2
   7    3   12 1
   8    3   23 ar
   9    3   19 ar
  10    4    5 ar
  11    4   26 1
  12    4    9 ar
  13    5   27 1
  14    5    6 ar
  15    6   10 1
  16    6    7 ar
  17    7    8 ar
  18    7   24 1
  19    8    9 ar
  20    8   28 1
  21    9   29 1
  22   10   11 2
  23   10   25 am
  24   12   30 1
  25   12   25 1
  26   13   31 1
  27   15   16 1
  28   16   32 1
  29   16   17 2
  30   17   18 1
  31   17   33 1
  32   19   34 1
  33   19   20 ar
  34   20   21 ar
  35   20   35 1
  36   21   22 ar
  37   21   36 1
  38   22   23 ar
  39   22   37 1
  40   23   38 1
  41   24   25 1
  42   24   39 1
  43   24   40 1

#	End of record

