#	Name: ASD03091463
#	Creating user name:	WinNT
#	Creation time:	15. 06. 2019 20:30

#	Modifying user name:	WinNT
#	Modification time:	15. 06. 2019 20:30

#	Program:	/corina/corina34_cracker 3.40 0067  02.08.2006

@<TRIPOS>MOLECULE
ASD03091463
  46   49    0    0    0
SMALL
NO_CHARGES


@<TRIPOS>ATOM
   1 C1            -0.4931     0.5770     0.3240 C.3     
   2 C2            -0.6200    -0.9409     0.4831 C.3     
   3 N3             0.7199    -1.5431     0.4957 N.3     
   4 C4             1.5083    -1.0534     1.6350 C.3     
   5 C5             1.6953     0.4612     1.5089 C.3     
   6 C6             0.9938     0.9425     0.2325 C.3     
   7 O7             2.9609     0.8349     3.8609 O.2     
   8 C8             1.8245     1.2640     3.8058 C.2     
   9 N9             1.1066     1.1271     2.6735 N.am    
  10 C10            1.9755     2.0773     6.1538 C.ar    
  11 C11            1.2318     1.9344     4.9782 C.ar    
  12 C12            1.6049     0.2089    -0.9680 C.3     
  13 C13            1.4206    -1.2987    -0.7725 C.3     
  14 C14            1.4220     2.7013     7.2418 C.ar    
  15 C15            0.1203     3.1927     7.1771 C.ar    
  16 C16           -0.6229     3.0519     6.0075 C.ar    
  17 C17           -0.0748     2.4288     4.9163 C.ar    
  18 S18           -0.5878     3.9936     8.5778 S.3     
  19 C19            0.6423     3.7790     9.8210 C.ar    
  20 C20            1.5996     4.7642    10.0310 C.ar    
  21 C21            0.6539     2.6268    10.5976 C.ar    
  22 C22            1.6191     2.4622    11.5713 C.ar    
  23 C23            2.5735     3.4424    11.7740 C.ar    
  24 C24            2.5617     4.5929    11.0064 C.ar    
  25 H25           -1.0035     0.8928    -0.5858 H       
  26 H26           -0.9388     1.0731     1.1862 H       
  27 H27           -1.1291    -1.1670     1.4200 H       
  28 H28           -1.1935    -1.3471    -0.3500 H       
  29 H29            0.9842    -1.2791     2.5637 H       
  30 H30            2.4830    -1.5411     1.6392 H       
  31 H31            2.7585     0.6943     1.4514 H       
  32 H32            1.1087     2.0211     0.1256 H       
  33 H33            0.2000     1.4694     2.6296 H       
  34 H34            2.9832     1.6924     6.2060 H       
  35 H35            1.1018     0.5228    -1.8825 H       
  36 H36            2.6678     0.4411    -1.0354 H       
  37 H37            2.3961    -1.7843    -0.7486 H       
  38 H38            0.8328    -1.7030    -1.5966 H       
  39 H39            1.9958     2.8116     8.1502 H       
  40 H40           -1.6320     3.4340     5.9602 H       
  41 H41           -0.6514     2.3203     4.0096 H       
  42 H42            1.5912     5.6627     9.4317 H       
  43 H43           -0.0912     1.8610    10.4401 H       
  44 H44            1.6285     1.5670    12.1755 H       
  45 H45            3.3272     3.3110    12.5363 H       
  46 H46            3.3085     5.3563    11.1674 H       
@<TRIPOS>BOND
   1    1    2 1
   2    1    6 1
   3    1   25 1
   4    1   26 1
   5    2    3 1
   6    2   27 1
   7    2   28 1
   8    3    4 1
   9    3   13 1
  10    4    5 1
  11    4   29 1
  12    4   30 1
  13    5    6 1
  14    5    9 1
  15    5   31 1
  16    6   12 1
  17    6   32 1
  18    7    8 2
  19    8    9 am
  20    8   11 1
  21    9   33 1
  22   10   11 ar
  23   10   14 ar
  24   10   34 1
  25   11   17 ar
  26   12   13 1
  27   12   35 1
  28   12   36 1
  29   13   37 1
  30   13   38 1
  31   14   15 ar
  32   14   39 1
  33   15   16 ar
  34   15   18 1
  35   16   17 ar
  36   16   40 1
  37   17   41 1
  38   18   19 1
  39   19   20 ar
  40   19   21 ar
  41   20   24 ar
  42   20   42 1
  43   21   22 ar
  44   21   43 1
  45   22   23 ar
  46   22   44 1
  47   23   24 ar
  48   23   45 1
  49   24   46 1

#	End of record

