#	Name: ASD01870482
#	Creating user name:	WinNT
#	Creation time:	15. 06. 2019 19:39

#	Modifying user name:	WinNT
#	Modification time:	15. 06. 2019 19:39

#	Program:	/corina/corina34_cracker 3.40 0067  02.08.2006

@<TRIPOS>MOLECULE
ASD01870482
  42   45    0    0    0
SMALL
NO_CHARGES


@<TRIPOS>ATOM
   1 C1            -0.0305     1.3966    -0.2318 C.ar    
   2 C2            -0.0275     0.0162    -0.1046 C.ar    
   3 C3             1.1516    -0.6624     0.1401 C.ar    
   4 C4             2.3475     0.0280     0.2621 C.ar    
   5 C5             2.3598     1.4079     0.1373 C.ar    
   6 C6             1.1573     2.0999    -0.1127 C.ar    
   7 C7             3.4144     2.4414     0.2055 C.2     
   8 N8             2.8482     3.6454     0.0069 N.am    
   9 C9             1.5219     3.5305    -0.1866 C.2     
  10 O10            0.7531     4.4484    -0.3901 O.2     
  11 O11            4.5945     2.2376     0.4074 O.2     
  12 C12            3.5487     4.8615     0.0039 C.ar    
  13 C13            4.0785     5.3544    -1.1808 C.ar    
  14 C14            4.7672     6.5508    -1.1843 C.ar    
  15 C15            4.9308     7.2618    -0.0023 C.ar    
  16 C16            4.4012     6.7694     1.1831 C.ar    
  17 C17            3.7070     5.5748     1.1855 C.ar    
  18 Cl18           3.0384     4.9621     2.6657 Cl      
  19 N19            5.6301     8.4746    -0.0061 N.am    
  20 C20            6.4024     8.8104     1.0462 C.2     
  21 C21            7.2187    10.0368     0.9996 C.2     
  22 O22            6.4258     8.1014     2.0342 O.2     
  23 C23            8.0409    10.4987     1.9811 C.2     
  24 O24            8.5885    11.6381     1.5288 O.3     
  25 C25            8.1136    11.8715     0.2971 C.2     
  26 N26            7.2966    10.9172    -0.0349 N.2     
  27 C27            8.2890     9.8541     3.3205 C.3     
  28 C28           -1.3192     2.1285    -0.5048 C.3     
  29 H29           -0.9529    -0.5328    -0.1970 H       
  30 H30            1.1411    -1.7379     0.2372 H       
  31 H31            3.2656    -0.5073     0.4540 H       
  32 H32            3.9521     4.8016    -2.1000 H       
  33 H33            5.1791     6.9339    -2.1062 H       
  34 H34            4.5284     7.3220     2.1022 H       
  35 H35            5.5588     9.0732    -0.7660 H       
  36 H36            8.3730    12.7167    -0.3232 H       
  37 H37            9.1289     9.1639     3.2416 H       
  38 H38            8.5192    10.6239     4.0570 H       
  39 H39            7.3982     9.3084     3.6316 H       
  40 H40           -1.7913     2.3978     0.4401 H       
  41 H41           -1.1096     3.0324    -1.0768 H       
  42 H42           -1.9889     1.4848    -1.0750 H       
@<TRIPOS>BOND
   1    1    2 ar
   2    1    6 ar
   3    1   28 1
   4    2    3 ar
   5    2   29 1
   6    3    4 ar
   7    3   30 1
   8    4    5 ar
   9    4   31 1
  10    5    7 1
  11    5    6 ar
  12    6    9 1
  13    7    8 am
  14    7   11 2
  15    8    9 am
  16    8   12 1
  17    9   10 2
  18   12   13 ar
  19   12   17 ar
  20   13   14 ar
  21   13   32 1
  22   14   15 ar
  23   14   33 1
  24   15   16 ar
  25   15   19 1
  26   16   17 ar
  27   16   34 1
  28   17   18 1
  29   19   20 am
  30   19   35 1
  31   20   21 1
  32   20   22 2
  33   21   23 2
  34   21   26 1
  35   23   24 1
  36   23   27 1
  37   24   25 1
  38   25   26 2
  39   25   36 1
  40   27   37 1
  41   27   38 1
  42   27   39 1
  43   28   40 1
  44   28   41 1
  45   28   42 1

#	End of record

