#	Name: ASD02560544
#	Creating user name:	WinNT
#	Creation time:	15. 06. 2019 20:25

#	Modifying user name:	WinNT
#	Modification time:	15. 06. 2019 20:25

#	Program:	/corina/corina34_cracker 3.40 0067  02.08.2006

@<TRIPOS>MOLECULE
ASD02560544
  55   59    0    0    0
SMALL
NO_CHARGES


@<TRIPOS>ATOM
   1 N1            -0.0191     1.2805     0.0820 N.2     
   2 N2            -0.0010    -0.0042     0.0571 N.2     
   3 C3             1.1971     1.7474     0.0504 C.2     
   4 N4             2.0448     0.6724     0.0018 N.pl3   
   5 C5             1.2389    -0.4334     0.0077 C.2     
   6 S6             1.7650    -2.1143    -0.0412 S.3     
   7 C7             0.1587    -2.9476    -0.0038 C.3     
   8 C8             0.3661    -4.4399    -0.0386 C.2     
   9 O9             1.4893    -4.8951    -0.0842 O.2     
  10 N10           -0.6966    -5.2686    -0.0191 N.am    
  11 C11            3.4436     0.6994    -0.0449 C.ar    
  12 C12            4.1779     0.6907     1.1205 C.ar    
  13 C13            5.5691     0.7170     1.0854 C.ar    
  14 C14            6.2418     0.7522    -0.0979 C.ar    
  15 C15            5.5298     0.7621    -1.3092 C.ar    
  16 C16            4.1135     0.7298    -1.2857 C.ar    
  17 C17            6.1970     0.7982    -2.5460 C.ar    
  18 C18            5.4759     0.8070    -3.7002 C.ar    
  19 C19            4.0829     0.7806    -3.6760 C.ar    
  20 C20            3.4035     0.7399    -2.4968 C.ar    
  21 C21           -0.5091    -6.6458    -0.1332 C.ar    
  22 C22           -1.5274    -7.4454    -0.6462 C.ar    
  23 C23           -1.3452    -8.8058    -0.7601 C.ar    
  24 C24           -0.1360    -9.3831    -0.3603 C.ar    
  25 C25            0.8836    -8.5768     0.1536 C.ar    
  26 C26            0.6965    -7.2169     0.2602 C.ar    
  27 C27            0.0629   -10.8393    -0.4802 C.2     
  28 O28           -0.8244   -11.5390    -0.9267 O.2     
  29 Cl29          -3.0280    -6.7269    -1.1421 Cl      
  30 O30            1.2288   -11.3941    -0.0944 O.3     
  31 C31            7.7485     0.7811    -0.1084 C.3     
  32 C32            8.4374     1.9567     0.5874 C.3     
  33 C33            8.4685     0.5660     1.2244 C.3     
  34 C34            1.5969     3.2004     0.0639 C.3     
  35 F35            0.6419     3.9402     0.7695 F       
  36 F36            2.8433     3.3354     0.6847 F       
  37 H37           -0.3706    -2.6756     0.9093 H       
  38 H38           -0.4292    -2.6422    -0.8693 H       
  39 H39           -1.5919    -4.9071     0.0743 H       
  40 H40            3.6684     0.6637     2.0723 H       
  41 H41            6.1241     0.7096     2.0119 H       
  42 H42            7.2762     0.8193    -2.5801 H       
  43 H43            5.9910     0.8351    -4.6490 H       
  44 H44            3.5342     0.7882    -4.6062 H       
  45 H45            2.3237     0.7194    -2.4931 H       
  46 H46           -2.1352    -9.4259    -1.1573 H       
  47 H47            1.8187    -9.0197     0.4633 H       
  48 H48            1.4843    -6.5936     0.6570 H       
  49 H49            1.3125   -12.3525    -0.1920 H       
  50 H50            8.2201     0.3809    -1.0059 H       
  51 H51            9.3624     2.3298     0.1479 H       
  52 H52            7.8008     2.7093     1.0528 H       
  53 H53            7.8524     0.4036     2.1088 H       
  54 H54            9.4140     0.0241     1.2039 H       
  55 H55            1.6589     3.5697    -0.9598 H       
@<TRIPOS>BOND
   1    1    2 1
   2    1    3 2
   3    2    5 2
   4    3    4 1
   5    3   34 1
   6    4    5 1
   7    4   11 1
   8    5    6 1
   9    6    7 1
  10    7    8 1
  11    7   37 1
  12    7   38 1
  13    8    9 2
  14    8   10 am
  15   10   21 1
  16   10   39 1
  17   11   12 ar
  18   11   16 ar
  19   12   13 ar
  20   12   40 1
  21   13   14 ar
  22   13   41 1
  23   14   15 ar
  24   14   31 1
  25   15   16 ar
  26   15   17 ar
  27   16   20 ar
  28   17   18 ar
  29   17   42 1
  30   18   19 ar
  31   18   43 1
  32   19   20 ar
  33   19   44 1
  34   20   45 1
  35   21   22 ar
  36   21   26 ar
  37   22   23 ar
  38   22   29 1
  39   23   24 ar
  40   23   46 1
  41   24   25 ar
  42   24   27 1
  43   25   26 ar
  44   25   47 1
  45   26   48 1
  46   27   28 2
  47   27   30 1
  48   30   49 1
  49   31   32 1
  50   31   33 1
  51   31   50 1
  52   32   33 1
  53   32   51 1
  54   32   52 1
  55   33   53 1
  56   33   54 1
  57   34   35 1
  58   34   36 1
  59   34   55 1

#	End of record

