#	Name: ASD01238009
#	Creating user name:	WinNT
#	Creation time:	15. 06. 2019 19:15

#	Modifying user name:	WinNT
#	Modification time:	15. 06. 2019 19:15

#	Program:	/corina/corina34_cracker 3.40 0067  02.08.2006

@<TRIPOS>MOLECULE
ASD01238009
  51   53    0    0    0
SMALL
NO_CHARGES


@<TRIPOS>ATOM
   1 C1            -0.0165     1.3625     0.0095 C.2     
   2 C2             0.0021    -0.0041     0.0020 C.2     
   3 C3             1.3421    -0.5615    -0.0136 C.2     
   4 C4             2.2880     0.3851    -0.0176 C.2     
   5 S5             1.5675     1.9864    -0.0022 S.3     
   6 C6             3.7783     0.1044    -0.0329 C.3     
   7 C7             4.0084    -1.3536     0.3743 C.3     
   8 C8             3.0969    -2.2557    -0.4630 C.3     
   9 C9             1.6455    -2.0512    -0.0242 C.3     
  10 C10           -1.2121    -0.8261     0.0098 C.2     
  11 O11           -1.7263    -1.1619    -1.0410 O.2     
  12 N12           -1.7587    -1.2097     1.1805 N.am    
  13 N13           -1.1679     2.1352     0.0194 N.am    
  14 C14           -1.0770     3.4798     0.0263 C.2     
  15 O15            0.0118     4.0141     0.0238 O.2     
  16 C16           -2.3284     4.3195     0.0370 C.3     
  17 N17           -1.9642     5.7385     0.0429 N.pl3   
  18 N18           -1.1251     6.3702     0.9699 N.2     
  19 C19           -1.0398     7.6355     0.6482 C.2     
  20 C20           -1.8208     7.8500    -0.4922 C.2     
  21 C21           -2.3732     6.6669    -0.8470 C.2     
  22 C22           -0.2390     8.6814     1.3803 C.3     
  23 F23            0.4999     8.0732     2.4008 F       
  24 F24            0.6325     9.3121     0.4859 F       
  25 F25           -1.1059     9.6297     1.9338 F       
  26 C26           -2.0085     9.1651    -1.2037 C.3     
  27 N27           -0.8472     9.4262    -2.0647 N.3     
  28 C28           -0.9955    10.7030    -2.7758 C.3     
  29 C29            0.2303    10.9396    -3.6602 C.3     
  30 H30            4.1712     0.2701    -1.0360 H       
  31 H31            4.2820     0.7649     0.6730 H       
  32 H32            5.0499    -1.6218     0.1966 H       
  33 H33            3.7737    -1.4783     1.4314 H       
  34 H34            3.1977    -1.9975    -1.5172 H       
  35 H35            3.3793    -3.2979    -0.3138 H       
  36 H36            1.5069    -2.4594     0.9770 H       
  37 H37            0.9771    -2.5552    -0.7222 H       
  38 H38           -1.3488    -0.9420     2.0179 H       
  39 H39           -2.5619    -1.7535     1.1856 H       
  40 H40           -2.0387     1.7079     0.0214 H       
  41 H41           -2.9208     4.1002    -0.8513 H       
  42 H42           -2.9120     4.0905     0.9286 H       
  43 H43           -3.0267     6.4966    -1.6899 H       
  44 H44           -2.9108     9.1226    -1.8137 H       
  45 H45           -2.1036     9.9652    -0.4695 H       
  46 H46            0.0095     9.4064    -1.5321 H       
  47 H47           -1.8908    10.6712    -3.3968 H       
  48 H48           -1.0837    11.5137    -2.0526 H       
  49 H49            1.1256    10.9714    -3.0393 H       
  50 H50            0.3184    10.1289    -4.3835 H       
  51 H51            0.1203    11.8870    -4.1879 H       
@<TRIPOS>BOND
   1    1    2 2
   2    1    5 1
   3    1   13 1
   4    2    3 1
   5    2   10 1
   6    3    4 2
   7    3    9 1
   8    4    5 1
   9    4    6 1
  10    6    7 1
  11    6   30 1
  12    6   31 1
  13    7    8 1
  14    7   32 1
  15    7   33 1
  16    8    9 1
  17    8   34 1
  18    8   35 1
  19    9   36 1
  20    9   37 1
  21   10   11 2
  22   10   12 am
  23   12   38 1
  24   12   39 1
  25   13   14 am
  26   13   40 1
  27   14   15 2
  28   14   16 1
  29   16   17 1
  30   16   41 1
  31   16   42 1
  32   17   18 1
  33   17   21 1
  34   18   19 2
  35   19   20 1
  36   19   22 1
  37   20   21 2
  38   20   26 1
  39   21   43 1
  40   22   23 1
  41   22   24 1
  42   22   25 1
  43   26   27 1
  44   26   44 1
  45   26   45 1
  46   27   28 1
  47   27   46 1
  48   28   29 1
  49   28   47 1
  50   28   48 1
  51   29   49 1
  52   29   50 1
  53   29   51 1

#	End of record

