#	Name: ASD02160001
#	Creating user name:	WinNT
#	Creation time:	15. 06. 2019 20:18

#	Modifying user name:	WinNT
#	Modification time:	15. 06. 2019 20:18

#	Program:	/corina/corina34_cracker 3.40 0067  02.08.2006

@<TRIPOS>MOLECULE
ASD02160001
  86   89    0    0    0
SMALL
NO_CHARGES


@<TRIPOS>ATOM
   1 Cl1            0.0000     0.0000     0.0000 Cl      
   2 H2             0.0000     1.3700     0.0000 H       
   3 O3            15.5926    14.1976    11.2269 O.3     
   4 O4            17.8106    14.0403    11.2357 O.2     
   5 O5            13.7552    18.8595    12.1229 O.3     
   6 O6            15.2923    20.4296    12.4637 O.2     
   7 O7            11.2647    15.7102     9.1548 O.2     
   8 O8            11.4317    16.1588     7.1001 O.2     
   9 N9            12.5779    10.3810    11.1251 N.3     
  10 N10           18.3709    18.0509    11.3348 N.pl3   
  11 N11           11.9162    16.1350     8.2174 N.pl3   
  12 C12           10.1475     9.3061     9.9952 C.3     
  13 C13           11.0009     8.5115    10.9875 C.3     
  14 C14           10.3223    10.8027    10.2678 C.3     
  15 C15           12.4634     8.9422    10.8543 C.3     
  16 C16           11.8044    11.1670    10.1554 C.3     
  17 C17           10.5901     8.9954     8.5886 C.ar    
  18 C18            8.6980     8.9296    10.1632 C.ar    
  19 C19           13.9848    10.8031    11.1423 C.3     
  20 C20           14.0585    12.3309    11.1768 C.3     
  21 C21           10.7034     7.6815     8.1740 C.ar    
  22 C22            7.7228     9.5974     9.4463 C.ar    
  23 C23           10.8774    10.0242     7.7112 C.ar    
  24 C24            8.3441     7.9126    11.0300 C.ar    
  25 C25           15.5238    12.7706    11.1947 C.3     
  26 C26           11.1094     7.3965     6.8838 C.ar    
  27 C27            6.3932     9.2520     9.6005 C.ar    
  28 C28           11.2834     9.7392     6.4209 C.ar    
  29 C29            7.0145     7.5672    11.1841 C.ar    
  30 C30           11.4017     8.4253     6.0079 C.ar    
  31 C31            6.0388     8.2385    10.4712 C.ar    
  32 C32           15.7351    17.0206    11.2906 C.3     
  33 C33           16.9651    16.1580    11.2782 C.2     
  34 C34           16.8231    14.7513    11.2461 C.2     
  35 C35           16.0726    18.4223    11.7134 C.2     
  36 C36           18.1975    16.6943    11.2965 C.2     
  37 C37           15.1357    17.0501     9.9083 C.ar    
  38 C38           17.3409    18.8680    11.7138 C.2     
  39 C39           19.4030    15.7902    11.2742 C.3     
  40 C40           13.8465    16.5954     9.7042 C.ar    
  41 C41           15.8733    17.5371     8.8452 C.ar    
  42 C42           15.0336    19.2917    12.1187 C.2     
  43 C43           17.6318    20.2848    12.1369 C.3     
  44 C44           13.2966    16.6224     8.4360 C.ar    
  45 C45           15.3236    17.5641     7.5774 C.ar    
  46 C46           14.0360    17.1040     7.3722 C.ar    
  47 C47           12.7568    19.7911    12.5440 C.3     
  48 H48           19.2290    18.4350    11.0960 H       
  49 H49           10.6551     8.7066    12.0027 H       
  50 H50           10.9140     7.4467    10.7712 H       
  51 H51            9.7505    11.3749     9.5372 H       
  52 H52            9.9658    11.0338    11.2716 H       
  53 H53           12.8126     8.7341     9.8429 H       
  54 H54           13.0717     8.3885    11.5695 H       
  55 H55           11.9341    12.2292    10.3630 H       
  56 H56           12.1567    10.9485     9.1473 H       
  57 H57           14.4756    10.3956    12.0262 H       
  58 H58           14.4855    10.4353    10.2467 H       
  59 H59           13.5677    12.7384    10.2929 H       
  60 H60           13.5578    12.6987    12.0724 H       
  61 H61           10.4750     6.8778     8.8583 H       
  62 H62            7.9997    10.3892     8.7660 H       
  63 H63           10.7842    11.0508     8.0336 H       
  64 H64            9.1064     7.3876    11.5865 H       
  65 H65           16.0245    12.4028    10.2991 H       
  66 H66           16.0146    12.3631    12.0786 H       
  67 H67           11.1986     6.3700     6.5601 H       
  68 H68            5.6313     9.7742     9.0409 H       
  69 H69           11.5074    10.5430     5.7353 H       
  70 H70            6.7380     6.7724    11.8611 H       
  71 H71           11.7193     8.2026     5.0000 H       
  72 H72            5.0000     7.9689    10.5919 H       
  73 H73           15.0092    16.6007    11.9869 H       
  74 H74           20.3103    16.3940    11.2932 H       
  75 H75           19.3832    15.1366    12.1462 H       
  76 H76           19.3875    15.1862    10.3670 H       
  77 H77           13.2688    16.2188    10.5354 H       
  78 H78           16.8790    17.8968     9.0054 H       
  79 H79           18.7043    20.4694    12.0754 H       
  80 H80           17.1058    20.9759    11.4783 H       
  81 H81           17.2957    20.4338    13.1630 H       
  82 H82           15.8997    17.9449     6.7470 H       
  83 H83           13.6066    17.1247     6.3815 H       
  84 H84           11.7761    19.3172    12.5004 H       
  85 H85           12.9626    20.1067    13.5668 H       
  86 H86           12.7700    20.6600    11.8860 H       
@<TRIPOS>BOND
   1    1    2 1
   2    3   25 1
   3    3   34 1
   4    4   34 2
   5    5   42 1
   6    5   47 1
   7    6   42 2
   8    7   11 2
   9    8   11 2
  10    9   15 1
  11    9   16 1
  12    9   19 1
  13   10   36 1
  14   10   38 1
  15   10   48 1
  16   11   44 1
  17   12   13 1
  18   12   14 1
  19   12   17 1
  20   12   18 1
  21   13   15 1
  22   13   49 1
  23   13   50 1
  24   14   16 1
  25   14   51 1
  26   14   52 1
  27   15   53 1
  28   15   54 1
  29   16   55 1
  30   16   56 1
  31   17   21 ar
  32   17   23 ar
  33   18   22 ar
  34   18   24 ar
  35   19   20 1
  36   19   57 1
  37   19   58 1
  38   20   25 1
  39   20   59 1
  40   20   60 1
  41   21   26 ar
  42   21   61 1
  43   22   27 ar
  44   22   62 1
  45   23   28 ar
  46   23   63 1
  47   24   29 ar
  48   24   64 1
  49   25   65 1
  50   25   66 1
  51   26   30 ar
  52   26   67 1
  53   27   31 ar
  54   27   68 1
  55   28   30 ar
  56   28   69 1
  57   29   31 ar
  58   29   70 1
  59   30   71 1
  60   31   72 1
  61   32   33 1
  62   32   35 1
  63   32   37 1
  64   32   73 1
  65   33   34 1
  66   33   36 2
  67   35   38 2
  68   35   42 1
  69   36   39 1
  70   37   40 ar
  71   37   41 ar
  72   38   43 1
  73   39   74 1
  74   39   75 1
  75   39   76 1
  76   40   44 ar
  77   40   77 1
  78   41   45 ar
  79   41   78 1
  80   43   79 1
  81   43   80 1
  82   43   81 1
  83   44   46 ar
  84   45   46 ar
  85   45   82 1
  86   46   83 1
  87   47   84 1
  88   47   85 1
  89   47   86 1

#	End of record

