#	Name: ASD01810517
#	Creating user name:	WinNT
#	Creation time:	15. 06. 2019 19:24

#	Modifying user name:	WinNT
#	Modification time:	15. 06. 2019 19:24

#	Program:	/corina/corina34_cracker 3.40 0067  02.08.2006

@<TRIPOS>MOLECULE
ASD01810517
  76   78    0    0    0
SMALL
NO_CHARGES


@<TRIPOS>ATOM
   1 C1             0.0945     1.0917    -0.6373 C.ar    
   2 C2             0.0060    -0.2934    -0.6037 C.ar    
   3 C3            -1.2046    -0.9165    -0.3881 C.ar    
   4 C4            -2.3601    -0.1609    -0.2007 C.ar    
   5 C5            -2.2666     1.2402    -0.2240 C.ar    
   6 C6            -1.0337     1.8615    -0.4427 C.ar    
   7 N7            -3.5659    -0.8108    -0.0077 N.3     
   8 C8            -4.5530    -0.0230     0.7316 C.3     
   9 C9            -4.7977     1.3079     0.0060 C.3     
  10 C10           -3.4745     2.0527    -0.0009 C.2     
  11 C11           -3.3621    -2.1230     0.6203 C.3     
  12 C12           -4.6995    -2.7525     0.9140 C.ar    
  13 C13           -5.3071    -3.5573    -0.0315 C.ar    
  14 C14           -6.5339    -4.1347     0.2378 C.ar    
  15 C15           -7.1529    -3.9076     1.4528 C.ar    
  16 C16           -6.5448    -3.1035     2.3987 C.ar    
  17 C17           -5.3160    -2.5296     2.1310 C.ar    
  18 F18            1.2878     1.6865    -0.8553 F       
  19 O19           -3.4155     3.2526     0.1680 O.2     
  20 C20           -5.2501     1.0484    -1.4079 C.2     
  21 O21           -5.3689    -0.0907    -1.8071 O.2     
  22 C22           -7.5738     5.2592    -8.5228 C.3     
  23 C23           -8.0158     5.0056    -9.9038 C.1     
  24 C24           -8.3683     4.8034   -11.0053 C.1     
  25 C25           -8.8103     4.5499   -12.3863 C.3     
  26 O26           -9.0345     5.7949   -13.0508 O.3     
  27 C27           -9.4477     5.7386   -14.3372 C.2     
  28 N28           -9.6551     4.6720   -15.0088 N.2     
  29 C29           -9.7496     6.9311   -15.2246 C.3     
  30 C30           -9.7769     6.2986   -16.6369 C.3     
  31 O31          -10.0898     4.9231   -16.3305 O.3     
  32 N32           -7.3433     3.9793    -7.8397 N.4     
  33 C33           -8.5904     3.2031    -7.8200 C.3     
  34 C34           -6.3068     3.2225    -8.5544 C.3     
  35 N35           -5.5228     2.0820    -2.2286 N.am    
  36 C36           -5.9627     1.8297    -3.6031 C.3     
  37 C37           -6.2028     3.1628    -4.3146 C.3     
  38 C38           -6.6622     2.8992    -5.7500 C.3     
  39 C39           -6.9023     4.2323    -6.4615 C.3     
  40 H40            0.8951    -0.8891    -0.7484 H       
  41 H41           -1.2576    -1.9950    -0.3646 H       
  42 H42           -0.9662     2.9391    -0.4684 H       
  43 H43           -5.4882    -0.5795     0.7944 H       
  44 H44           -4.1806     0.1746     1.7368 H       
  45 H45           -5.5501     1.8898     0.5383 H       
  46 H46           -2.7986    -2.7659    -0.0558 H       
  47 H47           -2.8072    -1.9985     1.5502 H       
  48 H48           -4.8235    -3.7347    -0.9808 H       
  49 H49           -7.0089    -4.7629    -0.5011 H       
  50 H50           -8.1116    -4.3581     1.6630 H       
  51 H51           -7.0285    -2.9258     3.3478 H       
  52 H52           -4.8410    -1.9014     2.8700 H       
  53 H53           -6.6485     5.8351    -8.5374 H       
  54 H54           -8.3430     5.8207    -7.9925 H       
  55 H55           -8.0411     3.9884   -12.9166 H       
  56 H56           -9.7356     3.9740   -12.3717 H       
  57 H57          -10.7185     7.3637   -14.9754 H       
  58 H58           -8.9598     7.6787   -15.1504 H       
  59 H59          -10.5574     6.7476   -17.2512 H       
  60 H60           -8.8040     6.3822   -17.1214 H       
  61 H61           -9.3595     3.7647    -7.2897 H       
  62 H62           -8.9177     3.0154    -8.8427 H       
  63 H63           -8.4194     2.2534    -7.3131 H       
  64 H64           -6.1357     2.2728    -8.0475 H       
  65 H65           -6.6341     3.0347    -9.5770 H       
  66 H66           -5.3815     3.7984    -8.5690 H       
  67 H67           -5.4279     2.9930    -1.9093 H       
  68 H68           -5.1936     1.2682    -4.1334 H       
  69 H69           -6.8880     1.2538    -3.5885 H       
  70 H70           -6.9719     3.7243    -3.7843 H       
  71 H71           -5.2775     3.7386    -4.3292 H       
  72 H72           -5.8931     2.3377    -6.2803 H       
  73 H73           -7.5875     2.3233    -5.7354 H       
  74 H74           -5.9769     4.8082    -6.4761 H       
  75 H75           -7.6714     4.7938    -5.9312 H       
  76 Br76           6.2878    12.6787     8.3478 Br      
@<TRIPOS>BOND
   1    1    2 ar
   2    1   18 1
   3    1    6 ar
   4    2    3 ar
   5    2   40 1
   6    3    4 ar
   7    3   41 1
   8    4    5 ar
   9    4    7 1
  10    5    6 ar
  11    5   10 1
  12    6   42 1
  13    7    8 1
  14    7   11 1
  15    8    9 1
  16    8   43 1
  17    8   44 1
  18    9   10 1
  19    9   20 1
  20    9   45 1
  21   10   19 2
  22   11   12 1
  23   11   46 1
  24   11   47 1
  25   12   13 ar
  26   12   17 ar
  27   13   14 ar
  28   13   48 1
  29   14   15 ar
  30   14   49 1
  31   15   16 ar
  32   15   50 1
  33   16   17 ar
  34   16   51 1
  35   17   52 1
  36   20   35 am
  37   20   21 2
  38   22   23 1
  39   22   32 1
  40   22   53 1
  41   22   54 1
  42   23   24 3
  43   24   25 1
  44   25   26 1
  45   25   55 1
  46   25   56 1
  47   26   27 1
  48   27   28 2
  49   27   29 1
  50   28   31 1
  51   29   30 1
  52   29   57 1
  53   29   58 1
  54   30   31 1
  55   30   59 1
  56   30   60 1
  57   32   39 1
  58   32   33 1
  59   32   34 1
  60   33   61 1
  61   33   62 1
  62   33   63 1
  63   34   64 1
  64   34   65 1
  65   34   66 1
  66   35   36 1
  67   35   67 1
  68   36   37 1
  69   36   68 1
  70   36   69 1
  71   37   38 1
  72   37   70 1
  73   37   71 1
  74   38   39 1
  75   38   72 1
  76   38   73 1
  77   39   74 1
  78   39   75 1

#	End of record

