#	Name: ASD01910614
#	Creating user name:	WinNT
#	Creation time:	15. 06. 2019 19:56

#	Modifying user name:	WinNT
#	Modification time:	15. 06. 2019 19:56

#	Program:	/corina/corina34_cracker 3.40 0067  02.08.2006

@<TRIPOS>MOLECULE
ASD01910614
  44   47    0    0    0
SMALL
NO_CHARGES


@<TRIPOS>ATOM
   1 C1            -0.6538     2.3579     0.2022 C.ar    
   2 C2            -0.7870     0.9826     0.2733 C.ar    
   3 C3             0.3349     0.1742     0.3201 C.ar    
   4 C4             1.5948     0.7356     0.2962 C.ar    
   5 C5             1.7362     2.1224     0.2241 C.ar    
   6 C6             0.6003     2.9321     0.1772 C.ar    
   7 C7             3.0831     2.7308     0.1985 C.2     
   8 N8             3.3656     4.0197     0.1322 N.2     
   9 C9             4.7056     4.0949     0.1351 C.2     
  10 N10            5.1679     2.8812     0.2012 N.2     
  11 O11            4.2568     2.0818     0.2440 O.3     
  12 C12            5.5261     5.3573     0.0722 C.3     
  13 C13            6.4029     5.4596     1.3224 C.3     
  14 C14            7.2123     6.7576     1.2751 C.3     
  15 C15            8.1247     6.7411     0.0447 C.3     
  16 N16            7.3041     6.4980    -1.1494 N.am    
  17 C17            6.4195     5.3250    -1.1719 C.3     
  18 C18            7.3615     7.3350    -2.2042 C.2     
  19 C19            6.6312     7.0092    -3.4464 C.ar    
  20 O20            8.0144     8.3580    -2.1335 O.2     
  21 C21            5.9424     8.0086    -4.1366 C.ar    
  22 C22            5.2620     7.6983    -5.2971 C.ar    
  23 C23            5.2627     6.3955    -5.7768 C.ar    
  24 C24            5.9454     5.4010    -5.0940 C.ar    
  25 C25            6.6322     5.7018    -3.9372 C.ar    
  26 F26            4.5953     6.0959    -6.9125 F       
  27 F27            4.5945     8.6635    -5.9665 F       
  28 H28           -1.5336     2.9831     0.1618 H       
  29 H29           -1.7711     0.5381     0.2927 H       
  30 H30            0.2240    -0.8986     0.3759 H       
  31 H31            2.4697     0.1036     0.3335 H       
  32 H32            0.7030     4.0057     0.1210 H       
  33 H33            4.8624     6.2205     0.0217 H       
  34 H34            5.7707     5.4579     2.2103 H       
  35 H35            7.0830     4.6086     1.3595 H       
  36 H36            6.5330     7.6078     1.2130 H       
  37 H37            7.8189     6.8410     2.1769 H       
  38 H38            8.6298     7.7026    -0.0485 H       
  39 H39            8.8636     5.9465     0.1483 H       
  40 H40            7.0193     4.4149    -1.1675 H       
  41 H41            5.7994     5.3521    -2.0679 H       
  42 H42            5.9416     9.0220    -3.7632 H       
  43 H43            5.9428     4.3891    -5.4714 H       
  44 H44            7.1636     4.9255    -3.4067 H       
@<TRIPOS>BOND
   1    1    2 ar
   2    1    6 ar
   3    1   28 1
   4    2    3 ar
   5    2   29 1
   6    3    4 ar
   7    3   30 1
   8    4    5 ar
   9    4   31 1
  10    5    6 ar
  11    5    7 1
  12    6   32 1
  13    7    8 2
  14    7   11 1
  15    8    9 1
  16    9   10 2
  17    9   12 1
  18   10   11 1
  19   12   13 1
  20   12   17 1
  21   12   33 1
  22   13   14 1
  23   13   34 1
  24   13   35 1
  25   14   15 1
  26   14   36 1
  27   14   37 1
  28   15   16 1
  29   15   38 1
  30   15   39 1
  31   16   17 1
  32   16   18 am
  33   17   40 1
  34   17   41 1
  35   18   19 1
  36   18   20 2
  37   19   21 ar
  38   19   25 ar
  39   21   22 ar
  40   21   42 1
  41   22   23 ar
  42   22   27 1
  43   23   24 ar
  44   23   26 1
  45   24   25 ar
  46   24   43 1
  47   25   44 1

#	End of record

