#	Name: ASD05940047
#	Creating user name:	WinNT
#	Creation time:	15. 06. 2019 21:04

#	Modifying user name:	WinNT
#	Modification time:	15. 06. 2019 21:04

#	Program:	/corina/corina34_cracker 3.40 0067  02.08.2006

@<TRIPOS>MOLECULE
ASD05940047
  54   57    0    0    0
SMALL
NO_CHARGES


@<TRIPOS>ATOM
   1 N1            -0.0159     1.3181     0.0093 N.ar    
   2 C2             0.0021    -0.0041     0.0020 C.ar    
   3 N3             1.1319    -0.6930    -0.0101 N.ar    
   4 C4             2.3066    -0.0681    -0.0158 C.ar    
   5 C5             2.3274     1.3257    -0.0126 C.ar    
   6 C6             1.1197     2.0168     0.0022 C.ar    
   7 N7             3.4912    -0.7843    -0.0194 N.3     
   8 C8             4.5325    -0.1239    -0.8126 C.3     
   9 C9             4.6626     1.3202    -0.4024 C.2     
  10 N10            3.5574     2.0048    -0.0283 N.am    
  11 N11            1.0976     3.4049     0.0085 N.pl3   
  12 O12           -1.1750    -0.6756     0.0076 O.3     
  13 C13            3.2722    -2.1617    -0.4807 C.3     
  14 O14            5.7473     1.8634    -0.4080 O.2     
  15 C15           -2.3694     0.1089     0.0211 C.3     
  16 C16           -3.5876    -0.8168     0.0256 C.3     
  17 C17           -4.8663     0.0231     0.0401 C.3     
  18 C18           -6.0845    -0.9026     0.0446 C.3     
  19 C19            4.6022    -2.8335    -0.7061 C.ar    
  20 C20            5.2141    -3.5222     0.3243 C.ar    
  21 C21            6.4336    -4.1340     0.1136 C.ar    
  22 C22            7.0494    -4.0617    -1.1270 C.ar    
  23 C23            6.4364    -3.3783    -2.1557 C.ar    
  24 C24            5.2101    -2.7674    -1.9441 C.ar    
  25 C25            8.3846    -4.7356    -1.3053 C.3     
  26 N26            8.6817    -4.9176    -2.7296 N.3     
  27 C27            8.5452    -3.6398    -3.4465 C.3     
  28 C28            7.0606    -3.2827    -3.5242 C.3     
  29 H29            5.4840    -0.6315    -0.6537 H       
  30 H30            4.2697    -0.1768    -1.8692 H       
  31 H31            3.6126     2.9403     0.2223 H       
  32 H32            1.9298     3.9032     0.0026 H       
  33 H33            0.2500     3.8765     0.0188 H       
  34 H34            2.7102    -2.7125     0.2736 H       
  35 H35            2.7096    -2.1471    -1.4142 H       
  36 H36           -2.3840     0.7330     0.9146 H       
  37 H37           -2.3979     0.7426    -0.8653 H       
  38 H38           -3.5729    -1.4409    -0.8679 H       
  39 H39           -3.5591    -1.4505     0.9120 H       
  40 H40           -4.8810     0.6473     0.9336 H       
  41 H41           -4.8948     0.6569    -0.8463 H       
  42 H42           -6.9955    -0.3042     0.0549 H       
  43 H43           -6.0698    -1.5267    -0.8489 H       
  44 H44           -6.0560    -1.5363     0.9309 H       
  45 H45            4.7392    -3.5813     1.2925 H       
  46 H46            6.9109    -4.6717     0.9195 H       
  47 H47            4.7317    -2.2297    -2.7494 H       
  48 H48            9.1615    -4.1203    -0.8515 H       
  49 H49            8.3647    -5.7087    -0.8147 H       
  50 H50            9.6027    -5.3087    -2.8597 H       
  51 H51            9.0821    -2.8588    -2.9082 H       
  52 H52            8.9509    -3.7397    -4.4533 H       
  53 H53            6.5571    -3.9733    -4.2006 H       
  54 H54            6.9523    -2.2657    -3.9011 H       
@<TRIPOS>BOND
   1    1    2 ar
   2    1    6 ar
   3    2    3 ar
   4    2   12 1
   5    3    4 ar
   6    4    5 ar
   7    4    7 1
   8    5    6 ar
   9    5   10 1
  10    6   11 1
  11    7    8 1
  12    7   13 1
  13    8    9 1
  14    8   29 1
  15    8   30 1
  16    9   10 am
  17    9   14 2
  18   10   31 1
  19   11   32 1
  20   11   33 1
  21   12   15 1
  22   13   19 1
  23   13   34 1
  24   13   35 1
  25   15   16 1
  26   15   36 1
  27   15   37 1
  28   16   17 1
  29   16   38 1
  30   16   39 1
  31   17   18 1
  32   17   40 1
  33   17   41 1
  34   18   42 1
  35   18   43 1
  36   18   44 1
  37   19   20 ar
  38   19   24 ar
  39   20   21 ar
  40   20   45 1
  41   21   22 ar
  42   21   46 1
  43   22   23 ar
  44   22   25 1
  45   23   24 ar
  46   23   28 1
  47   24   47 1
  48   25   26 1
  49   25   48 1
  50   25   49 1
  51   26   27 1
  52   26   50 1
  53   27   28 1
  54   27   51 1
  55   27   52 1
  56   28   53 1
  57   28   54 1

#	End of record

