#	Name: ASD02508059
#	Creating user name:	WinNT
#	Creation time:	15. 06. 2019 20:23

#	Modifying user name:	WinNT
#	Modification time:	15. 06. 2019 20:23

#	Program:	/corina/corina34_cracker 3.40 0067  02.08.2006

@<TRIPOS>MOLECULE
ASD02508059
  36   38    0    0    0
SMALL
NO_CHARGES


@<TRIPOS>ATOM
   1 C1             0.0334     1.0757    -0.6207 C.ar    
   2 C2             0.1063    -0.2941    -0.4214 C.ar    
   3 C3             1.1985     1.8414    -0.6579 C.ar    
   4 C4             2.4307     1.2286    -0.4947 C.ar    
   5 C5             2.4992    -0.1424    -0.2952 C.ar    
   6 C6             1.3353    -0.9019    -0.2593 C.ar    
   7 N7            -1.0305     1.9596    -0.8176 N.am    
   8 C8            -0.5094     3.1944    -0.9588 C.2     
   9 O9             0.8280     3.1289    -0.8646 O.3     
  10 N10            3.7424    -0.7623    -0.1302 N.am    
  11 S11            4.9592     0.0231     0.6729 S.o2    
  12 C12            5.4435     1.3925    -0.3246 C.ar    
  13 C13            5.9853     1.1772    -1.5795 C.ar    
  14 O14           -1.1511     4.2101    -1.1466 O.2     
  15 O15            4.3770     0.5691     1.8485 O.2     
  16 O16            6.0657    -0.8681     0.6953 O.2     
  17 C17            1.4153    -2.3911    -0.0423 C.3     
  18 C18            5.2770     2.6819     0.1439 C.ar    
  19 C19            5.6566     3.7565    -0.6388 C.ar    
  20 C20            6.2027     3.5420    -1.8903 C.ar    
  21 C21            6.3653     2.2528    -2.3620 C.ar    
  22 C22           -2.4521     1.6084    -0.8628 C.3     
  23 Cl23           6.1887    -0.4420    -2.1714 Cl      
  24 H24           -0.7972    -0.8851    -0.3926 H       
  25 H25            3.3357     1.8172    -0.5231 H       
  26 H26            3.8917    -1.6521    -0.4862 H       
  27 H27            1.3715    -2.6055     1.0255 H       
  28 H28            0.5791    -2.8770    -0.5450 H       
  29 H29            2.3532    -2.7679    -0.4503 H       
  30 H30            4.8499     2.8502     1.1215 H       
  31 H31            5.5259     4.7640    -0.2724 H       
  32 H32            6.4984     4.3818    -2.5015 H       
  33 H33            6.7924     2.0853    -3.3397 H       
  34 H34           -2.8726     1.6656     0.1412 H       
  35 H35           -2.9776     2.3040    -1.5170 H       
  36 H36           -2.5638     0.5942    -1.2462 H       
@<TRIPOS>BOND
   1    1    2 ar
   2    1    3 ar
   3    1    7 1
   4    2    6 ar
   5    2   24 1
   6    3    4 ar
   7    3    9 1
   8    4    5 ar
   9    4   25 1
  10    5    6 ar
  11    5   10 1
  12    6   17 1
  13    7    8 am
  14    7   22 1
  15    8    9 1
  16    8   14 2
  17   10   11 am
  18   10   26 1
  19   11   12 1
  20   11   15 2
  21   11   16 2
  22   12   13 ar
  23   12   18 ar
  24   13   23 1
  25   13   21 ar
  26   17   27 1
  27   17   28 1
  28   17   29 1
  29   18   19 ar
  30   18   30 1
  31   19   20 ar
  32   19   31 1
  33   20   21 ar
  34   20   32 1
  35   21   33 1
  36   22   34 1
  37   22   35 1
  38   22   36 1

#	End of record

