#	Name: ASD03730289
#	Creating user name:	WinNT
#	Creation time:	15. 06. 2019 20:44

#	Modifying user name:	WinNT
#	Modification time:	15. 06. 2019 20:44

#	Program:	/corina/corina34_cracker 3.40 0067  02.08.2006

@<TRIPOS>MOLECULE
ASD03730289
  60   65    0    0    0
SMALL
NO_CHARGES


@<TRIPOS>ATOM
   1 O1             1.2932     2.0157    -1.7375 O.3     
   2 C2             1.2788     0.5841    -1.8916 C.3     
   3 O3             2.6639     0.2487    -2.0964 O.3     
   4 C4             3.3743     1.2295    -1.4655 C.ar    
   5 C5             2.5315     2.3170    -1.2478 C.ar    
   6 C6             4.6926     1.2823    -1.0501 C.ar    
   7 C7             5.1876     2.4187    -0.4177 C.ar    
   8 C8             4.3397     3.5038    -0.2173 C.ar    
   9 C9             3.0229     3.4510    -0.6235 C.ar    
  10 O10            6.4324     2.6659     0.0814 O.3     
  11 C11            5.1624     4.5743     0.4481 C.3     
  12 C12            6.6040     4.0864     0.2479 C.3     
  13 N13            4.5286     6.7373     0.8260 N.am    
  14 C14            4.9412     5.9261    -0.1683 C.2     
  15 C15            4.8229     4.7394     1.8992 C.ar    
  16 C16            4.8213     3.8792     2.9888 C.ar    
  17 C17            4.4438     4.3518     4.2454 C.ar    
  18 C18            4.0738     5.6732     4.3965 C.ar    
  19 C19            4.0753     6.5283     3.3134 C.ar    
  20 C20            4.4501     6.0703     2.0513 C.ar    
  21 O21            5.1024     6.2283    -1.3318 O.2     
  22 C22            4.2007     8.1533     0.6433 C.3     
  23 C23            2.7162     8.2929     0.3001 C.3     
  24 C24            2.3737     9.7718     0.1092 C.3     
  25 C25            0.8893     9.9114    -0.2340 C.3     
  26 C26            0.5468    11.3903    -0.4248 C.3     
  27 C27            6.5713     2.1067     2.7275 C.ar    
  28 C28            5.2197     2.4608     2.8168 C.ar    
  29 C29            4.2538     1.4567     2.7417 C.ar    
  30 C30            4.6767     0.1467     2.5813 C.ar    
  31 C31            6.0289    -0.1247     2.5011 C.ar    
  32 N32            6.9240     0.8425     2.5752 N.ar    
  33 O33            7.5250     3.0686     2.7927 O.3     
  34 C34            8.8851     2.6414     2.6953 C.3     
  35 H35            0.8980     0.1055    -0.9893 H       
  36 H36            0.6832     0.2982    -2.7586 H       
  37 H37            5.3420     0.4357    -1.2173 H       
  38 H38            2.3728     4.2966    -0.4538 H       
  39 H39            7.2114     4.3025     1.1269 H       
  40 H40            7.0424     4.5308    -0.6456 H       
  41 H41            4.4405     3.6869     5.0965 H       
  42 H42            3.7815     6.0404     5.3692 H       
  43 H43            3.7836     7.5598     3.4444 H       
  44 H44            4.4135     8.6973     1.5636 H       
  45 H45            4.8014     8.5636    -0.1685 H       
  46 H46            2.5033     7.7490    -0.6202 H       
  47 H47            2.1155     7.8827     1.1118 H       
  48 H48            2.5866    10.3158     1.0295 H       
  49 H49            2.9745    10.1821    -0.7025 H       
  50 H50            0.6764     9.3675    -1.1543 H       
  51 H51            0.2885     9.5012     0.5778 H       
  52 H52            0.7596    11.9343     0.4955 H       
  53 H53            1.1475    11.8006    -1.2366 H       
  54 H54           -0.5108    11.4898    -0.6693 H       
  55 H55            3.2024     1.6945     2.8074 H       
  56 H56            3.9556    -0.6549     2.5198 H       
  57 H57            6.3591    -1.1454     2.3761 H       
  58 H58            9.0407     2.1389     1.7406 H       
  59 H59            9.5437     3.5074     2.7617 H       
  60 H60            9.1085     1.9518     3.5094 H       
@<TRIPOS>BOND
   1    1    2 1
   2    1    5 1
   3    2    3 1
   4    2   35 1
   5    2   36 1
   6    3    4 1
   7    4    5 ar
   8    4    6 ar
   9    5    9 ar
  10    6    7 ar
  11    6   37 1
  12    7    8 ar
  13    7   10 1
  14    8    9 ar
  15    8   11 1
  16    9   38 1
  17   10   12 1
  18   11   12 1
  19   11   14 1
  20   11   15 1
  21   12   39 1
  22   12   40 1
  23   13   14 am
  24   13   20 1
  25   13   22 1
  26   14   21 2
  27   15   16 ar
  28   15   20 ar
  29   16   17 ar
  30   16   28 1
  31   17   18 ar
  32   17   41 1
  33   18   19 ar
  34   18   42 1
  35   19   20 ar
  36   19   43 1
  37   22   23 1
  38   22   44 1
  39   22   45 1
  40   23   24 1
  41   23   46 1
  42   23   47 1
  43   24   25 1
  44   24   48 1
  45   24   49 1
  46   25   26 1
  47   25   50 1
  48   25   51 1
  49   26   52 1
  50   26   53 1
  51   26   54 1
  52   27   28 ar
  53   27   32 ar
  54   27   33 1
  55   28   29 ar
  56   29   30 ar
  57   29   55 1
  58   30   31 ar
  59   30   56 1
  60   31   32 ar
  61   31   57 1
  62   33   34 1
  63   34   58 1
  64   34   59 1
  65   34   60 1

#	End of record

