#	Name: ASD03240597
#	Creating user name:	WinNT
#	Creation time:	15. 06. 2019 20:35

#	Modifying user name:	WinNT
#	Modification time:	15. 06. 2019 20:35

#	Program:	/corina/corina34_cracker 3.40 0067  02.08.2006

@<TRIPOS>MOLECULE
ASD03240597
  79   85    0    0    0
SMALL
NO_CHARGES


@<TRIPOS>ATOM
   1 C1            -0.0166     1.3755     0.0096 C.ar    
   2 C2             0.0021    -0.0041     0.0020 C.ar    
   3 N3             1.1421    -0.6683    -0.0058 N.ar    
   4 C4             2.3145    -0.0481    -0.0058 C.ar    
   5 C5             2.3702     1.3442    -0.0124 C.ar    
   6 C6             1.1860     2.0698     0.0019 C.ar    
   7 N7             3.4819    -0.8058     0.0219 N.pl3   
   8 C8             4.3587    -0.7201     1.0998 C.ar    
   9 C9             4.9953     0.4879     1.4042 C.ar    
  10 C10            4.7646     1.6827     0.5627 C.2     
  11 N11            3.5938     2.0277    -0.0512 N.pl3   
  12 C12            4.6039    -1.8401     1.8830 C.ar    
  13 C13            5.4634    -1.7555     2.9616 C.ar    
  14 C14            6.0849    -0.5578     3.2708 C.ar    
  15 C15            5.8559     0.5635     2.4991 C.ar    
  16 N16            5.6766     2.5924     0.2866 N.2     
  17 C17            5.1466     3.5392    -0.5043 C.2     
  18 C18            3.8215     3.2027    -0.7359 C.2     
  19 C19            2.8486     3.9532    -1.5530 C.ar    
  20 C20            2.7496     5.3411    -1.4277 C.ar    
  21 C21            2.0262     3.2798    -2.4597 C.ar    
  22 C22            1.1194     3.9879    -3.2204 C.ar    
  23 C23            1.0235     5.3620    -3.0875 C.ar    
  24 C24            1.8382     6.0361    -2.1949 C.ar    
  25 C25            5.8495     4.7283    -1.0330 C.ar    
  26 C26            0.0306     6.1286    -3.9227 C.3     
  27 N27           -1.0485     5.2809    -4.4472 N.3     
  28 C28           -0.4701     7.4197    -3.2539 C.3     
  29 C29           -0.3830     8.0785    -4.6407 C.3     
  30 C30            0.6836     7.0243    -4.9885 C.3     
  31 C31            6.8201     5.3678    -0.2577 C.ar    
  32 C32            7.4699     6.4657    -0.7456 C.ar    
  33 C33            7.1637     6.9495    -2.0211 C.ar    
  34 C34            6.1924     6.3092    -2.7965 C.ar    
  35 C35            5.5469     5.2081    -2.3097 C.ar    
  36 C36            7.8651     8.1361    -2.5487 C.2     
  37 N37            7.5698     8.6022    -3.7783 N.am    
  38 O38            8.7095     8.6930    -1.8740 O.2     
  39 C39            8.2661     9.7800    -4.3019 C.3     
  40 C40            7.7554    10.0918    -5.6850 C.2     
  41 C41            8.0092    10.9752    -3.3819 C.3     
  42 C42            9.7686     9.4983    -4.3645 C.3     
  43 O43            7.4033     9.0942    -6.5112 O.3     
  44 O44            7.6628    11.2398    -6.0503 O.2     
  45 C45            6.9201     9.4685    -7.8283 C.3     
  46 H46           -0.9556     1.9091     0.0170 H       
  47 H47           -0.9306    -0.5486     0.0028 H       
  48 H48            1.2001     3.1497     0.0064 H       
  49 H49            3.6863    -1.3998    -0.7172 H       
  50 H50            4.1222    -2.7781     1.6492 H       
  51 H51            5.6513    -2.6294     3.5677 H       
  52 H52            6.7512    -0.5005     4.1188 H       
  53 H53            6.3418     1.4968     2.7424 H       
  54 H54            3.3848     5.8685    -0.7314 H       
  55 H55            2.1005     2.2075    -2.5649 H       
  56 H56            0.4830     3.4688    -3.9217 H       
  57 H57            1.7579     7.1086    -2.0964 H       
  58 H58           -0.6757     4.4590    -4.8983 H       
  59 H59           -1.6981     5.0296    -3.7172 H       
  60 H60           -1.4871     7.3458    -2.8687 H       
  61 H61            0.2292     7.8352    -2.5284 H       
  62 H62           -1.2967     7.9834    -5.2275 H       
  63 H63            0.0012     9.0983    -4.6163 H       
  64 H64            1.6990     7.3312    -4.7375 H       
  65 H65            0.5970     6.6335    -6.0023 H       
  66 H66            7.0563     4.9942     0.7277 H       
  67 H67            8.2199     6.9602    -0.1461 H       
  68 H68            5.9552     6.6827    -3.7817 H       
  69 H69            4.7969     4.7132    -2.9088 H       
  70 H70            6.8961     8.1579    -4.3165 H       
  71 H71            8.3786    10.7497    -2.3815 H       
  72 H72            8.5273    11.8516    -3.7715 H       
  73 H73            6.9388    11.1760    -3.3373 H       
  74 H74            9.9516     8.6468    -5.0199 H       
  75 H75           10.2866    10.3746    -4.7541 H       
  76 H76           10.1380     9.2727    -3.3641 H       
  77 H77            6.0314    10.0913    -7.7258 H       
  78 H78            7.6951    10.0253    -8.3550 H       
  79 H79            6.6709     8.5700    -8.3928 H       
@<TRIPOS>BOND
   1    1    2 ar
   2    1    6 ar
   3    1   46 1
   4    2    3 ar
   5    2   47 1
   6    3    4 ar
   7    4    5 ar
   8    4    7 1
   9    5    6 ar
  10    5   11 1
  11    6   48 1
  12    7    8 1
  13    7   49 1
  14    8    9 ar
  15    8   12 ar
  16    9   10 1
  17    9   15 ar
  18   10   11 1
  19   10   16 2
  20   11   18 1
  21   12   13 ar
  22   12   50 1
  23   13   14 ar
  24   13   51 1
  25   14   15 ar
  26   14   52 1
  27   15   53 1
  28   16   17 1
  29   17   18 2
  30   17   25 1
  31   18   19 1
  32   19   20 ar
  33   19   21 ar
  34   20   24 ar
  35   20   54 1
  36   21   22 ar
  37   21   55 1
  38   22   23 ar
  39   22   56 1
  40   23   24 ar
  41   23   26 1
  42   24   57 1
  43   25   31 ar
  44   25   35 ar
  45   26   27 1
  46   26   28 1
  47   26   30 1
  48   27   58 1
  49   27   59 1
  50   28   29 1
  51   28   60 1
  52   28   61 1
  53   29   30 1
  54   29   62 1
  55   29   63 1
  56   30   64 1
  57   30   65 1
  58   31   32 ar
  59   31   66 1
  60   32   33 ar
  61   32   67 1
  62   33   34 ar
  63   33   36 1
  64   34   35 ar
  65   34   68 1
  66   35   69 1
  67   36   37 am
  68   36   38 2
  69   37   39 1
  70   37   70 1
  71   39   40 1
  72   39   41 1
  73   39   42 1
  74   40   43 1
  75   40   44 2
  76   41   71 1
  77   41   72 1
  78   41   73 1
  79   42   74 1
  80   42   75 1
  81   42   76 1
  82   43   45 1
  83   45   77 1
  84   45   78 1
  85   45   79 1

#	End of record

