#	Name: ASD04590614
#	Creating user name:	WinNT
#	Creation time:	15. 06. 2019 20:51

#	Modifying user name:	WinNT
#	Modification time:	15. 06. 2019 20:51

#	Program:	/corina/corina34_cracker 3.40 0067  02.08.2006

@<TRIPOS>MOLECULE
ASD04590614
  63   68    0    0    0
SMALL
NO_CHARGES


@<TRIPOS>ATOM
   1 N1            -0.0170     1.3241    -0.0111 N.ar    
   2 C2             0.0017    -0.0035    -0.0049 C.ar    
   3 N3             1.1288    -0.6959    -0.0117 N.ar    
   4 C4             2.3047    -0.0744    -0.0258 C.ar    
   5 C5             2.3193     1.3366    -0.0333 C.ar    
   6 C6             1.1058     2.0214    -0.0251 C.ar    
   7 N7             3.6008    -0.5160    -0.0356 N.pl3   
   8 C8             4.4753     0.5584    -0.0492 C.2     
   9 C9             3.7293     1.7373    -0.0484 C.2     
  10 C10            5.8821     0.6499    -0.0632 C.2     
  11 N11            6.4769     1.8577    -0.0753 N.am    
  12 C12            5.7481     3.0099    -0.0745 C.2     
  13 C13            4.4007     2.9806    -0.0611 C.2     
  14 N14           -1.2017    -0.6878     0.0098 N.pl3   
  15 C15           -2.4017     0.0138     0.1304 C.ar    
  16 C16            4.0052    -1.9241    -0.0313 C.3     
  17 N17           -2.3878     1.3211     0.3309 N.ar    
  18 N18           -3.4667     2.0064     0.4472 N.ar    
  19 C19           -4.6655     1.4512     0.3743 C.ar    
  20 C20           -4.7825     0.0762     0.1645 C.ar    
  21 C21           -3.6192    -0.6615     0.0339 C.ar    
  22 N22           -5.8081     2.2370     0.5072 N.3     
  23 C23            3.4068    -2.6419     1.1961 C.3     
  24 C24            3.4446    -2.6372    -1.2742 C.3     
  25 C25            2.5252    -3.7636    -0.7588 C.3     
  26 C26            2.1101    -3.2965     0.6584 C.3     
  27 C27           -5.4555     3.6481     0.7169 C.3     
  28 C28           -6.6902     2.0852    -0.6584 C.3     
  29 C29           -7.9669     2.9000    -0.4383 C.3     
  30 N30           -7.6142     4.3112    -0.2286 N.3     
  31 C31           -6.7322     4.4630     0.9370 C.3     
  32 O32            6.5602    -0.3649    -0.0638 O.2     
  33 C33           -7.4505     3.9579     2.1899 C.3     
  34 C34           -6.3712     5.9391     1.1152 C.3     
  35 H35            1.0831     3.1012    -0.0308 H       
  36 H36            7.4455     1.9092    -0.0845 H       
  37 H37            6.2587     3.9615    -0.0841 H       
  38 H38            3.8374     3.9020    -0.0603 H       
  39 H39           -1.2106    -1.6549    -0.0637 H       
  40 H40            5.0924    -2.0000    -0.0158 H       
  41 H41           -5.7514    -0.3968     0.1023 H       
  42 H42           -3.6524    -1.7284    -0.1302 H       
  43 H43            4.0938    -3.4035     1.5651 H       
  44 H44            3.1740    -1.9237     1.9822 H       
  45 H45            2.8717    -1.9357    -1.8806 H       
  46 H46            4.2598    -3.0600    -1.8615 H       
  47 H47            1.6489    -3.8639    -1.3993 H       
  48 H48            3.0698    -4.7063    -0.7055 H       
  49 H49            1.8216    -4.1468     1.2764 H       
  50 H50            1.3028    -2.5661     0.6034 H       
  51 H51           -4.8124     3.7360     1.5926 H       
  52 H52           -4.9297     4.0257    -0.1601 H       
  53 H53           -6.1784     2.4450    -1.5510 H       
  54 H54           -6.9473     1.0335    -0.7853 H       
  55 H55           -8.6099     2.8122    -1.3140 H       
  56 H56           -8.4926     2.5224     0.4387 H       
  57 H57           -7.1913     4.7049    -1.0558 H       
  58 H58           -7.7065     2.9060     2.0628 H       
  59 H59           -6.7960     4.0706     3.0543 H       
  60 H60           -8.3607     4.5371     2.3453 H       
  61 H61           -7.2808     6.5194     1.2700 H       
  62 H62           -5.7170     6.0514     1.9798 H       
  63 H63           -5.8587     6.2981     0.2227 H       
@<TRIPOS>BOND
   1    1    2 ar
   2    1    6 ar
   3    2    3 ar
   4    2   14 1
   5    3    4 ar
   6    4    5 ar
   7    4    7 1
   8    5    6 ar
   9    5    9 1
  10    6   35 1
  11    7    8 1
  12    7   16 1
  13    8    9 2
  14    8   10 1
  15    9   13 1
  16   10   11 am
  17   10   32 2
  18   11   12 1
  19   11   36 1
  20   12   13 2
  21   12   37 1
  22   13   38 1
  23   14   15 1
  24   14   39 1
  25   15   17 ar
  26   15   21 ar
  27   16   24 1
  28   16   23 1
  29   16   40 1
  30   17   18 ar
  31   18   19 ar
  32   19   20 ar
  33   19   22 1
  34   20   21 ar
  35   20   41 1
  36   21   42 1
  37   22   28 1
  38   22   27 1
  39   23   26 1
  40   23   43 1
  41   23   44 1
  42   24   25 1
  43   24   45 1
  44   24   46 1
  45   25   26 1
  46   25   47 1
  47   25   48 1
  48   26   49 1
  49   26   50 1
  50   27   31 1
  51   27   51 1
  52   27   52 1
  53   28   29 1
  54   28   53 1
  55   28   54 1
  56   29   30 1
  57   29   55 1
  58   29   56 1
  59   30   31 1
  60   30   57 1
  61   31   33 1
  62   31   34 1
  63   33   58 1
  64   33   59 1
  65   33   60 1
  66   34   61 1
  67   34   62 1
  68   34   63 1

#	End of record

