#	Name: ASD03330350
#	Creating user name:	WinNT
#	Creation time:	15. 06. 2019 20:37

#	Modifying user name:	WinNT
#	Modification time:	15. 06. 2019 20:37

#	Program:	/corina/corina34_cracker 3.40 0067  02.08.2006

@<TRIPOS>MOLECULE
ASD03330350
  57   61    0    0    0
SMALL
NO_CHARGES


@<TRIPOS>ATOM
   1 C1            -0.0060     1.4642     0.0106 C.3     
   2 N2             0.0308    -0.0061     0.0148 N.am    
   3 C3             0.6573    -0.6866    -1.1347 C.3     
   4 C4             1.9214     0.0712    -1.4587 C.2     
   5 N5             2.2441     1.2760    -0.9245 N.pl3   
   6 C6             1.4270     2.0068     0.0470 C.3     
   7 C7             2.9255    -0.2828    -2.3005 C.2     
   8 N8             3.8461     0.7073    -2.2786 N.2     
   9 C9             3.4424     1.6478    -1.4558 C.2     
  10 C10            4.1674     2.9023    -1.1562 C.ar    
  11 C11            5.2139     3.3201    -1.9789 C.ar    
  12 C12            2.9995    -1.5224    -3.0941 C.2     
  13 O13            2.1031    -2.3417    -3.0271 O.2     
  14 C14            4.1339    -2.9804    -4.6830 C.3     
  15 N15            4.0604    -1.7481    -3.8941 N.am    
  16 C16           -0.4915    -0.7107     1.0381 C.2     
  17 O17           -0.9053    -0.1329     2.0261 O.2     
  18 C18            5.8857     4.4912    -1.6945 C.ar    
  19 C19            5.5237     5.2506    -0.5962 C.ar    
  20 C20            4.4869     4.8417     0.2235 C.ar    
  21 C21            3.8037     3.6753    -0.0533 C.ar    
  22 C22           -0.5613    -2.1736     0.9611 C.2     
  23 C23            5.0219    -2.7499    -5.9074 C.3     
  24 C24            5.0987    -4.0368    -6.7313 C.3     
  25 C25            5.6924    -5.1564    -5.8741 C.3     
  26 C26            4.8044    -5.3870    -4.6497 C.3     
  27 C27            4.7276    -4.1000    -3.8258 C.3     
  28 C28           -0.9463    -3.0125     1.9672 C.2     
  29 C29           -0.8643    -4.3179     1.4578 C.2     
  30 C30           -0.4382    -4.2197     0.1792 C.2     
  31 O31           -0.2618    -2.9258    -0.1181 O.3     
  32 H32           -0.5043     1.8131    -0.8938 H       
  33 H33           -0.5510     1.8170     0.8862 H       
  34 H34            0.8980    -1.7165    -0.8714 H       
  35 H35           -0.0173    -0.6683    -1.9907 H       
  36 H36            1.4215     3.0669    -0.2061 H       
  37 H37            1.8420     1.8724     1.0460 H       
  38 H38            5.4977     2.7280    -2.8364 H       
  39 H39            3.1329    -3.2637    -5.0083 H       
  40 H40            4.7753    -1.0947    -3.9475 H       
  41 H41            6.6962     4.8155    -2.3303 H       
  42 H42            6.0529     6.1663    -0.3776 H       
  43 H43            4.2090     5.4389     1.0793 H       
  44 H44            2.9945     3.3571     0.5873 H       
  45 H45            4.5989    -1.9522    -6.5180 H       
  46 H46            6.0229    -2.4665    -5.5821 H       
  47 H47            4.0977    -4.3202    -7.0566 H       
  48 H48            5.7313    -3.8726    -7.6036 H       
  49 H49            5.7471    -6.0733    -6.4611 H       
  50 H50            6.6934    -4.8731    -5.5488 H       
  51 H51            3.8034    -5.6703    -4.9751 H       
  52 H52            5.2274    -6.1846    -4.0391 H       
  53 H53            5.7286    -3.8166    -3.5005 H       
  54 H54            4.0950    -4.2642    -2.9536 H       
  55 H55           -1.2540    -2.7271     2.9624 H       
  56 H56           -1.0979    -5.2293     1.9880 H       
  57 H57           -0.2709    -5.0480    -0.4934 H       
@<TRIPOS>BOND
   1    1    2 1
   2    1    6 1
   3    1   32 1
   4    1   33 1
   5    2    3 1
   6    2   16 am
   7    3    4 1
   8    3   34 1
   9    3   35 1
  10    4    5 1
  11    4    7 2
  12    5    6 1
  13    5    9 1
  14    6   36 1
  15    6   37 1
  16    7    8 1
  17    7   12 1
  18    8    9 2
  19    9   10 1
  20   10   11 ar
  21   10   21 ar
  22   11   18 ar
  23   11   38 1
  24   12   13 2
  25   12   15 am
  26   14   23 1
  27   14   15 1
  28   14   27 1
  29   14   39 1
  30   15   40 1
  31   16   17 2
  32   16   22 1
  33   18   19 ar
  34   18   41 1
  35   19   20 ar
  36   19   42 1
  37   20   21 ar
  38   20   43 1
  39   21   44 1
  40   22   28 2
  41   22   31 1
  42   23   24 1
  43   23   45 1
  44   23   46 1
  45   24   25 1
  46   24   47 1
  47   24   48 1
  48   25   26 1
  49   25   49 1
  50   25   50 1
  51   26   27 1
  52   26   51 1
  53   26   52 1
  54   27   53 1
  55   27   54 1
  56   28   29 1
  57   28   55 1
  58   29   30 2
  59   29   56 1
  60   30   31 1
  61   30   57 1

#	End of record

