#	Name: ASD00071061
#	Creating user name:	WinNT
#	Creation time:	15. 06. 2019 18:30

#	Modifying user name:	WinNT
#	Modification time:	15. 06. 2019 18:30

#	Program:	/corina/corina34_cracker 3.40 0067  02.08.2006

@<TRIPOS>MOLECULE
ASD00071061
  39   41    0    0    0
SMALL
NO_CHARGES


@<TRIPOS>ATOM
   1 N1             2.6351     1.0850    -0.0593 N.ar    
   2 C2             2.4079    -0.1939     0.1583 C.ar    
   3 C3             1.1052    -0.7128     0.1900 C.ar    
   4 C4             0.0406     0.1137    -0.0066 C.ar    
   5 C5             0.2906     1.4820    -0.2386 C.ar    
   6 C6            -0.7594     2.3885    -0.4484 C.ar    
   7 C7            -0.4803     3.7036    -0.6691 C.ar    
   8 C8             0.8349     4.1607    -0.6896 C.ar    
   9 C9             1.8776     3.3079    -0.4902 C.ar    
  10 C10            1.6291     1.9445    -0.2591 C.ar    
  11 N11            3.4819    -1.0476     0.3602 N.pl3   
  12 C12            0.8839    -2.1822     0.4409 C.3     
  13 C13            0.8568    -2.4399     1.9254 C.ar    
  14 C14           -0.3050    -2.2115     2.6487 C.ar    
  15 C15           -0.3268    -2.4496     4.0150 C.ar    
  16 C16            0.8080    -2.9135     4.6524 C.ar    
  17 C17            1.9645    -3.1398     3.9296 C.ar    
  18 C18            1.9869    -2.9090     2.5663 C.ar    
  19 O19           -1.4197    -1.7549     2.0196 O.3     
  20 C20           -2.5794    -1.5423     2.8271 C.3     
  21 C21           -3.7247    -1.0317     1.9505 C.3     
  22 H22           -0.9691    -0.2691     0.0142 H       
  23 H23           -1.7835     2.0456    -0.4355 H       
  24 H24           -1.2894     4.4006    -0.8304 H       
  25 H25            1.0310     5.2078    -0.8668 H       
  26 H26            2.8919     3.6781    -0.5099 H       
  27 H27            4.3789    -0.6876     0.4425 H       
  28 H28            3.3362    -2.0048     0.4192 H       
  29 H29           -0.0661    -2.4867     0.0018 H       
  30 H30            1.6935    -2.7542    -0.0125 H       
  31 H31           -1.2298    -2.2723     4.5803 H       
  32 H32            0.7916    -3.0990     5.7162 H       
  33 H33            2.8506    -3.5017     4.4297 H       
  34 H34            2.8902    -3.0912     2.0030 H       
  35 H35           -2.8721    -2.4813     3.2969 H       
  36 H36           -2.3552    -0.8048     3.5979 H       
  37 H37           -4.6092    -0.8696     2.5665 H       
  38 H38           -3.4320    -0.0927     1.4808 H       
  39 H39           -3.9489    -1.7692     1.1798 H       
@<TRIPOS>BOND
   1    1    2 ar
   2    1   10 ar
   3    2    3 ar
   4    2   11 1
   5    3    4 ar
   6    3   12 1
   7    4    5 ar
   8    4   22 1
   9    5    6 ar
  10    5   10 ar
  11    6    7 ar
  12    6   23 1
  13    7    8 ar
  14    7   24 1
  15    8    9 ar
  16    8   25 1
  17    9   10 ar
  18    9   26 1
  19   11   27 1
  20   11   28 1
  21   12   13 1
  22   12   29 1
  23   12   30 1
  24   13   14 ar
  25   13   18 ar
  26   14   15 ar
  27   14   19 1
  28   15   16 ar
  29   15   31 1
  30   16   17 ar
  31   16   32 1
  32   17   18 ar
  33   17   33 1
  34   18   34 1
  35   19   20 1
  36   20   21 1
  37   20   35 1
  38   20   36 1
  39   21   37 1
  40   21   38 1
  41   21   39 1

#	End of record

