#	Name: ASD02198521
#	Creating user name:	WinNT
#	Creation time:	15. 06. 2019 20:19

#	Modifying user name:	WinNT
#	Modification time:	15. 06. 2019 20:19

#	Program:	/corina/corina34_cracker 3.40 0067  02.08.2006

@<TRIPOS>MOLECULE
ASD02198521
  42   45    0    0    0
SMALL
NO_CHARGES


@<TRIPOS>ATOM
   1 C1             0.2306     1.6257     0.2841 C.2     
   2 C2             0.4079     0.2788     0.2060 C.2     
   3 N3            -0.6517    -0.5515     0.0655 N.pl3   
   4 N4            -1.8638    -0.1407    -0.0022 N.2     
   5 C5            -2.1760     1.1368     0.0605 C.2     
   6 C6            -1.0975     2.1226     0.2186 C.2     
   7 C7            -0.4116    -1.9274    -0.0101 C.ar    
   8 C8            -1.2348    -4.1786    -0.0840 C.ar    
   9 C9             0.0632    -4.6493    -0.1598 C.ar    
  10 C10            1.1250    -3.7628    -0.1552 C.ar    
  11 C11            0.8916    -2.4040    -0.0806 C.ar    
  12 C12           -3.5855     1.5711    -0.0212 C.2     
  13 N13           -4.2521     2.3407     0.8903 N.pl3   
  14 N14           -5.5619     2.5137     0.4260 N.2     
  15 C15           -5.6917     1.8817    -0.7131 C.2     
  16 C16           -4.4738     1.2816    -1.0335 C.2     
  17 C17           -3.7206     2.8626     2.0766 C.ar    
  18 C18           -2.9007     2.0773     2.8763 C.ar    
  19 O19           -1.3334     3.3204     0.2822 O.2     
  20 C20           -4.0078     4.1682     2.4525 C.ar    
  21 C21           -3.4819     4.6800     3.6225 C.ar    
  22 C22           -2.6700     3.8937     4.4193 C.ar    
  23 C23           -2.3778     2.5949     4.0451 C.ar    
  24 C24           -1.4754    -2.8206    -0.0092 C.ar    
  25 O25            1.2897     2.4670     0.4257 O.3     
  26 C26           -2.3885    -5.1482    -0.0899 C.3     
  27 F27           -1.8985    -6.4556    -0.1781 F       
  28 F28           -3.1243    -5.0046     1.0913 F       
  29 F29           -3.2138    -4.8844    -1.1883 F       
  30 H30            1.4053    -0.1323     0.2563 H       
  31 H31            0.2483    -5.7114    -0.2227 H       
  32 H32            2.1375    -4.1338    -0.2141 H       
  33 H33            1.7211    -1.7124    -0.0774 H       
  34 H34           -6.5915     1.8363    -1.3087 H       
  35 H35           -4.2668     0.6902    -1.9131 H       
  36 H36           -2.6724     1.0628     2.5847 H       
  37 H37           -4.6415     4.7828     1.8304 H       
  38 H38           -3.7046     5.6954     3.9152 H       
  39 H39           -2.2596     4.2964     5.3336 H       
  40 H40           -1.7437     1.9833     4.6697 H       
  41 H41           -2.4894    -2.4537     0.0503 H       
  42 H42            2.1458     2.0189     0.4630 H       
@<TRIPOS>BOND
   1    1    2 2
   2    1   25 1
   3    1    6 1
   4    2    3 1
   5    2   30 1
   6    3    4 1
   7    3    7 1
   8    4    5 2
   9    5    6 1
  10    5   12 1
  11    6   19 2
  12    7   24 ar
  13    7   11 ar
  14    8    9 ar
  15    8   26 1
  16    8   24 ar
  17    9   10 ar
  18    9   31 1
  19   10   11 ar
  20   10   32 1
  21   11   33 1
  22   12   13 1
  23   12   16 2
  24   13   14 1
  25   13   17 1
  26   14   15 2
  27   15   16 1
  28   15   34 1
  29   16   35 1
  30   17   20 ar
  31   17   18 ar
  32   18   23 ar
  33   18   36 1
  34   20   21 ar
  35   20   37 1
  36   21   22 ar
  37   21   38 1
  38   22   23 ar
  39   22   39 1
  40   23   40 1
  41   24   41 1
  42   25   42 1
  43   26   27 1
  44   26   28 1
  45   26   29 1

#	End of record

