#	Name: ASD01150252
#	Creating user name:	WinNT
#	Creation time:	15. 06. 2019 19:03

#	Modifying user name:	WinNT
#	Modification time:	15. 06. 2019 19:03

#	Program:	/corina/corina34_cracker 3.40 0067  02.08.2006

@<TRIPOS>MOLECULE
ASD01150252
  47   50    0    0    0
SMALL
NO_CHARGES


@<TRIPOS>ATOM
   1 C1             0.0406     1.0272     0.3322 C.ar    
   2 C2            -0.0786    -0.3572     0.2345 C.ar    
   3 C3            -1.2982    -0.9494     0.1032 C.ar    
   4 C4            -2.4584    -0.1585     0.0650 C.ar    
   5 C5            -2.3337     1.2487     0.1646 C.ar    
   6 C6            -1.0647     1.8261     0.3044 C.ar    
   7 N7            -3.6671    -0.7210    -0.0641 N.ar    
   8 C8            -4.7638    -0.0090    -0.1029 C.ar    
   9 C9            -4.7373     1.3918    -0.0116 C.ar    
  10 C10           -3.5037     2.0474     0.1262 C.ar    
  11 C11           -3.4276     3.5197     0.2264 C.ar    
  12 C12           -5.9915     2.1656    -0.0589 C.2     
  13 C13           -6.0896    -0.7102    -0.2498 C.3     
  14 C14           -3.0243     4.1211     1.4206 C.ar    
  15 C15           -2.9547     5.4951     1.5083 C.ar    
  16 C16           -3.2846     6.2797     0.4139 C.ar    
  17 C17           -3.6856     5.6881    -0.7741 C.ar    
  18 C18           -3.7533     4.3149    -0.8747 C.ar    
  19 F19           -3.2155     7.6258     0.5055 F       
  20 O20           -6.4237     2.5582    -1.1256 O.2     
  21 Br21           1.7536     1.8075     0.5133 Br      
  22 N22           -6.6588     2.4377     1.0799 N.am    
  23 C23           -7.8435     3.3066     1.0640 C.3     
  24 C24           -9.0066     2.5668     1.7324 C.3     
  25 C25           -8.5802     2.1109     3.1297 C.3     
  26 C26           -7.3970     1.1471     3.0148 C.3     
  27 C27           -6.2190     1.8663     2.3601 C.3     
  28 H28            0.8099    -0.9705     0.2629 H       
  29 H29           -1.3729    -2.0242     0.0284 H       
  30 H30           -0.9616     2.8985     0.3810 H       
  31 H31           -6.4879    -0.9448     0.7373 H       
  32 H32           -6.7875    -0.0608    -0.7784 H       
  33 H33           -5.9523    -1.6323    -0.8147 H       
  34 H34           -2.7678     3.5109     2.2740 H       
  35 H35           -2.6429     5.9612     2.4313 H       
  36 H36           -3.9418     6.3040    -1.6234 H       
  37 H37           -4.0655     3.8550    -1.8007 H       
  38 H38           -7.6309     4.2244     1.6123 H       
  39 H39           -8.1068     3.5466     0.0339 H       
  40 H40           -9.8640     3.2349     1.8135 H       
  41 H41           -9.2774     1.6977     1.1329 H       
  42 H42           -8.2860     2.9782     3.7206 H       
  43 H43           -9.4141     1.6057     3.6170 H       
  44 H44           -7.1089     0.8046     4.0086 H       
  45 H45           -7.6830     0.2913     2.4032 H       
  46 H46           -5.4092     1.1577     2.1863 H       
  47 H47           -5.8723     2.6680     3.0121 H       
@<TRIPOS>BOND
   1    1    2 ar
   2    1   21 1
   3    1    6 ar
   4    2    3 ar
   5    2   28 1
   6    3    4 ar
   7    3   29 1
   8    4    5 ar
   9    4    7 ar
  10    5    6 ar
  11    5   10 ar
  12    6   30 1
  13    7    8 ar
  14    8    9 ar
  15    8   13 1
  16    9   10 ar
  17    9   12 1
  18   10   11 1
  19   11   14 ar
  20   11   18 ar
  21   12   20 2
  22   12   22 am
  23   13   31 1
  24   13   32 1
  25   13   33 1
  26   14   15 ar
  27   14   34 1
  28   15   16 ar
  29   15   35 1
  30   16   17 ar
  31   16   19 1
  32   17   18 ar
  33   17   36 1
  34   18   37 1
  35   22   23 1
  36   22   27 1
  37   23   24 1
  38   23   38 1
  39   23   39 1
  40   24   25 1
  41   24   40 1
  42   24   41 1
  43   25   26 1
  44   25   42 1
  45   25   43 1
  46   26   27 1
  47   26   44 1
  48   26   45 1
  49   27   46 1
  50   27   47 1

#	End of record

