#	Name: ASD01882043
#	Creating user name:	WinNT
#	Creation time:	15. 06. 2019 19:43

#	Modifying user name:	WinNT
#	Modification time:	15. 06. 2019 19:43

#	Program:	/corina/corina34_cracker 3.40 0067  02.08.2006

@<TRIPOS>MOLECULE
ASD01882043
  44   46    0    0    0
SMALL
NO_CHARGES


@<TRIPOS>ATOM
   1 C1            -0.0169     1.3928     0.0097 C.ar    
   2 C2             0.0021    -0.0041     0.0020 C.ar    
   3 C3             1.2384    -0.6635    -0.0134 C.ar    
   4 C4             2.3902     0.1032    -0.0203 C.ar    
   5 C5             2.2857     1.4826    -0.0119 C.ar    
   6 N6             1.1076     2.0772     0.0026 N.ar    
   7 C7            -1.2578    -0.7717     0.0105 C.2     
   8 O8            -2.3309    -0.1854     0.0243 O.co2   
   9 O9            -1.2290    -1.9943     0.0036 O.co2   
  10 C10            3.5383     2.3204    -0.0189 C.3     
  11 O11            4.6832     1.4654    -0.0341 O.3     
  12 N12            9.7120     3.6365    -0.0691 N.pl3   
  13 N13           10.4064     2.4177    -0.0814 N.2     
  14 N14            9.5644     1.4453    -0.0784 N.2     
  15 C15            8.3023     1.9183    -0.0645 C.ar    
  16 C16            8.3722     3.3222    -0.0583 C.ar    
  17 C17            7.0466     1.2955    -0.0567 C.ar    
  18 C18            5.9029     2.0668    -0.0420 C.ar    
  19 C19            5.9882     3.4569    -0.0358 C.ar    
  20 C20            7.2053     4.0780    -0.0446 C.ar    
  21 C21           10.2977     4.9793    -0.0626 C.3     
  22 C22           10.4936     5.4573    -1.5027 C.3     
  23 C23            9.1406     5.4945    -2.2162 C.3     
  24 C24           11.1053     6.8597    -1.4959 C.3     
  25 C25           11.4307     4.4957    -2.2363 C.3     
  26 Br26           6.9210    -0.5913    -0.0653 Br      
  27 H27           -0.9619     1.9155     0.0170 H       
  28 H28            1.2909    -1.7422    -0.0193 H       
  29 H29            3.3607    -0.3703    -0.0318 H       
  30 H30            3.5465     2.9543    -0.9056 H       
  31 H31            3.5629     2.9447     0.8743 H       
  32 H32            5.0850     4.0489    -0.0246 H       
  33 H33            7.2609     5.1566    -0.0399 H       
  34 H34            9.6301     5.6644     0.4600 H       
  35 H35           11.2616     4.9528     0.4457 H       
  36 H36            8.4730     6.1796    -1.6936 H       
  37 H37            9.2801     5.8351    -3.2422 H       
  38 H38            8.7048     4.4954    -2.2211 H       
  39 H39           12.0691     6.8332    -0.9876 H       
  40 H40           11.2448     7.2002    -2.5219 H       
  41 H41           10.4377     7.5447    -0.9733 H       
  42 H42           10.9949     3.4966    -2.2412 H       
  43 H43           11.5702     4.8363    -3.2623 H       
  44 H44           12.3946     4.4692    -1.7280 H       
@<TRIPOS>BOND
   1    1    2 ar
   2    1    6 ar
   3    1   27 1
   4    2    3 ar
   5    2    7 1
   6    3    4 ar
   7    3   28 1
   8    4    5 ar
   9    4   29 1
  10    5    6 ar
  11    5   10 1
  12    7    8 ar
  13    7    9 ar
  14   10   11 1
  15   10   30 1
  16   10   31 1
  17   11   18 1
  18   12   13 1
  19   12   16 1
  20   12   21 1
  21   13   14 2
  22   14   15 1
  23   15   16 ar
  24   15   17 ar
  25   16   20 ar
  26   17   18 ar
  27   17   26 1
  28   18   19 ar
  29   19   20 ar
  30   19   32 1
  31   20   33 1
  32   21   22 1
  33   21   34 1
  34   21   35 1
  35   22   23 1
  36   22   24 1
  37   22   25 1
  38   23   36 1
  39   23   37 1
  40   23   38 1
  41   24   39 1
  42   24   40 1
  43   24   41 1
  44   25   42 1
  45   25   43 1
  46   25   44 1

#	End of record

