#	Name: ASD01871015
#	Creating user name:	WinNT
#	Creation time:	15. 06. 2019 19:39

#	Modifying user name:	WinNT
#	Modification time:	15. 06. 2019 19:39

#	Program:	/corina/corina34_cracker 3.40 0067  02.08.2006

@<TRIPOS>MOLECULE
ASD01871015
  27   29    0    0    0
SMALL
NO_CHARGES


@<TRIPOS>ATOM
   1 C1            -0.0157     1.3049     0.0092 C.2     
   2 N2             0.0021    -0.0041     0.0020 N.2     
   3 S3            -1.6269    -0.4874     0.0149 S.3     
   4 C4            -2.2505     1.1182     0.0295 C.2     
   5 N5            -1.1944     1.8982     0.0292 N.2     
   6 O6            -3.5514     1.4952     0.0432 O.3     
   7 C7            -4.4968     0.5218     0.0468 C.ar    
   8 C8            -5.8414     0.8690     0.0608 C.ar    
   9 N9            -4.1288    -0.7488     0.0314 N.ar    
  10 C10           -5.0149    -1.7261     0.0337 C.ar    
  11 C11           -6.3688    -1.4541     0.0525 C.ar    
  12 C12           -6.7958    -0.1336     0.0638 C.ar    
  13 C13            1.2427     2.0921     0.0014 C.2     
  14 C14            2.5510     1.5703    -0.0144 C.2     
  15 N15            3.3880     2.5736    -0.0173 N.2     
  16 N16            2.6538     3.7657    -0.0036 N.pl3   
  17 C17            1.3425     3.4530     0.0023 C.2     
  18 C18            2.9209     0.1094    -0.0254 C.3     
  19 F19            3.0221    -0.3360    -1.3478 F       
  20 F20            4.1492    -0.0655     0.6209 F       
  21 F21            1.9347    -0.6263     0.6403 F       
  22 H22           -6.1384     1.9073     0.0696 H       
  23 H23           -4.6773    -2.7519     0.0204 H       
  24 H24           -7.0875    -2.2602     0.0543 H       
  25 H25           -7.8488     0.1062     0.0786 H       
  26 H26            3.0247     4.6620    -0.0021 H       
  27 H27            0.5200     4.1528     0.0128 H       
@<TRIPOS>BOND
   1    1    2 2
   2    1   13 1
   3    1    5 1
   4    2    3 1
   5    3    4 1
   6    4    5 2
   7    4    6 1
   8    6    7 1
   9    7    8 ar
  10    7    9 ar
  11    8   12 ar
  12    8   22 1
  13    9   10 ar
  14   10   11 ar
  15   10   23 1
  16   11   12 ar
  17   11   24 1
  18   12   25 1
  19   13   14 1
  20   13   17 2
  21   14   15 2
  22   14   18 1
  23   15   16 1
  24   16   17 1
  25   16   26 1
  26   17   27 1
  27   18   19 1
  28   18   20 1
  29   18   21 1

#	End of record

