#	Name: ASD01816824
#	Creating user name:	WinNT
#	Creation time:	15. 06. 2019 19:36

#	Modifying user name:	WinNT
#	Modification time:	15. 06. 2019 19:36

#	Program:	/corina/corina34_cracker 3.40 0067  02.08.2006

@<TRIPOS>MOLECULE
ASD01816824
  59   63    0    0    0
SMALL
NO_CHARGES


@<TRIPOS>ATOM
   1 C1            -0.6663     0.3532     0.4876 C.ar    
   2 C2            -0.3242    -0.9965     0.4224 C.ar    
   3 C3             0.9735    -1.3832     0.2789 C.ar    
   4 C4             1.9827    -0.4110     0.1951 C.ar    
   5 C5             1.6375     0.9644     0.2611 C.ar    
   6 C6             0.2843     1.3231     0.4099 C.ar    
   7 C7             3.3351    -0.7721     0.0469 C.ar    
   8 C8             4.2652     0.2242    -0.0277 C.ar    
   9 C9             3.8587     1.5649     0.0439 C.ar    
  10 N10            2.5893     1.8940     0.1828 N.ar    
  11 C11            4.8800     2.6367    -0.0386 C.2     
  12 N12            4.5065     3.9300     0.0285 N.am    
  13 O13            6.0535     2.3492    -0.1666 O.2     
  14 C14            5.5155     4.9890    -0.0529 C.3     
  15 C15            5.8104     5.3039    -1.5227 C.3     
  16 C16            4.9881     6.2531     0.6328 C.3     
  17 C17            6.0157     7.3768     0.4742 C.3     
  18 O18            6.2672     7.5979    -0.9151 O.3     
  19 C19            6.8062     6.4642    -1.5981 C.3     
  20 O20            4.7780     5.9907     2.0217 O.3     
  21 C21            3.7454    -2.2203    -0.0269 C.3     
  22 C22            3.6175    -2.7068    -1.4475 C.ar    
  23 C23            4.6917    -2.5973    -2.3124 C.ar    
  24 C24            2.4283    -3.2662    -1.8796 C.ar    
  25 C25            2.3051    -3.7139    -3.1789 C.ar    
  26 C26            3.3827    -3.6012    -4.0575 C.ar    
  27 C27            4.5810    -3.0409    -3.6142 C.ar    
  28 C28            3.2574    -4.0793    -5.4523 C.2     
  29 C29            2.3433    -4.9806    -5.9201 C.2     
  30 N30            4.0285    -3.6977    -6.5093 N.pl3   
  31 N31            3.5738    -4.3880    -7.6401 N.2     
  32 C32            2.5707    -5.1506    -7.2859 C.2     
  33 C33            5.1343    -2.7376    -6.4699 C.3     
  34 H34           -1.7035     0.6336     0.5971 H       
  35 H35           -1.0992    -1.7459     0.4870 H       
  36 H36            1.2250    -2.4324     0.2301 H       
  37 H37            0.0021     2.3643     0.4624 H       
  38 H38            5.3113    -0.0191    -0.1412 H       
  39 H39            3.5696     4.1596     0.1308 H       
  40 H40            6.4302     4.6598     0.4401 H       
  41 H41            6.2382     4.4248    -2.0048 H       
  42 H42            4.8860     5.5838    -2.0278 H       
  43 H43            4.0471     6.5522     0.1712 H       
  44 H44            5.6270     8.2908     0.9232 H       
  45 H45            6.9436     7.0936     0.9710 H       
  46 H46            7.7445     6.1691    -1.1283 H       
  47 H47            6.9870     6.7208    -2.6419 H       
  48 H48            4.4435     6.7495     2.5191 H       
  49 H49            4.7801    -2.3219     0.3002 H       
  50 H50            3.0998    -2.8142     0.6200 H       
  51 H51            5.6188    -2.1634    -1.9680 H       
  52 H52            1.5947    -3.3529    -1.1984 H       
  53 H53            1.3764    -4.1511    -3.5149 H       
  54 H54            5.4188    -2.9509    -4.2897 H       
  55 H55            1.5802    -5.4738    -5.3362 H       
  56 H56            2.0126    -5.8028    -7.9413 H       
  57 H57            6.0464    -3.2463    -6.1578 H       
  58 H58            5.2787    -2.3088    -7.4616 H       
  59 H59            4.9007    -1.9432    -5.7611 H       
@<TRIPOS>BOND
   1    1    2 ar
   2    1    6 ar
   3    1   34 1
   4    2    3 ar
   5    2   35 1
   6    3    4 ar
   7    3   36 1
   8    4    5 ar
   9    4    7 ar
  10    5    6 ar
  11    5   10 ar
  12    6   37 1
  13    7    8 ar
  14    7   21 1
  15    8    9 ar
  16    8   38 1
  17    9   10 ar
  18    9   11 1
  19   11   12 am
  20   11   13 2
  21   12   14 1
  22   12   39 1
  23   14   15 1
  24   14   16 1
  25   14   40 1
  26   15   19 1
  27   15   41 1
  28   15   42 1
  29   16   17 1
  30   16   20 1
  31   16   43 1
  32   17   18 1
  33   17   44 1
  34   17   45 1
  35   18   19 1
  36   19   46 1
  37   19   47 1
  38   20   48 1
  39   21   22 1
  40   21   49 1
  41   21   50 1
  42   22   23 ar
  43   22   24 ar
  44   23   27 ar
  45   23   51 1
  46   24   25 ar
  47   24   52 1
  48   25   26 ar
  49   25   53 1
  50   26   27 ar
  51   26   28 1
  52   27   54 1
  53   28   29 2
  54   28   30 1
  55   29   32 1
  56   29   55 1
  57   30   31 1
  58   30   33 1
  59   31   32 2
  60   32   56 1
  61   33   57 1
  62   33   58 1
  63   33   59 1

#	End of record

