#	Name: ASD02398044
#	Creating user name:	WinNT
#	Creation time:	15. 06. 2019 20:20

#	Modifying user name:	WinNT
#	Modification time:	15. 06. 2019 20:20

#	Program:	/corina/corina34_cracker 3.40 0067  02.08.2006

@<TRIPOS>MOLECULE
ASD02398044
  69   72    0    0    0
SMALL
NO_CHARGES


@<TRIPOS>ATOM
   1 C1             5.0895     1.1449     1.6005 C.ar    
   2 C2             4.4088     0.5551     0.5308 C.ar    
   3 C3             4.0453     1.3305    -0.5674 C.ar    
   4 C4             4.3579     2.6748    -0.5953 C.ar    
   5 C5             5.0314     3.2555     0.4644 C.ar    
   6 C6             5.3923     2.4963     1.5617 C.ar    
   7 C7             3.9644     3.5126    -1.7845 C.3     
   8 C8             2.5797     4.0678    -1.5718 C.2     
   9 O9             1.9466     3.7532    -0.5919 O.2     
  10 O10            2.0496     4.9119    -2.4708 O.3     
  11 C11            4.0758    -0.8899     0.5656 C.ar    
  12 C12            3.1497    -1.3723     1.4889 C.ar    
  13 C13            4.6833    -1.7692    -0.3285 C.ar    
  14 C14            4.3693    -3.1129    -0.2919 C.ar    
  15 C15            3.4535    -3.5868     0.6298 C.ar    
  16 C16            2.8433    -2.7175     1.5164 C.ar    
  17 C17            2.4845    -0.4267     2.4555 C.3     
  18 N18            1.4637    -1.1477     3.2198 N.am    
  19 C19            1.6953    -1.7737     4.3793 C.2     
  20 N20            0.5908    -2.3581     4.8774 N.am    
  21 C21           -0.4987    -2.0800     3.9257 C.3     
  22 C22            0.1739    -1.2575     2.8446 C.2     
  23 O23            2.7822    -1.8102     4.9220 O.2     
  24 O24           -0.3401    -0.7988     1.8471 O.2     
  25 C25           -1.0468    -3.3636     3.3574 C.ar    
  26 C26           -2.2966    -3.3801     2.7670 C.ar    
  27 C27           -0.2973    -4.5234     3.4213 C.ar    
  28 C28           -0.8000    -5.7008     2.8999 C.ar    
  29 C29           -2.0524    -5.7186     2.3150 C.ar    
  30 C30           -2.7993    -4.5575     2.2457 C.ar    
  31 O31            5.4478     0.3967     2.6762 O.3     
  32 C32            6.1407     1.0671     3.7310 C.3     
  33 C33           -1.6087    -1.2709     4.5997 C.3     
  34 C34            0.4911    -3.1228     6.1231 C.3     
  35 C35            0.1442    -2.1928     7.2570 C.2     
  36 O36           -0.0044    -1.0124     7.0463 O.2     
  37 O37            0.0004    -2.6758     8.5011 O.3     
  38 C38           -0.3340    -1.7223     9.5439 C.3     
  39 C39            3.1144    -5.0548     0.6645 C.3     
  40 F40            3.8462    -5.7258    -0.3211 F       
  41 F41            3.4360    -5.5781     1.9214 F       
  42 F42            1.7464    -5.2231     0.4253 F       
  43 H43            3.5197     0.8804    -1.3966 H       
  44 H44            5.2728     4.3078     0.4360 H       
  45 H45            5.9180     2.9552     2.3860 H       
  46 H46            4.6715     4.3341    -1.9001 H       
  47 H47            3.9744     2.8955    -2.6830 H       
  48 H48            1.1585     5.2417    -2.2912 H       
  49 H49            5.3983    -1.4002    -1.0489 H       
  50 H50            4.8393    -3.7953    -0.9846 H       
  51 H51            2.1290    -3.0930     2.2341 H       
  52 H52            3.2308    -0.0210     3.1386 H       
  53 H53            2.0167     0.3882     1.9030 H       
  54 H54           -2.8804    -2.4730     2.7134 H       
  55 H55            0.6812    -4.5095     3.8783 H       
  56 H56           -0.2142    -6.6068     2.9493 H       
  57 H57           -2.4450    -6.6384     1.9074 H       
  58 H58           -3.7778    -4.5713     1.7887 H       
  59 H59            7.0688     1.4889     3.3454 H       
  60 H60            5.5146     1.8671     4.1261 H       
  61 H61            6.3671     0.3566     4.5260 H       
  62 H62           -1.2025    -0.3249     4.9577 H       
  63 H63           -2.4040    -1.0757     3.8803 H       
  64 H64           -2.0103    -1.8355     5.4410 H       
  65 H65           -0.2867    -3.8800     6.0233 H       
  66 H66            1.4454    -3.6072     6.3294 H       
  67 H67           -1.2823    -1.2407     9.3052 H       
  68 H68           -0.4207    -2.2426    10.4977 H       
  69 H69            0.4498    -0.9679     9.6114 H       
@<TRIPOS>BOND
   1    1    2 ar
   2    1   31 1
   3    1    6 ar
   4    2    3 ar
   5    2   11 1
   6    3    4 ar
   7    3   43 1
   8    4    5 ar
   9    4    7 1
  10    5    6 ar
  11    5   44 1
  12    6   45 1
  13    7    8 1
  14    7   46 1
  15    7   47 1
  16    8    9 2
  17    8   10 1
  18   10   48 1
  19   11   12 ar
  20   11   13 ar
  21   12   17 1
  22   12   16 ar
  23   13   14 ar
  24   13   49 1
  25   14   15 ar
  26   14   50 1
  27   15   16 ar
  28   15   39 1
  29   16   51 1
  30   17   18 1
  31   17   52 1
  32   17   53 1
  33   18   19 am
  34   18   22 am
  35   19   20 am
  36   19   23 2
  37   20   21 1
  38   20   34 1
  39   21   22 1
  40   21   25 1
  41   21   33 1
  42   22   24 2
  43   25   26 ar
  44   25   27 ar
  45   26   30 ar
  46   26   54 1
  47   27   28 ar
  48   27   55 1
  49   28   29 ar
  50   28   56 1
  51   29   30 ar
  52   29   57 1
  53   30   58 1
  54   31   32 1
  55   32   59 1
  56   32   60 1
  57   32   61 1
  58   33   62 1
  59   33   63 1
  60   33   64 1
  61   34   35 1
  62   34   65 1
  63   34   66 1
  64   35   36 2
  65   35   37 1
  66   37   38 1
  67   38   67 1
  68   38   68 1
  69   38   69 1
  70   39   40 1
  71   39   41 1
  72   39   42 1

#	End of record

