#	Name: ASD05490048
#	Creating user name:	WinNT
#	Creation time:	15. 06. 2019 21:01

#	Modifying user name:	WinNT
#	Modification time:	15. 06. 2019 21:01

#	Program:	/corina/corina34_cracker 3.40 0067  02.08.2006

@<TRIPOS>MOLECULE
ASD05490048
  70   74    0    0    0
SMALL
NO_CHARGES


@<TRIPOS>ATOM
   1 O1             1.0670     1.6725    -0.1065 O.3     
   2 N2             3.5369     5.7762     0.1321 N.pl3   
   3 N3             3.3711     1.7263     0.0125 N.ar    
   4 C4             4.5281     2.3757     0.0892 C.ar    
   5 C5             2.2199     2.3808    -0.0279 C.ar    
   6 N6             2.1568     3.7005     0.0052 N.ar    
   7 C7             3.2658     4.4291     0.0817 C.ar    
   8 C8             4.5092     3.7791     0.1269 C.ar    
   9 N9             5.7268     1.6829     0.1315 N.pl3   
  10 C10            4.8948     5.9187     0.1988 C.2     
  11 N11            5.4641     4.7421     0.2015 N.2     
  12 C12            2.5516     6.8602     0.1118 C.3     
  13 C13            2.1419     7.1932     1.5233 C.ar    
  14 C14            1.0726     6.5351     2.1038 C.ar    
  15 C15            1.1815     0.2485    -0.1404 C.3     
  16 C16           -0.2136    -0.3733    -0.2288 C.3     
  17 C17           -0.0910    -1.8980    -0.2651 C.3     
  18 C18           -1.4862    -2.5198    -0.3536 C.3     
  19 C19            2.8400     8.1516     2.2355 C.ar    
  20 C20            2.4697     8.4599     3.5288 C.ar    
  21 C21            1.3901     7.8039     4.1167 C.ar    
  22 C22            0.6931     6.8361     3.3962 C.ar    
  23 C23            0.9872     8.1312     5.5069 C.ar    
  24 C24           -0.0923     7.4751     6.0945 C.ar    
  25 C25            1.6909     9.0913     6.2308 C.ar    
  26 C26            1.3132     9.3926     7.5240 C.ar    
  27 C27            0.2381     8.7435     8.1025 C.ar    
  28 C28           -0.4627     7.7837     7.3900 C.ar    
  29 F29           -1.5124     7.1526     7.9602 F       
  30 C30           -0.0574     8.3231    11.8216 C.3     
  31 C31            1.0563     7.6939    12.6790 C.3     
  32 N32            0.2383     7.9874    10.4119 N.3     
  33 C33            1.7055     7.7654    10.3477 C.3     
  34 C34            2.0086     7.0143    11.6684 C.3     
  35 C35           -0.1692     9.0768     9.5146 C.3     
  36 O36            5.5511     7.1009     0.2621 O.3     
  37 C37            6.9771     7.0481     0.3381 C.3     
  38 H38            5.7277     0.7132     0.1051 H       
  39 H39            6.5653     2.1674     0.1874 H       
  40 H40            2.9902     7.7412    -0.3567 H       
  41 H41            1.6761     6.5447    -0.4558 H       
  42 H42            0.5336     5.7847     1.5447 H       
  43 H43            1.7674    -0.0483    -1.0102 H       
  44 H44            1.6768    -0.0978     0.7667 H       
  45 H45           -0.7996    -0.0765     0.6410 H       
  46 H46           -0.7089    -0.0270    -1.1359 H       
  47 H47            0.4949    -2.1948    -1.1350 H       
  48 H48            0.4043    -2.2443     0.6420 H       
  49 H49           -2.0721    -2.2230     0.5163 H       
  50 H50           -1.9815    -2.1735    -1.2607 H       
  51 H51           -1.3988    -3.6060    -0.3795 H       
  52 H52            3.6766     8.6594     1.7788 H       
  53 H53            3.0159     9.2079     4.0843 H       
  54 H54           -0.1447     6.3249     3.8470 H       
  55 H55           -0.6388     6.7273     5.5390 H       
  56 H56            2.5311     9.5992     5.7809 H       
  57 H57            1.8589    10.1366     8.0853 H       
  58 H58           -1.0245     7.9090    12.1069 H       
  59 H59           -0.0605     9.4052    11.9528 H       
  60 H60            1.5856     8.4659    13.2374 H       
  61 H61            0.6367     6.9536    13.3602 H       
  62 H62            1.9641     7.1492     9.4866 H       
  63 H63            2.2374     8.7163    10.3151 H       
  64 H64            3.0484     7.1561    11.9629 H       
  65 H65            1.7752     5.9540    11.5715 H       
  66 H66            0.3159    10.0027     9.8237 H       
  67 H67           -1.2511     9.2004     9.5611 H       
  68 H68            7.2732     6.5004     1.2328 H       
  69 H69            7.3694     6.5421    -0.5441 H       
  70 H70            7.3763     8.0613     0.3835 H       
@<TRIPOS>BOND
   1    1   15 1
   2    1    5 1
   3    2   12 1
   4    2    7 1
   5    2   10 1
   6    3    4 ar
   7    3    5 ar
   8    4    9 1
   9    4    8 ar
  10    5    6 ar
  11    6    7 ar
  12    7    8 ar
  13    8   11 1
  14    9   38 1
  15    9   39 1
  16   10   11 2
  17   10   36 1
  18   12   13 1
  19   12   40 1
  20   12   41 1
  21   13   19 ar
  22   13   14 ar
  23   14   22 ar
  24   14   42 1
  25   15   16 1
  26   15   43 1
  27   15   44 1
  28   16   17 1
  29   16   45 1
  30   16   46 1
  31   17   18 1
  32   17   47 1
  33   17   48 1
  34   18   49 1
  35   18   50 1
  36   18   51 1
  37   19   20 ar
  38   19   52 1
  39   20   21 ar
  40   20   53 1
  41   21   22 ar
  42   21   23 1
  43   22   54 1
  44   23   24 ar
  45   23   25 ar
  46   24   28 ar
  47   24   55 1
  48   25   26 ar
  49   25   56 1
  50   26   27 ar
  51   26   57 1
  52   27   28 ar
  53   27   35 1
  54   28   29 1
  55   30   31 1
  56   30   32 1
  57   30   58 1
  58   30   59 1
  59   31   34 1
  60   31   60 1
  61   31   61 1
  62   32   33 1
  63   32   35 1
  64   33   34 1
  65   33   62 1
  66   33   63 1
  67   34   64 1
  68   34   65 1
  69   35   66 1
  70   35   67 1
  71   36   37 1
  72   37   68 1
  73   37   69 1
  74   37   70 1

#	End of record

