#	Name: ASD01912867
#	Creating user name:	WinNT
#	Creation time:	15. 06. 2019 20:00

#	Modifying user name:	WinNT
#	Modification time:	15. 06. 2019 20:00

#	Program:	/corina/corina34_cracker 3.40 0067  02.08.2006

@<TRIPOS>MOLECULE
ASD01912867
  49   53    0    0    0
SMALL
NO_CHARGES


@<TRIPOS>ATOM
   1 C1            -0.0165     1.3669     0.0096 C.2     
   2 N2             0.0021    -0.0041     0.0020 N.pl3   
   3 C3            -1.2025    -0.6923     0.0094 C.2     
   4 C4            -2.3629    -0.0504     0.0235 C.2     
   5 N5            -2.4359     1.3311     0.0317 N.am    
   6 C6            -1.3019     2.0670     0.0309 C.2     
   7 C7             1.3014     1.7837    -0.0008 C.2     
   8 C8             2.0550     0.6110    -0.0143 C.2     
   9 N9             1.2244    -0.4045    -0.0118 N.2     
  10 O10           -1.3487     3.2837     0.0380 O.2     
  11 C11           -3.6750     1.9623     0.0460 C.ar    
  12 C12            3.5594     0.5248    -0.0301 C.3     
  13 O13            4.1120     1.8427    -0.0292 O.3     
  14 C14            5.4672     1.9435    -0.0426 C.ar    
  15 C15            6.0711     3.1924    -0.0426 C.ar    
  16 C16            7.4489     3.2922    -0.0562 C.ar    
  17 C17            8.2259     2.1486    -0.0698 C.ar    
  18 C18            7.6264     0.9027    -0.0703 C.ar    
  19 C19            6.2491     0.7975    -0.0505 C.ar    
  20 N20           -4.7745     1.2251     0.0517 N.ar    
  21 N21           -3.7250     3.2851     0.0591 N.ar    
  22 C22           -4.8863     3.9230     0.0734 C.ar    
  23 C23           -6.0583     3.1923     0.0746 C.ar    
  24 C24           -5.9736     1.7979     0.0658 C.ar    
  25 N25           -7.1225     1.0238     0.0666 N.3     
  26 C26           -6.7916    -0.4130     0.0564 C.3     
  27 C27           -7.9516     1.3075     1.2574 C.3     
  28 C28           -8.6127    -0.0480     1.6111 C.3     
  29 C29           -7.4708    -1.0473     1.2883 C.3     
  30 H30           -1.1950    -1.7723     0.0031 H       
  31 H31           -3.2784    -0.6234     0.0285 H       
  32 H32            1.6684     2.7994     0.0006 H       
  33 H33            3.9019    -0.0133     0.8538 H       
  34 H34            3.8837    -0.0045    -0.9260 H       
  35 H35            5.4646     4.0860    -0.0323 H       
  36 H36            7.9195     4.2643    -0.0566 H       
  37 H37            9.3029     2.2287    -0.0805 H       
  38 H38            8.2355     0.0109    -0.0817 H       
  39 H39            5.7814    -0.1759    -0.0508 H       
  40 H40           -4.9161     5.0025     0.0843 H       
  41 H41           -7.0180     3.6874     0.0864 H       
  42 H42           -7.1714    -0.8745    -0.8552 H       
  43 H43           -5.7115    -0.5452     0.1192 H       
  44 H44           -7.3268     1.6515     2.0816 H       
  45 H45           -8.7130     2.0509     1.0213 H       
  46 H46           -8.8799    -0.0883     2.6671 H       
  47 H47           -9.4834    -0.2337     0.9823 H       
  48 H48           -7.8757    -2.0290     1.0424 H       
  49 H49           -6.7713    -1.1155     2.1215 H       
@<TRIPOS>BOND
   1    1    2 1
   2    1    7 2
   3    1    6 1
   4    2    3 1
   5    2    9 1
   6    3    4 2
   7    3   30 1
   8    4    5 1
   9    4   31 1
  10    5    6 am
  11    5   11 1
  12    6   10 2
  13    7    8 1
  14    7   32 1
  15    8    9 2
  16    8   12 1
  17   11   20 ar
  18   11   21 ar
  19   12   13 1
  20   12   33 1
  21   12   34 1
  22   13   14 1
  23   14   15 ar
  24   14   19 ar
  25   15   16 ar
  26   15   35 1
  27   16   17 ar
  28   16   36 1
  29   17   18 ar
  30   17   37 1
  31   18   19 ar
  32   18   38 1
  33   19   39 1
  34   20   24 ar
  35   21   22 ar
  36   22   23 ar
  37   22   40 1
  38   23   24 ar
  39   23   41 1
  40   24   25 1
  41   25   26 1
  42   25   27 1
  43   26   29 1
  44   26   42 1
  45   26   43 1
  46   27   28 1
  47   27   44 1
  48   27   45 1
  49   28   29 1
  50   28   46 1
  51   28   47 1
  52   29   48 1
  53   29   49 1

#	End of record

