#	Name: ASD01670049
#	Creating user name:	WinNT
#	Creation time:	15. 06. 2019 19:22

#	Modifying user name:	WinNT
#	Modification time:	15. 06. 2019 19:22

#	Program:	/corina/corina34_cracker 3.40 0067  02.08.2006

@<TRIPOS>MOLECULE
ASD01670049
  78   81    0    0    0
SMALL
NO_CHARGES


@<TRIPOS>ATOM
   1 C1            -0.1866     0.0202    -0.4230 C.ar    
   2 C2             0.3761    -0.1520     0.8289 C.ar    
   3 C3             0.5912    -0.1062    -1.5557 C.ar    
   4 C4             1.7213    -0.4514     0.9544 C.ar    
   5 C5             6.8000    -0.8680     3.7263 C.ar    
   6 C6             7.0226    -0.9935     5.0871 C.ar    
   7 C7             1.9483    -0.4085    -1.4362 C.ar    
   8 C8             5.1548    -2.6164     3.8313 C.ar    
   9 C9             2.5100    -0.5806    -0.1699 C.ar    
  10 C10            5.8747    -1.6706     3.0957 C.ar    
  11 C11            6.3184    -1.9280     5.8305 C.ar    
  12 C12            5.3798    -2.7426     5.2091 C.ar    
  13 C13            5.0436     2.3885     0.3888 C.2     
  14 C14            5.4152     1.3146     1.0405 C.2     
  15 C15            2.7876    -0.5459    -2.6456 C.2     
  16 C16            4.1631    -3.4770     3.1612 C.2     
  17 C17            6.9758    -2.1151    11.4540 C.2     
  18 C18            1.2098    -1.6485    -8.8463 C.3     
  19 C19            2.1702    -0.4581    -8.8099 C.3     
  20 C20            0.3288    -1.6315    -7.5955 C.3     
  21 C21            3.0524    -0.5525    -7.5634 C.3     
  22 C22            1.2111    -1.7260    -6.3491 C.3     
  23 C23            5.1911    -4.0147     7.2064 C.3     
  24 C24            2.1715    -0.5355    -6.3126 C.3     
  25 C25            5.5734    -2.7248     7.9436 C.3     
  26 C26            3.9749    -0.9062    -0.0313 C.3     
  27 C27            5.6385    -1.5287     1.6141 C.3     
  28 C28            4.4108     0.5440     1.8580 C.3     
  29 C29            6.4105    -1.7773    10.0985 C.3     
  30 C30            3.0537    -0.6300    -5.0662 C.3     
  31 C31            6.1473    -3.0677     9.3198 C.3     
  32 N32            2.2221    -0.4938    -3.8678 N.am    
  33 N33            4.3580    -0.8460     1.3855 N.3     
  34 O34            4.5025    -4.5473     2.6969 O.2     
  35 O35            7.1503    -3.2695    11.7653 O.2     
  36 O36            3.9877    -0.7059    -2.5375 O.2     
  37 O37            2.8802    -3.0766     3.0635 O.3     
  38 O38            7.2856    -1.1335    12.3156 O.3     
  39 O39            4.6734    -3.6594     5.9197 O.3     
  40 O40            6.5603    -2.0387     7.1657 O.3     
  41 H41           -1.2380     0.2498    -0.5142 H       
  42 H42           -0.2370    -0.0520     1.7124 H       
  43 H43            0.1506     0.0282    -2.5325 H       
  44 H44            2.1547    -0.5840     1.9347 H       
  45 H45            7.3513    -0.1342     3.1571 H       
  46 H46            7.7498    -0.3594     5.5725 H       
  47 H47            4.0174     2.7216     0.4374 H       
  48 H48            5.7634     2.9408    -0.1970 H       
  49 H49            6.4414     0.9815     0.9919 H       
  50 H50            0.5813    -1.5813    -9.7343 H       
  51 H51            1.7817    -2.5760    -8.8754 H       
  52 H52            2.7978    -0.4702    -9.7010 H       
  53 H53            1.5983     0.4694    -8.7809 H       
  54 H54           -0.2430    -0.7041    -7.5665 H       
  55 H55           -0.3554    -2.4796    -7.6215 H       
  56 H56            3.6243    -1.4800    -7.5925 H       
  57 H57            3.7367     0.2956    -7.5375 H       
  58 H58            0.5835    -1.7139    -5.4579 H       
  59 H59            1.7830    -2.6534    -6.3781 H       
  60 H60            6.0726    -4.6444     7.0860 H       
  61 H61            4.4303    -4.5508     7.7739 H       
  62 H62            1.5996     0.3919    -6.2836 H       
  63 H63            4.6928    -2.0930     8.0597 H       
  64 H64            4.1622    -1.9087    -0.4161 H       
  65 H65            4.5628    -0.1839    -0.5977 H       
  66 H66            6.4456    -0.9446     1.1718 H       
  67 H67            5.6107    -2.5165     1.1543 H       
  68 H68            4.7069     0.5602     2.9069 H       
  69 H69            3.4274     1.0017     1.7510 H       
  70 H70            5.4761    -1.2296    10.2208 H       
  71 H71            7.1237    -1.1613     9.5507 H       
  72 H72            3.5582    -1.5960    -5.0504 H       
  73 H73            3.7965     0.1676    -5.0855 H       
  74 H74            5.4342    -3.6837     9.8676 H       
  75 H75            7.0818    -3.6153     9.1975 H       
  76 H76            1.2644    -0.3661    -3.9540 H       
  77 H77            2.2665    -3.6747     2.6155 H       
  78 H78            7.6453    -1.3992    13.1730 H       
@<TRIPOS>BOND
   1    1    2 ar
   2    1    3 ar
   3    1   41 1
   4    2    4 ar
   5    2   42 1
   6    3    7 ar
   7    3   43 1
   8    4    9 ar
   9    4   44 1
  10    5    6 ar
  11    5   10 ar
  12    5   45 1
  13    6   11 ar
  14    6   46 1
  15    7    9 ar
  16    7   15 1
  17    8   10 ar
  18    8   12 ar
  19    8   16 1
  20    9   26 1
  21   10   27 1
  22   11   12 ar
  23   11   40 1
  24   12   39 1
  25   13   14 2
  26   13   47 1
  27   13   48 1
  28   14   28 1
  29   14   49 1
  30   15   32 am
  31   15   36 2
  32   16   34 2
  33   16   37 1
  34   17   29 1
  35   17   35 2
  36   17   38 1
  37   18   19 1
  38   18   20 1
  39   18   50 1
  40   18   51 1
  41   19   21 1
  42   19   52 1
  43   19   53 1
  44   20   22 1
  45   20   54 1
  46   20   55 1
  47   21   24 1
  48   21   56 1
  49   21   57 1
  50   22   24 1
  51   22   58 1
  52   22   59 1
  53   23   25 1
  54   23   39 1
  55   23   60 1
  56   23   61 1
  57   24   30 1
  58   24   62 1
  59   25   31 1
  60   25   40 1
  61   25   63 1
  62   26   33 1
  63   26   64 1
  64   26   65 1
  65   27   33 1
  66   27   66 1
  67   27   67 1
  68   28   33 1
  69   28   68 1
  70   28   69 1
  71   29   31 1
  72   29   70 1
  73   29   71 1
  74   30   32 1
  75   30   72 1
  76   30   73 1
  77   31   74 1
  78   31   75 1
  79   32   76 1
  80   37   77 1
  81   38   78 1

#	End of record

