#	Name: ASD03430359
#	Creating user name:	WinNT
#	Creation time:	15. 06. 2019 20:40

#	Modifying user name:	WinNT
#	Modification time:	15. 06. 2019 20:40

#	Program:	/corina/corina34_cracker 3.40 0067  02.08.2006

@<TRIPOS>MOLECULE
ASD03430359
  64   70    0    0    0
SMALL
NO_CHARGES


@<TRIPOS>ATOM
   1 C1            -0.0167     1.3826     0.0096 C.ar    
   2 C2             0.0021    -0.0041     0.0020 C.ar    
   3 C3             1.2023    -0.6818    -0.0146 C.ar    
   4 C4             2.4085     0.0133    -0.0144 C.ar    
   5 C5             2.3860     1.4039    -0.0117 C.ar    
   6 C6             1.1811     2.0871     0.0020 C.ar    
   7 O7             3.4713    -0.8414    -0.0030 O.3     
   8 C8             1.5510    -2.1456    -0.0476 C.3     
   9 C9             3.0368    -2.1457    -0.4328 C.3     
  10 C10            0.4290    -3.8621     1.0088 C.ar    
  11 C11            1.3145    -2.8193     1.2714 C.ar    
  12 C12            0.7188    -2.9076    -1.0387 C.2     
  13 N13            0.1011    -3.8871    -0.3489 N.am    
  14 O14            0.6214    -2.6850    -2.2270 O.2     
  15 C15            1.7771    -2.5982     2.5490 C.ar    
  16 C16            1.3646    -3.4156     3.5868 C.ar    
  17 C17            0.4869    -4.4544     3.3374 C.ar    
  18 C18            0.0199    -4.6798     2.0588 C.ar    
  19 C19           -0.8083    -4.8642    -0.9527 C.3     
  20 C20           -2.2390    -4.3236    -0.9099 C.3     
  21 O21           -2.3342    -3.1588    -1.7343 O.3     
  22 C22           -3.2047    -5.3913    -1.4309 C.3     
  23 N23           -4.5672    -4.8400    -1.4601 N.3     
  24 C24           -4.6276    -3.6455    -2.3149 C.3     
  25 C25           -3.6477    -2.5953    -1.7851 C.3     
  26 O26           -1.2113     2.0361     0.0189 O.3     
  27 C27           -1.1865     3.4162     0.3992 C.3     
  28 C28           -0.0353     4.1000    -0.3507 C.3     
  29 O29            1.1865     3.4487     0.0119 O.3     
  30 C30           -5.5355    -5.8527    -1.9014 C.3     
  31 C31           -6.9351    -5.3368    -1.6866 C.ar    
  32 C32           -7.5712    -4.6266    -2.6875 C.ar    
  33 C33           -8.8549    -4.1533    -2.4904 C.ar    
  34 C34           -9.5028    -4.3906    -1.2925 C.ar    
  35 C35           -8.8670    -5.1016    -0.2919 C.ar    
  36 C36           -7.5849    -5.5786    -0.4907 C.ar    
  37 H37           -0.9269    -0.5549     0.0095 H       
  38 H38            3.3147     1.9551    -0.0199 H       
  39 H39            3.1573    -2.2581    -1.5103 H       
  40 H40            3.5751    -2.9285     0.1016 H       
  41 H41            2.4628    -1.7864     2.7415 H       
  42 H42            1.7277    -3.2427     4.5891 H       
  43 H43            0.1656    -5.0926     4.1472 H       
  44 H44           -0.6654    -5.4934     1.8719 H       
  45 H45           -0.5171    -5.0400    -1.9882 H       
  46 H46           -0.7569    -5.8003    -0.3968 H       
  47 H47           -2.5000    -4.0655     0.1164 H       
  48 H48           -2.9105    -5.6881    -2.4376 H       
  49 H49           -3.1773    -6.2593    -0.7722 H       
  50 H50           -4.3562    -3.9143    -3.3358 H       
  51 H51           -5.6389    -3.2391    -2.3016 H       
  52 H52           -3.9504    -2.2870    -0.7844 H       
  53 H53           -3.6472    -1.7304    -2.4485 H       
  54 H54           -2.1317     3.8885     0.1313 H       
  55 H55           -1.0253     3.4986     1.4741 H       
  56 H56           -0.1929     4.0113    -1.4256 H       
  57 H57            0.0118     5.1525    -0.0712 H       
  58 H58           -5.3843    -6.0629    -2.9602 H       
  59 H59           -5.3929    -6.7671    -1.3255 H       
  60 H60           -7.0650    -4.4411    -3.6234 H       
  61 H61           -9.3516    -3.5978    -3.2721 H       
  62 H62          -10.5055    -4.0203    -1.1383 H       
  63 H63           -9.3730    -5.2868     0.6441 H       
  64 H64           -7.0895    -6.1373     0.2897 H       
@<TRIPOS>BOND
   1    1    2 ar
   2    1    6 ar
   3    1   26 1
   4    2    3 ar
   5    2   37 1
   6    3    4 ar
   7    3    8 1
   8    4    5 ar
   9    4    7 1
  10    5    6 ar
  11    5   38 1
  12    6   29 1
  13    7    9 1
  14    8    9 1
  15    8   11 1
  16    8   12 1
  17    9   39 1
  18    9   40 1
  19   10   11 ar
  20   10   13 1
  21   10   18 ar
  22   11   15 ar
  23   12   13 am
  24   12   14 2
  25   13   19 1
  26   15   16 ar
  27   15   41 1
  28   16   17 ar
  29   16   42 1
  30   17   18 ar
  31   17   43 1
  32   18   44 1
  33   19   20 1
  34   19   45 1
  35   19   46 1
  36   20   21 1
  37   20   22 1
  38   20   47 1
  39   21   25 1
  40   22   23 1
  41   22   48 1
  42   22   49 1
  43   23   24 1
  44   23   30 1
  45   24   25 1
  46   24   50 1
  47   24   51 1
  48   25   52 1
  49   25   53 1
  50   26   27 1
  51   27   28 1
  52   27   54 1
  53   27   55 1
  54   28   29 1
  55   28   56 1
  56   28   57 1
  57   30   31 1
  58   30   58 1
  59   30   59 1
  60   31   32 ar
  61   31   36 ar
  62   32   33 ar
  63   32   60 1
  64   33   34 ar
  65   33   61 1
  66   34   35 ar
  67   34   62 1
  68   35   36 ar
  69   35   63 1
  70   36   64 1

#	End of record

