#	Name: ASD02038601
#	Creating user name:	WinNT
#	Creation time:	15. 06. 2019 20:17

#	Modifying user name:	WinNT
#	Modification time:	15. 06. 2019 20:17

#	Program:	/corina/corina34_cracker 3.40 0067  02.08.2006

@<TRIPOS>MOLECULE
ASD02038601
  46   47    0    0    0
SMALL
NO_CHARGES


@<TRIPOS>ATOM
   1 C1             0.0620     0.1985    -0.6324 C.ar    
   2 C2            -0.0611    -1.1793    -0.5738 C.ar    
   3 C3            -1.3126    -1.7584    -0.4717 C.ar    
   4 C4            -2.4442    -0.9578    -0.4280 C.ar    
   5 C5            -2.3182     0.4227    -0.4868 C.ar    
   6 C6            -1.0661     0.9981    -0.5831 C.ar    
   7 O7            -3.6754    -1.5251    -0.3281 O.3     
   8 C8            -4.7963    -0.6396    -0.2882 C.3     
   9 C9            -6.0862    -1.4546    -0.1755 C.3     
  10 N10           -6.1060    -2.1648     1.1103 N.3     
  11 C11           -7.3329    -2.9598     1.2538 C.3     
  12 C12           -7.3172    -3.6831     2.6019 C.3     
  13 O13           -7.3635    -2.7222     3.6586 O.3     
  14 C14           -7.3564    -3.2027     4.9309 C.ar    
  15 Cl15           1.6339     0.9240    -0.7605 Cl      
  16 Cl16           1.3563    -2.1803    -0.6292 Cl      
  17 C17           -7.3997    -2.3247     6.0037 C.ar    
  18 C18           -7.3116    -4.5708     5.1548 C.ar    
  19 C19           -7.3048    -5.0597     6.4465 C.ar    
  20 C20           -7.3424    -4.1811     7.5211 C.ar    
  21 C21           -7.3925    -2.8118     7.2960 C.ar    
  22 N22           -7.3356    -4.6756     8.8302 N.am    
  23 S23           -5.9341    -5.2673     9.4846 S.o2    
  24 C24           -4.8155    -3.8398     9.5251 C.3     
  25 O25           -6.2984    -5.6530    10.8028 O.2     
  26 O26           -5.4836    -6.2271     8.5385 O.2     
  27 H27           -1.4088    -2.8331    -0.4264 H       
  28 H28           -3.1986     1.0473    -0.4532 H       
  29 H29           -0.9682     2.0727    -0.6285 H       
  30 H30           -4.7071     0.0207     0.5745 H       
  31 H31           -4.8214    -0.0439    -1.2007 H       
  32 H32           -6.9449    -0.7858    -0.2344 H       
  33 H33           -6.1319    -2.1771    -0.9904 H       
  34 H34           -5.2860    -2.7430     1.2166 H       
  35 H35           -8.2002    -2.3014     1.2049 H       
  36 H36           -7.3872    -3.6927     0.4489 H       
  37 H37           -8.1832    -4.3413     2.6712 H       
  38 H38           -6.4046    -4.2731     2.6871 H       
  39 H39           -7.4387    -1.2597     5.8284 H       
  40 H40           -7.2824    -5.2540     4.3189 H       
  41 H41           -7.2706    -6.1250     6.6206 H       
  42 H42           -7.4218    -2.1278     8.1313 H       
  43 H43           -8.1518    -4.6718     9.3544 H       
  44 H44           -5.2905    -3.0213    10.0659 H       
  45 H45           -3.8893    -4.1182    10.0277 H       
  46 H46           -4.5947    -3.5222     8.5061 H       
@<TRIPOS>BOND
   1    1    2 ar
   2    1   15 1
   3    1    6 ar
   4    2    3 ar
   5    2   16 1
   6    3    4 ar
   7    3   27 1
   8    4    5 ar
   9    4    7 1
  10    5    6 ar
  11    5   28 1
  12    6   29 1
  13    7    8 1
  14    8    9 1
  15    8   30 1
  16    8   31 1
  17    9   10 1
  18    9   32 1
  19    9   33 1
  20   10   11 1
  21   10   34 1
  22   11   12 1
  23   11   35 1
  24   11   36 1
  25   12   13 1
  26   12   37 1
  27   12   38 1
  28   13   14 1
  29   14   17 ar
  30   14   18 ar
  31   17   21 ar
  32   17   39 1
  33   18   19 ar
  34   18   40 1
  35   19   20 ar
  36   19   41 1
  37   20   21 ar
  38   20   22 1
  39   21   42 1
  40   22   23 am
  41   22   43 1
  42   23   24 1
  43   23   25 2
  44   23   26 2
  45   24   44 1
  46   24   45 1
  47   24   46 1

#	End of record

