#	Name: ASD01150995
#	Creating user name:	WinNT
#	Creation time:	15. 06. 2019 19:05

#	Modifying user name:	WinNT
#	Modification time:	15. 06. 2019 19:05

#	Program:	/corina/corina34_cracker 3.40 0067  02.08.2006

@<TRIPOS>MOLECULE
ASD01150995
  46   47    0    0    0
SMALL
NO_CHARGES


@<TRIPOS>ATOM
   1 C1             0.2537     1.2257    -0.2930 C.2     
   2 C2             0.1634    -0.1393    -0.2597 C.2     
   3 C3            -1.1221    -0.5939    -0.0754 C.2     
   4 C4            -2.0512     0.3619     0.0381 C.2     
   5 S5            -1.3500     1.9131    -0.0752 S.3     
   6 S6            -1.5158    -2.3095     0.0046 S.o2    
   7 Cl7            1.5330    -1.1917    -0.4334 Cl      
   8 C8             1.4881     1.9910    -0.4746 C.2     
   9 C9            -0.6961    -2.8921     1.5143 C.3     
  10 O10           -2.9279    -2.3380     0.1611 O.2     
  11 O11           -0.8949    -2.8655    -1.1463 O.2     
  12 C12           -1.2515    -2.1334     2.7214 C.3     
  13 C13           -0.9553    -4.3897     1.6899 C.3     
  14 N14            1.4498     3.3381    -0.4899 N.am    
  15 O15            2.5493     1.4107    -0.6116 O.2     
  16 C16            2.6172     4.0618    -0.6616 C.2     
  17 C17            2.7219     5.4329    -0.6970 C.2     
  18 N18            3.9658     5.8862    -0.8746 N.2     
  19 C19            4.9012     5.0134    -0.9895 C.2     
  20 S20            4.2333     3.3898    -0.8658 S.3     
  21 C21            1.5667     6.3209    -0.5527 C.2     
  22 O22            0.4554     5.8523    -0.3935 O.2     
  23 O23            1.7347     7.6587    -0.5962 O.3     
  24 C24            0.5452     8.4777    -0.4461 C.3     
  25 C25            0.9311     9.9563    -0.5217 C.3     
  26 C26            6.3595     5.3332    -1.1944 C.3     
  27 C27            7.0492     5.4628     0.1652 C.3     
  28 H28           -3.1049     0.1763     0.1857 H       
  29 H29            0.3767    -2.7157     1.4365 H       
  30 H30           -2.3364    -2.2353     2.7468 H       
  31 H31           -0.8263    -2.5455     3.6365 H       
  32 H32           -0.9874    -1.0790     2.6407 H       
  33 H33           -0.5597    -4.9302     0.8299 H       
  34 H34           -0.4628    -4.7398     2.5970 H       
  35 H35           -2.0281    -4.5661     1.7677 H       
  36 H36            0.6041     3.8005    -0.3807 H       
  37 H37           -0.1594     8.2449    -1.2446 H       
  38 H38            0.0818     8.2720     0.5188 H       
  39 H39            1.6357    10.1891     0.2768 H       
  40 H40            1.3945    10.1620    -1.4866 H       
  41 H41            0.0382    10.5711    -0.4090 H       
  42 H42            6.8302     4.5331    -1.7658 H       
  43 H43            6.4524     6.2723    -1.7399 H       
  44 H44            6.5786     6.2629     0.7365 H       
  45 H45            6.9564     4.5237     0.7106 H       
  46 H46            8.1040     5.6941     0.0169 H       
@<TRIPOS>BOND
   1    1    2 2
   2    1    8 1
   3    1    5 1
   4    2    3 1
   5    2    7 1
   6    3    4 2
   7    3    6 1
   8    4    5 1
   9    4   28 1
  10    6    9 1
  11    6   10 2
  12    6   11 2
  13    8   14 am
  14    8   15 2
  15    9   12 1
  16    9   13 1
  17    9   29 1
  18   12   30 1
  19   12   31 1
  20   12   32 1
  21   13   33 1
  22   13   34 1
  23   13   35 1
  24   14   16 1
  25   14   36 1
  26   16   17 2
  27   16   20 1
  28   17   18 1
  29   17   21 1
  30   18   19 2
  31   19   20 1
  32   19   26 1
  33   21   22 2
  34   21   23 1
  35   23   24 1
  36   24   25 1
  37   24   37 1
  38   24   38 1
  39   25   39 1
  40   25   40 1
  41   25   41 1
  42   26   27 1
  43   26   42 1
  44   26   43 1
  45   27   44 1
  46   27   45 1
  47   27   46 1

#	End of record

