#	Name: ASD01150293
#	Creating user name:	WinNT
#	Creation time:	15. 06. 2019 19:04

#	Modifying user name:	WinNT
#	Modification time:	15. 06. 2019 19:04

#	Program:	/corina/corina34_cracker 3.40 0067  02.08.2006

@<TRIPOS>MOLECULE
ASD01150293
  56   58    0    0    0
SMALL
NO_CHARGES


@<TRIPOS>ATOM
   1 C1            -0.0158     1.3123     0.0093 C.2     
   2 N2             0.0021    -0.0041     0.0020 N.2     
   3 C3            -1.2465    -0.4792     0.0114 C.2     
   4 C4            -2.1134     0.6064     0.0255 C.2     
   5 N5            -1.3045     1.7451     0.0298 N.pl3   
   6 N6             1.0958     2.1231     0.0030 N.3     
   7 C7             2.3292     1.3253    -0.0137 C.3     
   8 C8             1.0586     3.0586    -1.1289 C.3     
   9 C9            -1.7378     3.0773     0.0437 C.ar    
  10 N10           -1.6126    -1.8197     0.0073 N.am    
  11 C11           -3.5222     0.5667     0.0387 C.2     
  12 O12           -4.2300     1.7168     0.0511 O.3     
  13 O13           -4.1012    -0.5046     0.0390 O.2     
  14 C14           -5.6543     1.6018     0.0642 C.3     
  15 C15           -6.0928     0.8357     1.3139 C.3     
  16 C16           -6.2786     2.9986     0.0770 C.3     
  17 C17           -6.1166     0.8481    -1.1845 C.3     
  18 C18           -1.4631     3.8868     1.1378 C.ar    
  19 C19           -1.8913     5.1999     1.1483 C.ar    
  20 C20           -2.5928     5.7085     0.0707 C.ar    
  21 C21           -2.8684     4.9047    -1.0202 C.ar    
  22 C22           -2.4379     3.5924    -1.0391 C.ar    
  23 C23           -0.6643    -2.7773    -0.0069 C.2     
  24 C24           -1.0532    -4.2011    -0.0113 C.ar    
  25 O25            0.5115    -2.4683    -0.0160 O.2     
  26 C26           -2.4033    -4.5592    -0.0008 C.ar    
  27 C27           -2.7609    -5.8902    -0.0054 C.ar    
  28 C28           -1.7837    -6.8741    -0.0204 C.ar    
  29 C29           -0.4420    -6.5261    -0.0304 C.ar    
  30 C30           -0.0717    -5.1968    -0.0318 C.ar    
  31 F31           -2.1408    -8.1770    -0.0249 F       
  32 Cl32           1.6089    -4.7618    -0.0449 Cl      
  33 H33            2.3464     0.7016    -0.9074 H       
  34 H34            3.1923     1.9909    -0.0183 H       
  35 H35            2.3639     0.6915     0.8724 H       
  36 H36            0.1696     3.6849    -1.0537 H       
  37 H37            1.9487     3.6875    -1.1100 H       
  38 H38            1.0299     2.4977    -2.0631 H       
  39 H39           -2.5507    -2.0662     0.0146 H       
  40 H40           -5.7634     1.3727     2.2034 H       
  41 H41           -7.1792     0.7481     1.3238 H       
  42 H42           -5.6480    -0.1593     1.3047 H       
  43 H43           -5.9663     3.5444    -0.8133 H       
  44 H44           -7.3650     2.9109     0.0869 H       
  45 H45           -5.9493     3.5356     0.9665 H       
  46 H46           -5.6718    -0.1470    -1.1936 H       
  47 H47           -7.2030     0.7604    -1.1745 H       
  48 H48           -5.8042     1.3938    -2.0748 H       
  49 H49           -0.9155     3.4901     1.9799 H       
  50 H50           -1.6782     5.8300     1.9992 H       
  51 H51           -2.9266     6.7356     0.0812 H       
  52 H52           -3.4171     5.3045    -1.8601 H       
  53 H53           -2.6532     2.9652    -1.8916 H       
  54 H54           -3.1657    -3.7944     0.0113 H       
  55 H55           -3.8046    -6.1676     0.0031 H       
  56 H56            0.3147    -7.2965    -0.0414 H       
@<TRIPOS>BOND
   1    1    2 2
   2    1    6 1
   3    1    5 1
   4    2    3 1
   5    3    4 2
   6    3   10 1
   7    4    5 1
   8    4   11 1
   9    5    9 1
  10    6    7 1
  11    6    8 1
  12    7   33 1
  13    7   34 1
  14    7   35 1
  15    8   36 1
  16    8   37 1
  17    8   38 1
  18    9   18 ar
  19    9   22 ar
  20   10   23 am
  21   10   39 1
  22   11   12 1
  23   11   13 2
  24   12   14 1
  25   14   15 1
  26   14   16 1
  27   14   17 1
  28   15   40 1
  29   15   41 1
  30   15   42 1
  31   16   43 1
  32   16   44 1
  33   16   45 1
  34   17   46 1
  35   17   47 1
  36   17   48 1
  37   18   19 ar
  38   18   49 1
  39   19   20 ar
  40   19   50 1
  41   20   21 ar
  42   20   51 1
  43   21   22 ar
  44   21   52 1
  45   22   53 1
  46   23   24 1
  47   23   25 2
  48   24   26 ar
  49   24   30 ar
  50   26   27 ar
  51   26   54 1
  52   27   28 ar
  53   27   55 1
  54   28   29 ar
  55   28   31 1
  56   29   30 ar
  57   29   56 1
  58   30   32 1

#	End of record

