#	Name: ASD01940143
#	Creating user name:	WinNT
#	Creation time:	15. 06. 2019 20:11

#	Modifying user name:	WinNT
#	Modification time:	15. 06. 2019 20:11

#	Program:	/corina/corina34_cracker 3.40 0067  02.08.2006

@<TRIPOS>MOLECULE
ASD01940143
  42   43    0    0    0
SMALL
NO_CHARGES


@<TRIPOS>ATOM
   1 F1             1.8872     1.5262     2.2302 F       
   2 C2             1.0499     2.1289     1.3579 C.ar    
   3 C3             1.3727     2.1818     0.0084 C.ar    
   4 C4             0.5054     2.8043    -0.8878 C.ar    
   5 C5            -0.6755     3.3677    -0.4281 C.ar    
   6 C6            -0.9915     3.3125     0.9169 C.ar    
   7 C7            -0.1345     2.6898     1.8083 C.ar    
   8 N8             2.5678     1.6111    -0.4512 N.pl3   
   9 N9             0.8263     2.8610    -2.2507 N.am    
  10 C10            2.6085     0.2582    -0.7953 C.ar    
  11 C11            1.4494    -0.5064    -0.7522 C.ar    
  12 C12            1.4933    -1.8441    -1.0931 C.ar    
  13 C13            2.6893    -2.4226    -1.4764 C.ar    
  14 C14            3.8454    -1.6644    -1.5200 C.ar    
  15 C15            3.8075    -0.3250    -1.1869 C.ar    
  16 C16            5.0675     0.5003    -1.2351 C.3     
  17 F17           -0.4509     2.6337     3.1205 F       
  18 S18            0.4146     4.1935    -3.1435 S.o2    
  19 O19            0.9771     3.9446    -4.4245 O.2     
  20 O20           -0.9910     4.3105    -2.9707 O.2     
  21 C21            1.2727     5.5678    -2.3276 C.3     
  22 O22            0.9879     6.7852    -3.0196 O.3     
  23 C23           -0.3244     7.2971    -2.7792 C.3     
  24 C24            2.7334    -3.8826    -1.8471 C.3     
  25 F25            1.4529    -4.4331    -1.7267 F       
  26 F26            3.1757    -4.0153    -3.1677 F       
  27 F27            3.6124    -4.5547    -0.9911 F       
  28 H28           -1.3486     3.8504    -1.1211 H       
  29 H29           -1.9116     3.7523     1.2724 H       
  30 H30            3.3664     2.1559    -0.5304 H       
  31 H31            1.2896     2.1197    -2.6711 H       
  32 H32            0.5151    -0.0553    -0.4522 H       
  33 H33            0.5926    -2.4390    -1.0598 H       
  34 H34            4.7779    -2.1196    -1.8195 H       
  35 H35            5.1777     0.9376    -2.2275 H       
  36 H36            5.0096     1.2956    -0.4920 H       
  37 H37            5.9266    -0.1354    -1.0208 H       
  38 H38            0.9312     5.6480    -1.2957 H       
  39 H39            2.3471     5.3848    -2.3416 H       
  40 H40           -1.0647     6.5642    -3.0998 H       
  41 H41           -0.4474     7.4960    -1.7146 H       
  42 H42           -0.4621     8.2217    -3.3398 H       
@<TRIPOS>BOND
   1    1    2 1
   2    2    3 ar
   3    2    7 ar
   4    3    4 ar
   5    3    8 1
   6    4    5 ar
   7    4    9 1
   8    5    6 ar
   9    5   28 1
  10    6    7 ar
  11    6   29 1
  12    7   17 1
  13    8   10 1
  14    8   30 1
  15    9   18 am
  16    9   31 1
  17   10   11 ar
  18   10   15 ar
  19   11   12 ar
  20   11   32 1
  21   12   13 ar
  22   12   33 1
  23   13   14 ar
  24   13   24 1
  25   14   15 ar
  26   14   34 1
  27   15   16 1
  28   16   35 1
  29   16   36 1
  30   16   37 1
  31   18   19 2
  32   18   20 2
  33   18   21 1
  34   21   22 1
  35   21   38 1
  36   21   39 1
  37   22   23 1
  38   23   40 1
  39   23   41 1
  40   23   42 1
  41   24   25 1
  42   24   26 1
  43   24   27 1

#	End of record

