#	Name: ASD01881275
#	Creating user name:	WinNT
#	Creation time:	15. 06. 2019 19:42

#	Modifying user name:	WinNT
#	Modification time:	15. 06. 2019 19:42

#	Program:	/corina/corina34_cracker 3.40 0067  02.08.2006

@<TRIPOS>MOLECULE
ASD01881275
  49   51    0    0    0
SMALL
NO_CHARGES


@<TRIPOS>ATOM
   1 C1            -0.0162     1.3398     0.0094 C.2     
   2 N2             0.0021    -0.0041     0.0020 N.am    
   3 C3             1.3975    -0.4574    -0.0137 C.3     
   4 C4             2.2453     0.7903    -0.0151 C.ar    
   5 C5             3.6007     1.0050    -0.0273 C.ar    
   6 C6             4.0976     2.3066    -0.0255 C.ar    
   7 C7             3.2198     3.3874    -0.0113 C.ar    
   8 C8             1.8605     3.1761     0.0009 C.ar    
   9 C9             1.3571     1.8711    -0.0009 C.ar    
  10 O10           -1.0238     2.0204     0.0181 O.2     
  11 C11            0.9148     4.3493     0.0168 C.3     
  12 N12            5.4706     2.5264    -0.0373 N.pl3   
  13 C13            5.9934     3.8949    -0.0354 C.3     
  14 C14            8.1892     3.8456    -1.2499 C.ar    
  15 C15            7.4998     3.8572    -0.0498 C.ar    
  16 C16            8.2126     3.8341     1.1382 C.ar    
  17 C17            9.5979     3.8001     1.0768 C.ar    
  18 C18           10.2177     3.7904    -0.1578 C.ar    
  19 N19            9.5081     3.8135    -1.2695 N.ar    
  20 C20            7.4995     3.8461     2.4658 C.3     
  21 F21            8.4403     3.8180     3.5008 F       
  22 F22            6.7267     5.0077     2.5695 F       
  23 F23            6.6694     2.7239     2.5595 F       
  24 Cl24           7.3086     3.8670    -2.7458 Cl      
  25 C25           -1.1772    -0.8732     0.0086 C.3     
  26 C26           -1.6012    -1.1686    -1.4315 C.3     
  27 C27           -2.8328    -2.0763    -1.4246 C.3     
  28 C28           -3.2567    -2.3716    -2.8648 C.3     
  29 H29            1.6082    -1.0527     0.8747 H       
  30 H30            1.5912    -1.0431    -0.9124 H       
  31 H31            4.2810     0.1663    -0.0380 H       
  32 H32            3.6076     4.3954    -0.0095 H       
  33 H33            0.6767     4.6379    -1.0070 H       
  34 H34           -0.0010     4.0708     0.5381 H       
  35 H35            1.3848     5.1879     0.5306 H       
  36 H36            6.0822     1.7735    -0.0469 H       
  37 H37            5.6346     4.4221    -0.9194 H       
  38 H38            5.6514     4.4132     0.8604 H       
  39 H39           10.1849     3.7817     1.9832 H       
  40 H40           11.2959     3.7640    -0.2134 H       
  41 H41           -0.9369    -1.8078     0.5155 H       
  42 H42           -1.9929    -0.3750     0.5326 H       
  43 H43           -1.8414    -0.2340    -1.9384 H       
  44 H44           -0.7855    -1.6668    -1.9555 H       
  45 H45           -2.5925    -3.0109    -0.9177 H       
  46 H46           -3.6484    -1.5780    -0.9007 H       
  47 H47           -3.4970    -1.4371    -3.3717 H       
  48 H48           -2.4410    -2.8699    -3.3887 H       
  49 H49           -4.1341    -3.0183    -2.8598 H       
@<TRIPOS>BOND
   1    1    2 am
   2    1    9 1
   3    1   10 2
   4    2    3 1
   5    2   25 1
   6    3    4 1
   7    3   29 1
   8    3   30 1
   9    4    5 ar
  10    4    9 ar
  11    5    6 ar
  12    5   31 1
  13    6    7 ar
  14    6   12 1
  15    7    8 ar
  16    7   32 1
  17    8    9 ar
  18    8   11 1
  19   11   33 1
  20   11   34 1
  21   11   35 1
  22   12   13 1
  23   12   36 1
  24   13   15 1
  25   13   37 1
  26   13   38 1
  27   14   15 ar
  28   14   19 ar
  29   14   24 1
  30   15   16 ar
  31   16   17 ar
  32   16   20 1
  33   17   18 ar
  34   17   39 1
  35   18   19 ar
  36   18   40 1
  37   20   21 1
  38   20   22 1
  39   20   23 1
  40   25   26 1
  41   25   41 1
  42   25   42 1
  43   26   27 1
  44   26   43 1
  45   26   44 1
  46   27   28 1
  47   27   45 1
  48   27   46 1
  49   28   47 1
  50   28   48 1
  51   28   49 1

#	End of record

