#	Name: ASD01813980
#	Creating user name:	WinNT
#	Creation time:	15. 06. 2019 19:31

#	Modifying user name:	WinNT
#	Modification time:	15. 06. 2019 19:31

#	Program:	/corina/corina34_cracker 3.40 0067  02.08.2006

@<TRIPOS>MOLECULE
ASD01813980
  51   54    0    0    0
SMALL
NO_CHARGES


@<TRIPOS>ATOM
   1 C1             1.5871     2.4680    -0.3913 C.ar    
   2 C2             1.0874     1.1754    -0.4238 C.ar    
   3 C3             1.9283     0.0906    -0.2958 C.ar    
   4 C4             3.2966     0.2852    -0.1320 C.ar    
   5 C5             3.8040     1.5958    -0.0995 C.ar    
   6 C6             2.9410     2.6866    -0.2298 C.ar    
   7 N7             4.1464    -0.7923    -0.0026 N.pl3   
   8 C8             5.4692    -0.6579     0.1578 C.2     
   9 C9             6.0825     0.5775     0.2051 C.2     
  10 C10            5.2546     1.7879     0.0744 C.2     
  11 F11            3.4276     3.9465    -0.1986 F       
  12 O12            5.7480     2.9016     0.1094 O.2     
  13 C13            7.5374     0.6831     0.3835 C.2     
  14 O14            8.1248     1.8956     0.4281 O.3     
  15 O15            8.2113    -0.3230     0.4908 O.2     
  16 C16            3.5783    -2.1421    -0.0417 C.3     
  17 C17            3.5572    -2.6372    -1.4649 C.ar    
  18 C18            4.6425    -3.3289    -1.9709 C.ar    
  19 C19            4.6263    -3.7840    -3.2748 C.ar    
  20 C20            3.5184    -3.5466    -4.0778 C.ar    
  21 C21            2.4300    -2.8520    -3.5665 C.ar    
  22 C22            2.4504    -2.4038    -2.2603 C.ar    
  23 N23            3.4991    -4.0059    -5.3993 N.am    
  24 C24            2.9278    -5.3271    -5.6368 C.3     
  25 C25            3.6058    -6.0089    -6.8281 C.3     
  26 C26            2.8325    -5.6615    -8.1053 C.3     
  27 C27            2.8394    -4.1485    -8.3083 C.3     
  28 C28            4.1628    -3.5963    -7.7678 C.3     
  29 C29            3.9979    -3.1983    -6.3295 C.2     
  30 O30            4.3445    -2.0843    -5.9982 O.2     
  31 H31            0.9156     3.3071    -0.4971 H       
  32 H32            0.0267     1.0163    -0.5505 H       
  33 H33            1.5251    -0.9109    -0.3222 H       
  34 H34            6.0763    -1.5460     0.2537 H       
  35 H35            9.0843     1.9146     0.5469 H       
  36 H36            4.1876    -2.8105     0.5665 H       
  37 H37            2.5614    -2.1198     0.3503 H       
  38 H38            5.5037    -3.5132    -1.3459 H       
  39 H39            5.4745    -4.3235    -3.6696 H       
  40 H40            1.5669    -2.6658    -4.1885 H       
  41 H41            1.6041    -1.8639    -1.8620 H       
  42 H42            3.0641    -5.9417    -4.7470 H       
  43 H43            1.8620    -5.2252    -5.8412 H       
  44 H44            4.6329    -5.6545    -6.9154 H       
  45 H45            3.6018    -7.0890    -6.6813 H       
  46 H46            3.3061    -6.1449    -8.9597 H       
  47 H47            1.8042    -6.0112    -8.0139 H       
  48 H48            2.7525    -3.9200    -9.3706 H       
  49 H49            2.0060    -3.7013    -7.7664 H       
  50 H50            4.9345    -4.3619    -7.8486 H       
  51 H51            4.4571    -2.7246    -8.3524 H       
@<TRIPOS>BOND
   1    1    2 ar
   2    1    6 ar
   3    1   31 1
   4    2    3 ar
   5    2   32 1
   6    3    4 ar
   7    3   33 1
   8    4    5 ar
   9    4    7 1
  10    5    6 ar
  11    5   10 1
  12    6   11 1
  13    7    8 1
  14    7   16 1
  15    8    9 2
  16    8   34 1
  17    9   10 1
  18    9   13 1
  19   10   12 2
  20   13   14 1
  21   13   15 2
  22   14   35 1
  23   16   17 1
  24   16   36 1
  25   16   37 1
  26   17   18 ar
  27   17   22 ar
  28   18   19 ar
  29   18   38 1
  30   19   20 ar
  31   19   39 1
  32   20   21 ar
  33   20   23 1
  34   21   22 ar
  35   21   40 1
  36   22   41 1
  37   23   24 1
  38   23   29 am
  39   24   25 1
  40   24   42 1
  41   24   43 1
  42   25   26 1
  43   25   44 1
  44   25   45 1
  45   26   27 1
  46   26   46 1
  47   26   47 1
  48   27   28 1
  49   27   48 1
  50   27   49 1
  51   28   29 1
  52   28   50 1
  53   28   51 1
  54   29   30 2

#	End of record

