#	Name: ASD01880585
#	Creating user name:	WinNT
#	Creation time:	15. 06. 2019 19:41

#	Modifying user name:	WinNT
#	Modification time:	15. 06. 2019 19:41

#	Program:	/corina/corina34_cracker 3.40 0067  02.08.2006

@<TRIPOS>MOLECULE
ASD01880585
  41   43    0    0    0
SMALL
NO_CHARGES


@<TRIPOS>ATOM
   1 N1            -0.0158     1.3136     0.0093 N.ar    
   2 C2             0.0021    -0.0041     0.0020 C.ar    
   3 N3             1.1320    -0.6826    -0.0120 N.ar    
   4 C4             2.2987    -0.0566    -0.0197 C.ar    
   5 C5             2.3197     1.3309    -0.0129 C.ar    
   6 C6             1.1114     2.0077     0.0022 C.ar    
   7 C7             3.6255     2.0830    -0.0209 C.3     
   8 O8             4.0262     2.3276    -1.3706 O.3     
   9 C9             1.0803     3.5144     0.0101 C.3     
  10 C10            5.1904     3.0000    -1.5555 C.ar    
  11 C11            5.6391     3.2715    -2.8443 C.ar    
  12 C12            6.8168     3.9522    -3.0300 C.ar    
  13 C13            7.5705     4.3756    -1.9303 C.ar    
  14 C14            7.1151     4.1006    -0.6379 C.ar    
  15 C15            5.9305     3.4217    -0.4573 C.ar    
  16 C16            7.5692     4.3982    -4.2589 C.3     
  17 N17            8.7716     5.0864    -3.7758 N.am    
  18 C18            8.7684     5.0711    -2.4318 C.2     
  19 O19            9.6313     5.5618    -1.7298 O.2     
  20 Br20           3.9139    -1.0397    -0.0392 Br      
  21 C21           10.5257     7.7814    -5.7822 C.3     
  22 C22            9.4457     7.1506    -4.9011 C.3     
  23 C23            9.8058     5.6905    -4.6195 C.3     
  24 H24           -0.9342    -0.5424     0.0081 H       
  25 H25            3.5008     3.0330     0.4989 H       
  26 H26            4.3891     1.4906     0.4831 H       
  27 H27            1.0628     3.8828    -1.0156 H       
  28 H28            0.1880     3.8566     0.5344 H       
  29 H29            1.9675     3.8935     0.5173 H       
  30 H30            5.0619     2.9470    -3.6975 H       
  31 H31            7.6897     4.4227     0.2180 H       
  32 H32            5.5789     3.2098     0.5416 H       
  33 H33            7.8487     3.5339    -4.8614 H       
  34 H34            6.9562     5.0823    -4.8458 H       
  35 H35           11.4859     7.7367    -5.2682 H       
  36 H36           10.5916     7.2354    -6.7233 H       
  37 H37           10.2692     8.8216    -5.9829 H       
  38 H38            9.3798     7.6966    -3.9600 H       
  39 H39            8.4855     7.1953    -5.4151 H       
  40 H40           10.7660     5.6457    -4.1055 H       
  41 H41            9.8717     5.1445    -5.5605 H       
@<TRIPOS>BOND
   1    1    2 ar
   2    1    6 ar
   3    2    3 ar
   4    2   24 1
   5    3    4 ar
   6    4    5 ar
   7    4   20 1
   8    5    6 ar
   9    5    7 1
  10    6    9 1
  11    7    8 1
  12    7   25 1
  13    7   26 1
  14    8   10 1
  15    9   27 1
  16    9   28 1
  17    9   29 1
  18   10   11 ar
  19   10   15 ar
  20   11   12 ar
  21   11   30 1
  22   12   13 ar
  23   12   16 1
  24   13   14 ar
  25   13   18 1
  26   14   15 ar
  27   14   31 1
  28   15   32 1
  29   16   17 1
  30   16   33 1
  31   16   34 1
  32   17   18 am
  33   17   23 1
  34   18   19 2
  35   21   22 1
  36   21   35 1
  37   21   36 1
  38   21   37 1
  39   22   23 1
  40   22   38 1
  41   22   39 1
  42   23   40 1
  43   23   41 1

#	End of record

