#	Name: ASD01918144
#	Creating user name:	WinNT
#	Creation time:	15. 06. 2019 20:10

#	Modifying user name:	WinNT
#	Modification time:	15. 06. 2019 20:10

#	Program:	/corina/corina34_cracker 3.40 0067  02.08.2006

@<TRIPOS>MOLECULE
ASD01918144
  37   40    0    0    0
SMALL
NO_CHARGES


@<TRIPOS>ATOM
   1 N1             1.7309     4.4268     2.1053 N.ar    
   2 C2             2.5686     4.5678     3.1149 C.ar    
   3 C3             3.7775     3.8948     3.1340 C.ar    
   4 C4             4.1062     3.0615     2.0733 C.ar    
   5 C5             3.2006     2.9357     1.0267 C.ar    
   6 C6             2.0057     3.6448     1.0786 C.ar    
   7 O7             3.4795     2.1317    -0.0333 O.3     
   8 C8             4.7088     1.5524    -0.0893 C.2     
   9 N9             6.0255    -0.4178    -0.0237 N.pl3   
  10 C10            4.8192     0.2044     0.0267 C.2     
  11 C11            5.8419     2.3541    -0.2716 C.2     
  12 C12            7.0952     1.7544    -0.3283 C.2     
  13 C13            7.1751     0.3001    -0.1939 C.2     
  14 C14            8.3110     2.5629    -0.5193 C.2     
  15 N15            9.5172     1.9640    -0.5717 N.am    
  16 O16            8.2267     3.7712    -0.6297 O.2     
  17 N17            6.4167    -1.7617     0.0659 N.2     
  18 C18            7.7240    -1.7903    -0.0405 C.2     
  19 N19            8.1842    -0.5564    -0.2031 N.2     
  20 C20           10.6557     2.7143    -0.8575 C.ar    
  21 F21            4.6281     4.0471     4.1724 F       
  22 F22            1.1167     3.5316     0.0677 F       
  23 N23           10.5629     4.0302    -0.9695 N.ar    
  24 C24           11.8799     2.0750    -1.0169 C.ar    
  25 C25           13.0029     2.8324    -1.3001 C.ar    
  26 C26           12.8620     4.2085    -1.4145 C.ar    
  27 C27           11.6159     4.7776    -1.2386 C.ar    
  28 H28            2.3074     5.2174     3.9372 H       
  29 H29            5.0430     2.5242     2.0617 H       
  30 H30            3.9263    -0.3876     0.1627 H       
  31 H31            5.7438     3.4254    -0.3674 H       
  32 H32            9.5927     1.0105    -0.4105 H       
  33 H33            8.3319    -2.6825    -0.0095 H       
  34 H34           11.9535     1.0018    -0.9206 H       
  35 H35           13.9672     2.3634    -1.4288 H       
  36 H36           13.7187     4.8282    -1.6349 H       
  37 H37           11.5022     5.8483    -1.3229 H       
@<TRIPOS>BOND
   1    1    2 ar
   2    1    6 ar
   3    2    3 ar
   4    2   28 1
   5    3    4 ar
   6    3   21 1
   7    4    5 ar
   8    4   29 1
   9    5    6 ar
  10    5    7 1
  11    6   22 1
  12    7    8 1
  13    8   11 1
  14    8   10 2
  15    9   10 1
  16    9   17 1
  17    9   13 1
  18   10   30 1
  19   11   12 2
  20   11   31 1
  21   12   13 1
  22   12   14 1
  23   13   19 2
  24   14   15 am
  25   14   16 2
  26   15   20 1
  27   15   32 1
  28   17   18 2
  29   18   19 1
  30   18   33 1
  31   20   24 ar
  32   20   23 ar
  33   23   27 ar
  34   24   25 ar
  35   24   34 1
  36   25   26 ar
  37   25   35 1
  38   26   27 ar
  39   26   36 1
  40   27   37 1

#	End of record

