#	Name: ASD04590629
#	Creating user name:	WinNT
#	Creation time:	15. 06. 2019 20:51

#	Modifying user name:	WinNT
#	Modification time:	15. 06. 2019 20:51

#	Program:	/corina/corina34_cracker 3.40 0067  02.08.2006

@<TRIPOS>MOLECULE
ASD04590629
  66   71    0    0    0
SMALL
NO_CHARGES


@<TRIPOS>ATOM
   1 N1            -2.3782    -2.7058     0.0195 N.ar    
   2 C2            -1.2116    -2.0737     0.0036 C.ar    
   3 N3            -0.0572    -2.7201    -0.0183 N.ar    
   4 C4            -0.0258    -4.0494    -0.0250 C.ar    
   5 C5            -1.2485    -4.7504    -0.0081 C.ar    
   6 C6            -2.4369    -4.0273     0.0143 C.ar    
   7 N7             0.9981    -4.9637    -0.0460 N.pl3   
   8 C8             0.4951    -6.2533    -0.0436 C.ar    
   9 C9            -0.9091    -6.1790    -0.0202 C.ar    
  10 C10            1.0916    -7.5074    -0.0596 C.ar    
  11 N11            0.3554    -8.5999    -0.0533 N.ar    
  12 C12           -0.9653    -8.5647    -0.0315 C.ar    
  13 C13           -1.6435    -7.3643    -0.0140 C.ar    
  14 N14           -1.2019    -0.6887     0.0098 N.pl3   
  15 C15           -2.4016     0.0177    -0.0802 C.ar    
  16 C16            2.4227    -4.6225    -0.0683 C.3     
  17 C17            2.7332    -3.7295    -1.2873 C.3     
  18 C18            2.7880    -3.8028     1.1816 C.3     
  19 C19            3.3077    -2.4402     0.6785 C.3     
  20 C20            2.6738    -2.2870    -0.7263 C.3     
  21 N21           -3.5391    -0.6295    -0.2720 N.ar    
  22 N22           -4.6655    -0.0208    -0.3610 N.ar    
  23 C23           -4.7646     1.2952    -0.2669 C.ar    
  24 C24           -3.6184     2.0654    -0.0641 C.ar    
  25 C25           -2.4049     1.4084     0.0375 C.ar    
  26 N26           -6.0101     1.9108    -0.3704 N.3     
  27 C27           -6.0131     2.9165    -1.4419 C.3     
  28 C28           -7.3702     3.6234    -1.4706 C.3     
  29 C29           -7.0726     0.9176    -0.5813 C.3     
  30 C30           -8.4297     1.6245    -0.6100 C.3     
  31 N31           -8.4327     2.6303    -1.6815 N.3     
  32 C32           -9.7460     3.2793    -1.7906 C.3     
  33 C33           -9.7903     4.1302    -3.0614 C.3     
  34 O34           -9.6917     3.2814    -4.2067 O.3     
  35 C35           -9.7236     3.9804    -5.4527 C.3     
  36 H36           -3.3897    -4.5355     0.0280 H       
  37 H37            2.1685    -7.5878    -0.0777 H       
  38 H38           -1.5221    -9.4901    -0.0273 H       
  39 H39           -2.7231    -7.3426     0.0038 H       
  40 H40           -0.3610    -0.2099     0.0768 H       
  41 H41            3.0234    -5.5312    -0.1076 H       
  42 H42            3.7280    -3.9470    -1.6760 H       
  43 H43            1.9806    -3.8683    -2.0634 H       
  44 H44            1.9054    -3.6588     1.8048 H       
  45 H45            3.5666    -4.3132     1.7485 H       
  46 H46            2.9744    -1.6381     1.3370 H       
  47 H47            4.3954    -2.4494     0.6073 H       
  48 H48            3.2619    -1.6079    -1.3436 H       
  49 H49            1.6418    -1.9447    -0.6492 H       
  50 H50           -3.6773     3.1409     0.0151 H       
  51 H51           -1.4872     1.9557     0.1945 H       
  52 H52           -5.2261     3.6475    -1.2567 H       
  53 H53           -5.8375     2.4275    -2.4001 H       
  54 H54           -7.5338     4.1351    -0.5222 H       
  55 H55           -7.3848     4.3497    -2.2832 H       
  56 H56           -6.9089     0.4059    -1.5297 H       
  57 H57           -7.0580     0.1913     0.2314 H       
  58 H58           -9.2167     0.8935    -0.7952 H       
  59 H59           -8.6053     2.1135     0.3482 H       
  60 H60          -10.5248     2.5181    -1.8357 H       
  61 H61           -9.9100     3.9159    -0.9212 H       
  62 H62          -10.7301     4.6811    -3.0972 H       
  63 H63           -8.9571     4.8330    -3.0573 H       
  64 H64          -10.6621     4.5282    -5.5381 H       
  65 H65           -8.8890     4.6801    -5.4982 H       
  66 H66           -9.6439     3.2661    -6.2722 H       
@<TRIPOS>BOND
   1    1    2 ar
   2    1    6 ar
   3    2    3 ar
   4    2   14 1
   5    3    4 ar
   6    4    5 ar
   7    4    7 1
   8    5    6 ar
   9    5    9 1
  10    6   36 1
  11    7    8 1
  12    7   16 1
  13    8    9 ar
  14    8   10 ar
  15    9   13 ar
  16   10   11 ar
  17   10   37 1
  18   11   12 ar
  19   12   13 ar
  20   12   38 1
  21   13   39 1
  22   14   15 1
  23   14   40 1
  24   15   21 ar
  25   15   25 ar
  26   16   18 1
  27   16   17 1
  28   16   41 1
  29   17   20 1
  30   17   42 1
  31   17   43 1
  32   18   19 1
  33   18   44 1
  34   18   45 1
  35   19   20 1
  36   19   46 1
  37   19   47 1
  38   20   48 1
  39   20   49 1
  40   21   22 ar
  41   22   23 ar
  42   23   24 ar
  43   23   26 1
  44   24   25 ar
  45   24   50 1
  46   25   51 1
  47   26   29 1
  48   26   27 1
  49   27   28 1
  50   27   52 1
  51   27   53 1
  52   28   31 1
  53   28   54 1
  54   28   55 1
  55   29   30 1
  56   29   56 1
  57   29   57 1
  58   30   31 1
  59   30   58 1
  60   30   59 1
  61   31   32 1
  62   32   33 1
  63   32   60 1
  64   32   61 1
  65   33   34 1
  66   33   62 1
  67   33   63 1
  68   34   35 1
  69   35   64 1
  70   35   65 1
  71   35   66 1

#	End of record

