#	Name: ASD03080153
#	Creating user name:	WinNT
#	Creation time:	15. 06. 2019 20:26

#	Modifying user name:	WinNT
#	Modification time:	15. 06. 2019 20:26

#	Program:	/corina/corina34_cracker 3.40 0067  02.08.2006

@<TRIPOS>MOLECULE
ASD03080153
  42   44    0    0    0
SMALL
NO_CHARGES


@<TRIPOS>ATOM
   1 C1            -0.0167     1.3802     0.0096 C.ar    
   2 C2             0.0021    -0.0041     0.0020 C.ar    
   3 C3            -1.1883    -0.7117     0.0095 C.ar    
   4 C4            -2.3932    -0.0355     0.0246 C.ar    
   5 C5            -2.4107     1.3470     0.0322 C.ar    
   6 C6            -1.2232     2.0543     0.0305 C.ar    
   7 C7             1.2778     2.1516     0.0014 C.3     
   8 O8             1.0530     3.4683    -0.5680 O.3     
   9 F9             1.1808    -0.6641    -0.0132 F       
  10 C10            1.7940     2.2970     1.4344 C.3     
  11 C11            2.0864     4.0388    -1.2156 C.2     
  12 O12            3.1471     3.4524    -1.3027 O.2     
  13 N13            1.9443     5.2602    -1.7674 N.am    
  14 C14            3.0687     5.8809    -2.4721 C.3     
  15 C15            2.5382     6.8915    -3.4967 C.3     
  16 C16            1.7504     7.9762    -2.7513 C.3     
  17 C17            2.6784     8.6545    -1.7397 C.3     
  18 N18            4.0124     8.0431    -1.8165 N.3     
  19 C19            3.9603     6.6170    -1.4679 C.3     
  20 C20            3.7329     7.5497    -4.1985 C.3     
  21 C21            4.6055     8.2402    -3.1465 C.3     
  22 H22           -1.1748    -1.7916     0.0033 H       
  23 H23           -3.3217    -0.5872     0.0301 H       
  24 H24           -3.3530     1.8746     0.0437 H       
  25 H25           -1.2380     3.1342     0.0365 H       
  26 H26            2.0152     1.6177    -0.5980 H       
  27 H27            1.0566     2.8310     2.0337 H       
  28 H28            1.9628     1.3086     1.8618 H       
  29 H29            2.7303     2.8550     1.4284 H       
  30 H30            1.0975     5.7282    -1.6979 H       
  31 H31            3.6484     5.1124    -2.9834 H       
  32 H32            1.8942     6.3900    -4.2191 H       
  33 H33            1.3835     8.7155    -3.4633 H       
  34 H34            0.9092     7.5218    -2.2277 H       
  35 H35            2.7518     9.7175    -1.9694 H       
  36 H36            2.2768     8.5261    -0.7346 H       
  37 H37            3.5495     6.5027    -0.4648 H       
  38 H38            4.9661     6.1980    -1.4992 H       
  39 H39            4.3175     6.7886    -4.7153 H       
  40 H40            3.3739     8.2871    -4.9163 H       
  41 H41            4.6629     9.3065    -3.3647 H       
  42 H42            5.6069     7.8102    -3.1654 H       
@<TRIPOS>BOND
   1    1    2 ar
   2    1    7 1
   3    1    6 ar
   4    2    3 ar
   5    2    9 1
   6    3    4 ar
   7    3   22 1
   8    4    5 ar
   9    4   23 1
  10    5    6 ar
  11    5   24 1
  12    6   25 1
  13    7    8 1
  14    7   10 1
  15    7   26 1
  16    8   11 1
  17   10   27 1
  18   10   28 1
  19   10   29 1
  20   11   12 2
  21   11   13 am
  22   13   14 1
  23   13   30 1
  24   14   15 1
  25   14   19 1
  26   14   31 1
  27   15   16 1
  28   15   20 1
  29   15   32 1
  30   16   17 1
  31   16   33 1
  32   16   34 1
  33   17   18 1
  34   17   35 1
  35   17   36 1
  36   18   19 1
  37   18   21 1
  38   19   37 1
  39   19   38 1
  40   20   21 1
  41   20   39 1
  42   20   40 1
  43   21   41 1
  44   21   42 1

#	End of record

