#	Name: ASD08150596
#	Creating user name:	WinNT
#	Creation time:	15. 06. 2019 21:16

#	Modifying user name:	WinNT
#	Modification time:	15. 06. 2019 21:16

#	Program:	/corina/corina34_cracker 3.40 0067  02.08.2006

@<TRIPOS>MOLECULE
ASD08150596
  74   80    0    0    0
SMALL
NO_CHARGES


@<TRIPOS>ATOM
   1 N1             0.0531     1.7427    -0.4941 N.am    
   2 C2            -0.0384     0.4008    -0.6018 C.2     
   3 O3             1.0658    -0.3674    -0.5604 O.3     
   4 C4             2.2825     0.1803    -1.1389 C.3     
   5 C5             2.4377     1.6068    -0.6781 C.ar    
   6 C6             3.6874     2.1940    -0.5560 C.ar    
   7 N7             3.8244     3.4381    -0.1559 N.ar    
   8 C8             2.7705     4.2023     0.1531 C.ar    
   9 C9             1.4586     3.6729     0.0532 C.ar    
  10 C10            1.3015     2.3372    -0.3729 C.ar    
  11 C11            0.3587     4.4753     0.3761 C.ar    
  12 C12            0.5650     5.7792     0.7910 C.ar    
  13 C13            1.8660     6.2957     0.8883 C.ar    
  14 C14            2.9454     5.5311     0.5786 C.ar    
  15 O15           -1.1283    -0.1191    -0.7371 O.2     
  16 C16           -0.5962     6.6363     1.1344 C.ar    
  17 C17           -1.1059     2.5326    -0.5104 C.ar    
  18 C18           -1.3357     3.4065    -1.5649 C.ar    
  19 C19           -2.4762     4.1839    -1.5811 C.ar    
  20 C20           -3.3944     4.0916    -0.5428 C.ar    
  21 C21           -3.1646     3.2173     0.5113 C.ar    
  22 C22           -2.0260     2.4363     0.5247 C.ar    
  23 N23           -4.5500     4.8796    -0.5588 N.3     
  24 C24           -5.7061     4.1090    -1.0357 C.3     
  25 C25           -6.9784     4.9464    -0.8678 C.3     
  26 C26           -1.8847     6.0890     1.1576 C.ar    
  27 C27           -4.3493     6.0921    -1.3635 C.3     
  28 C28           -5.5660     7.0109    -1.2091 C.3     
  29 N29           -6.7766     6.2417    -1.5348 N.am    
  30 C30           -7.6768     6.7111    -2.4212 C.2     
  31 C31           -8.9104     5.9064    -2.7401 C.3     
  32 O32           -7.4941     7.7811    -2.9621 O.2     
  33 C33           -9.7588     6.6589    -3.7672 C.3     
  34 C34           -2.9636     6.8618     1.4706 C.ar    
  35 C35           -2.7941     8.2118     1.7723 C.ar    
  36 C36           -1.5028     8.7750     1.7530 C.ar    
  37 C37           -0.4013     7.9752     1.4368 C.ar    
  38 N38           -3.6579     9.2194     2.1152 N.pl3   
  39 N39           -2.9317    10.3985     2.3099 N.2     
  40 C40           -1.6636    10.1821     2.1076 C.2     
  41 C41           -0.5595    11.2017     2.2193 C.3     
  42 C42           -4.1605     3.1169     1.6379 C.3     
  43 F43           -3.6499     2.2836     2.6389 F       
  44 F44           -4.3965     4.3904     2.1666 F       
  45 F45           -5.3599     2.5834     1.1539 F       
  46 H46            3.1402    -0.4059    -0.8089 H       
  47 H47            2.2147     0.1528    -2.2265 H       
  48 H48            4.5680     1.6160    -0.7947 H       
  49 H49           -0.6436     4.0798     0.3024 H       
  50 H50            2.0113     7.3151     1.2141 H       
  51 H51            3.9398     5.9446     0.6595 H       
  52 H52           -0.6218     3.4782    -2.3721 H       
  53 H53           -2.6545     4.8641    -2.4009 H       
  54 H54           -1.8492     1.7533     1.3424 H       
  55 H55           -5.5695     3.8621    -2.0885 H       
  56 H56           -5.7958     3.1908    -0.4550 H       
  57 H57           -7.8214     4.4272    -1.3239 H       
  58 H58           -7.1739     5.1070     0.1924 H       
  59 H59           -2.0256     5.0438     0.9248 H       
  60 H60           -3.4549     6.6123    -1.0206 H       
  61 H61           -4.2315     5.8176    -2.4118 H       
  62 H62           -5.6256     7.3699    -0.1817 H       
  63 H63           -5.4751     7.8565    -1.8908 H       
  64 H64           -8.6177     4.9394    -3.1491 H       
  65 H65           -9.4910     5.7553    -1.8300 H       
  66 H66          -10.0514     7.6259    -3.3582 H       
  67 H67           -9.1782     6.8100    -4.6773 H       
  68 H68          -10.6510     6.0769    -3.9979 H       
  69 H69           -3.9520     6.4268     1.4844 H       
  70 H70            0.5922     8.3983     1.4199 H       
  71 H71           -4.6193     9.1290     2.2076 H       
  72 H72           -0.1755    11.2111     3.2394 H       
  73 H73            0.2449    10.9432     1.5307 H       
  74 H74           -0.9493    12.1883     1.9687 H       
@<TRIPOS>BOND
   1    1    2 am
   2    1   10 1
   3    1   17 1
   4    2    3 1
   5    2   15 2
   6    3    4 1
   7    4    5 1
   8    4   46 1
   9    4   47 1
  10    5    6 ar
  11    5   10 ar
  12    6    7 ar
  13    6   48 1
  14    7    8 ar
  15    8    9 ar
  16    8   14 ar
  17    9   10 ar
  18    9   11 ar
  19   11   12 ar
  20   11   49 1
  21   12   13 ar
  22   12   16 1
  23   13   14 ar
  24   13   50 1
  25   14   51 1
  26   16   26 ar
  27   16   37 ar
  28   17   18 ar
  29   17   22 ar
  30   18   19 ar
  31   18   52 1
  32   19   20 ar
  33   19   53 1
  34   20   21 ar
  35   20   23 1
  36   21   22 ar
  37   21   42 1
  38   22   54 1
  39   23   24 1
  40   23   27 1
  41   24   25 1
  42   24   55 1
  43   24   56 1
  44   25   29 1
  45   25   57 1
  46   25   58 1
  47   26   34 ar
  48   26   59 1
  49   27   28 1
  50   27   60 1
  51   27   61 1
  52   28   29 1
  53   28   62 1
  54   28   63 1
  55   29   30 am
  56   30   31 1
  57   30   32 2
  58   31   33 1
  59   31   64 1
  60   31   65 1
  61   33   66 1
  62   33   67 1
  63   33   68 1
  64   34   35 ar
  65   34   69 1
  66   35   36 ar
  67   35   38 1
  68   36   37 ar
  69   36   40 1
  70   37   70 1
  71   38   39 1
  72   38   71 1
  73   39   40 2
  74   40   41 1
  75   41   72 1
  76   41   73 1
  77   41   74 1
  78   42   43 1
  79   42   44 1
  80   42   45 1

#	End of record

