#	Name: ASD03330229
#	Creating user name:	WinNT
#	Creation time:	15. 06. 2019 20:36

#	Modifying user name:	WinNT
#	Modification time:	15. 06. 2019 20:36

#	Program:	/corina/corina34_cracker 3.40 0067  02.08.2006

@<TRIPOS>MOLECULE
ASD03330229
  54   56    0    0    0
SMALL
NO_CHARGES


@<TRIPOS>ATOM
   1 C1            -0.6673     0.5739     0.2360 C.3     
   2 N2            -0.5955    -0.8811     0.0430 N.3     
   3 C3            -0.0287    -1.2167    -1.2757 C.3     
   4 C4             1.2467    -0.4324    -1.4468 C.2     
   5 N5             1.5873     0.6371    -0.6681 N.pl3   
   6 C6             0.7449     1.1451     0.4185 C.3     
   7 C7             2.2474    -0.6113    -2.3425 C.2     
   8 N8             3.1877     0.3418    -2.1044 N.2     
   9 C9             2.7929     1.0910    -1.0990 C.2     
  10 C10            3.5368     2.2374    -0.5322 C.2     
  11 C11            4.5906     2.8848    -1.1142 C.2     
  12 C12            2.3063    -1.6502    -3.3854 C.2     
  13 O13            1.3972    -2.4503    -3.4988 O.2     
  14 O14            5.7202    -2.2014    -5.3401 O.2     
  15 C15            4.8642    -3.0168    -5.6107 C.2     
  16 C16            3.4259    -2.7470    -5.2510 C.3     
  17 N17            3.3674    -1.7140    -4.2139 N.am    
  18 C18            2.6712    -2.2669    -6.4923 C.3     
  19 C19            2.7310    -3.3464    -7.5749 C.3     
  20 C20            1.2112    -1.9916    -6.1268 C.3     
  21 C21            3.3166    -0.9826    -7.0165 C.3     
  22 N22            5.1994    -4.1643    -6.2332 N.am    
  23 C23            6.5825    -4.3887    -6.6609 C.3     
  24 N24            4.9788     3.8653    -0.2764 N.pl3   
  25 N25            4.1519     3.8314     0.8527 N.2     
  26 C26            3.2845     2.8662     0.7048 C.2     
  27 C27            6.0785     4.8055    -0.5068 C.3     
  28 H28           -1.1336     1.0325    -0.6360 H       
  29 H29           -1.2638     0.7929     1.1216 H       
  30 H30           -0.0696    -1.3187     0.7847 H       
  31 H31            0.1860    -2.2843    -1.3238 H       
  32 H32           -0.7355    -0.9466    -2.0603 H       
  33 H33            0.7094     2.2338     0.3782 H       
  34 H34            1.1499     0.8249     1.3784 H       
  35 H35            5.0321     2.6521    -2.0720 H       
  36 H36            2.9667    -3.6626    -4.8782 H       
  37 H37            4.0923    -1.0759    -4.1235 H       
  38 H38            2.2572    -4.2565    -7.2071 H       
  39 H39            2.2068    -2.9980    -8.4648 H       
  40 H40            3.7717    -3.5537    -7.8241 H       
  41 H41            1.1686    -1.2225    -5.3555 H       
  42 H42            0.6735    -1.6495    -7.0111 H       
  43 H43            0.7514    -2.9066    -5.7533 H       
  44 H44            4.3567    -1.1787    -7.2770 H       
  45 H45            2.7789    -0.6405    -7.9009 H       
  46 H46            3.2739    -0.2135    -6.2453 H       
  47 H47            4.5248    -4.8416    -6.3979 H       
  48 H48            6.6604    -5.3638    -7.1418 H       
  49 H49            6.8753    -3.6112    -7.3665 H       
  50 H50            7.2408    -4.3581    -5.7927 H       
  51 H51            2.5134     2.5928     1.4098 H       
  52 H52            5.6999     5.6881    -1.0222 H       
  53 H53            6.5106     5.1005     0.4494 H       
  54 H54            6.8431     4.3273    -1.1190 H       
@<TRIPOS>BOND
   1    1    2 1
   2    1    6 1
   3    1   28 1
   4    1   29 1
   5    2    3 1
   6    2   30 1
   7    3    4 1
   8    3   31 1
   9    3   32 1
  10    4    5 1
  11    4    7 2
  12    5    6 1
  13    5    9 1
  14    6   33 1
  15    6   34 1
  16    7    8 1
  17    7   12 1
  18    8    9 2
  19    9   10 1
  20   10   11 2
  21   10   26 1
  22   11   24 1
  23   11   35 1
  24   12   13 2
  25   12   17 am
  26   14   15 2
  27   15   22 am
  28   15   16 1
  29   16   17 1
  30   16   18 1
  31   16   36 1
  32   17   37 1
  33   18   19 1
  34   18   20 1
  35   18   21 1
  36   19   38 1
  37   19   39 1
  38   19   40 1
  39   20   41 1
  40   20   42 1
  41   20   43 1
  42   21   44 1
  43   21   45 1
  44   21   46 1
  45   22   23 1
  46   22   47 1
  47   23   48 1
  48   23   49 1
  49   23   50 1
  50   24   25 1
  51   24   27 1
  52   25   26 2
  53   26   51 1
  54   27   52 1
  55   27   53 1
  56   27   54 1

#	End of record

