#	Name: ASD02500614
#	Creating user name:	WinNT
#	Creation time:	15. 06. 2019 20:23

#	Modifying user name:	WinNT
#	Modification time:	15. 06. 2019 20:23

#	Program:	/corina/corina34_cracker 3.40 0067  02.08.2006

@<TRIPOS>MOLECULE
ASD02500614
  65   69    0    0    0
SMALL
NO_CHARGES


@<TRIPOS>ATOM
   1 N1            -3.0312     5.2960     0.7895 N.ar    
   2 C2            -4.1999     5.8571     0.9835 C.ar    
   3 C3            -5.0157     5.5003     2.0552 C.ar    
   4 C4            -4.6029     4.5422     2.9367 C.ar    
   5 C5            -3.3475     3.9415     2.7249 C.ar    
   6 C6            -2.8563     2.9499     3.5888 C.ar    
   7 C7            -1.6367     2.3933     3.3501 C.ar    
   8 C8            -0.8687     2.7951     2.2594 C.ar    
   9 C9            -1.3141     3.7536     1.4018 C.ar    
  10 C10           -2.5681     4.3518     1.6148 C.ar    
  11 S11           -0.3220     4.2434     0.0305 S.o2    
  12 O12           -0.2977     5.6641     0.0400 O.2     
  13 O13            0.8528     3.4456     0.0799 O.2     
  14 N14           -1.1317     3.7988    -1.3439 N.am    
  15 C15           -1.3641     2.4536    -1.6097 C.ar    
  16 C16           -2.6284     2.0346    -2.0062 C.ar    
  17 C17           -2.8596     0.6965    -2.2710 C.ar    
  18 C18           -1.8125    -0.2293    -2.1367 C.ar    
  19 C19           -0.5458     0.2083    -1.7368 C.ar    
  20 C20           -0.3271     1.5317    -1.4830 C.ar    
  21 O21           -4.0916     0.2810    -2.6580 O.3     
  22 C22           -5.1070     1.2800    -2.7723 C.3     
  23 C23           -2.0473    -1.6557    -2.4155 C.2     
  24 O24           -2.9512    -2.2445    -1.8534 O.2     
  25 N25           -1.2608    -2.3092    -3.2934 N.am    
  26 C26           -1.5354    -3.7075    -3.6576 C.3     
  27 C27           -1.5639    -3.8159    -5.1858 C.3     
  28 N28           -0.3187    -3.2638    -5.7360 N.3     
  29 C29           -0.1899    -1.8326    -5.4311 C.3     
  30 C30           -0.1087    -1.6410    -3.9175 C.3     
  31 C31           -0.2304    -3.5039    -7.1826 C.3     
  32 C32            0.9239    -2.7203    -7.7523 C.ar    
  33 C33            2.2163    -3.2026    -7.6282 C.ar    
  34 C34            3.2761    -2.4829    -8.1519 C.ar    
  35 C35            3.0431    -1.2816    -8.7992 C.ar    
  36 C36            1.7503    -0.8014    -8.9220 C.ar    
  37 C37            0.6920    -1.5236    -8.4032 C.ar    
  38 F38            4.0768    -0.5778    -9.3105 F       
  39 F39            2.4423    -4.3748    -6.9958 F       
  40 H40           -4.5393     6.6164     0.2945 H       
  41 H41           -5.9734     5.9813     2.1890 H       
  42 H42           -5.2223     4.2537     3.7731 H       
  43 H43           -3.4422     2.6307     4.4381 H       
  44 H44           -1.2597     1.6305     4.0153 H       
  45 H45            0.0958     2.3389     2.0919 H       
  46 H46           -1.4439     4.4766    -1.9636 H       
  47 H47           -3.4292     2.7521    -2.1071 H       
  48 H48            0.2616    -0.5013    -1.6322 H       
  49 H49            0.6539     1.8652    -1.1784 H       
  50 H50           -6.0406     0.8146    -3.0885 H       
  51 H51           -5.2511     1.7637    -1.8062 H       
  52 H52           -4.8038     2.0235    -3.5094 H       
  53 H53           -0.7504    -4.3505    -3.2594 H       
  54 H54           -2.5008    -4.0089    -3.2510 H       
  55 H55           -1.6563    -4.8629    -5.4745 H       
  56 H56           -2.4136    -3.2547    -5.5745 H       
  57 H57            0.7141    -1.4413    -5.8976 H       
  58 H58           -1.0587    -1.2990    -5.8163 H       
  59 H59           -0.1313    -0.5768    -3.6827 H       
  60 H60            0.8161    -2.0815    -3.5448 H       
  61 H61           -0.0734    -4.5669    -7.3656 H       
  62 H62           -1.1567    -3.1858    -7.6609 H       
  63 H63            4.2842    -2.8581    -8.0553 H       
  64 H64            1.5683     0.1358    -9.4270 H       
  65 H65           -0.3165    -1.1503    -8.5031 H       
@<TRIPOS>BOND
   1    1    2 ar
   2    1   10 ar
   3    2    3 ar
   4    2   40 1
   5    3    4 ar
   6    3   41 1
   7    4    5 ar
   8    4   42 1
   9    5    6 ar
  10    5   10 ar
  11    6    7 ar
  12    6   43 1
  13    7    8 ar
  14    7   44 1
  15    8    9 ar
  16    8   45 1
  17    9   10 ar
  18    9   11 1
  19   11   12 2
  20   11   13 2
  21   11   14 am
  22   14   15 1
  23   14   46 1
  24   15   16 ar
  25   15   20 ar
  26   16   17 ar
  27   16   47 1
  28   17   18 ar
  29   17   21 1
  30   18   19 ar
  31   18   23 1
  32   19   20 ar
  33   19   48 1
  34   20   49 1
  35   21   22 1
  36   22   50 1
  37   22   51 1
  38   22   52 1
  39   23   24 2
  40   23   25 am
  41   25   26 1
  42   25   30 1
  43   26   27 1
  44   26   53 1
  45   26   54 1
  46   27   28 1
  47   27   55 1
  48   27   56 1
  49   28   29 1
  50   28   31 1
  51   29   30 1
  52   29   57 1
  53   29   58 1
  54   30   59 1
  55   30   60 1
  56   31   32 1
  57   31   61 1
  58   31   62 1
  59   32   33 ar
  60   32   37 ar
  61   33   34 ar
  62   33   39 1
  63   34   35 ar
  64   34   63 1
  65   35   36 ar
  66   35   38 1
  67   36   37 ar
  68   36   64 1
  69   37   65 1

#	End of record

