#	Name: ASD01410699
#	Creating user name:	WinNT
#	Creation time:	15. 06. 2019 19:18

#	Modifying user name:	WinNT
#	Modification time:	15. 06. 2019 19:18

#	Program:	/corina/corina34_cracker 3.40 0067  02.08.2006

@<TRIPOS>MOLECULE
ASD01410699
  78   83    0    0    0
SMALL
NO_CHARGES


@<TRIPOS>ATOM
   1 N1            -0.0656     1.7036    -0.0343 N.am    
   2 C2            -2.5021     2.7570    -2.1631 C.2     
   3 N3            -2.6222     1.6109    -5.6080 N.am    
   4 S4            -0.0295     0.0522    -0.0173 S.o2    
   5 O5            -0.0808    -0.3655    -1.3745 O.2     
   6 N6             1.4803    -0.3940     0.5605 N.am    
   7 O7            -0.9744    -0.3610     0.9603 O.2     
   8 C8             2.2896    -1.0284    -0.2995 C.2     
   9 O9             2.8392    -1.9932     0.1961 O.2     
  10 C10            2.6530    -0.8270    -1.6706 C.ar    
  11 C11            4.0273    -0.7090    -1.9584 C.ar    
  12 C12            4.4971    -0.4279    -3.2076 C.ar    
  13 C13            3.5383    -0.2606    -4.2171 C.ar    
  14 C14            2.1619    -0.5218    -3.9859 C.ar    
  15 C15            1.7015    -0.7893    -2.7041 C.ar    
  16 C16            3.6513     0.1849    -5.5377 C.2     
  17 C17            2.4145     0.1092    -6.1157 C.2     
  18 N18            1.5385    -0.4413    -5.2038 N.pl3   
  19 C19            4.9139     0.6646    -6.2061 C.3     
  20 C20            4.7373     2.1194    -6.6456 C.3     
  21 C21            6.0809     0.5674    -5.2214 C.3     
  22 C22            7.3628     1.0544    -5.9000 C.3     
  23 C23            7.1861     2.5092    -6.3395 C.3     
  24 C24            6.0192     2.6064    -7.3242 C.3     
  25 C25            2.1312     0.5769    -7.4835 C.ar    
  26 C26            0.8554     0.9179    -7.9434 C.ar    
  27 C27           -0.3471     0.8794    -7.1353 C.2     
  28 C28           -0.6487     0.1888    -6.0543 C.2     
  29 C29            0.1930    -0.9286    -5.5087 C.3     
  30 C30           -1.8260     0.5692    -5.3037 C.2     
  31 O31           -2.1163    -0.0993    -4.3289 O.2     
  32 C32            3.2332     0.6877    -8.3491 C.ar    
  33 C33            3.0695     1.1120    -9.6461 C.ar    
  34 C34            1.8014     1.4455   -10.1130 C.ar    
  35 C35            0.7108     1.3554    -9.2773 C.ar    
  36 O36            1.6393     1.8611   -11.3964 O.3     
  37 C37            2.8129     1.9315   -12.2086 C.3     
  38 C38           -3.3094     2.2686    -3.3434 C.3     
  39 C39           -2.6611     2.7237    -4.6454 C.3     
  40 C40           -2.1789     1.9276    -1.2025 C.2     
  41 C41           -1.3535     2.4018    -0.0308 C.3     
  42 C42            1.1849     2.4667    -0.0467 C.3     
  43 H43           -2.1863     3.7899    -2.1085 H       
  44 H44           -3.1459     1.6277    -6.4243 H       
  45 H45            1.7543    -0.2024     1.4710 H       
  46 H46            4.7378    -0.8466    -1.1568 H       
  47 H47            5.5544    -0.3383    -3.4091 H       
  48 H48            0.6535    -0.9624    -2.5088 H       
  49 H49            5.1216     0.0443    -7.0780 H       
  50 H50            3.9059     2.1887    -7.3471 H       
  51 H51            4.5296     2.7397    -5.7737 H       
  52 H52            5.8731     1.1876    -4.3495 H       
  53 H53            6.2067    -0.4691    -4.9083 H       
  54 H54            8.1941     0.9851    -5.1985 H       
  55 H55            7.5705     0.4341    -6.7719 H       
  56 H56            6.9784     3.1295    -5.4676 H       
  57 H57            8.0994     2.8562    -6.8229 H       
  58 H58            6.2269     1.9862    -8.1961 H       
  59 H59            5.8933     3.6429    -7.6373 H       
  60 H60           -1.1352     1.5325    -7.4799 H       
  61 H61            0.2567    -1.7272    -6.2478 H       
  62 H62           -0.2659    -1.3158    -4.5989 H       
  63 H63            4.2205     0.4366    -7.9906 H       
  64 H64            3.9241     1.1869   -10.3023 H       
  65 H65           -0.2680     1.6223    -9.6475 H       
  66 H66            3.2680     0.9434   -12.2760 H       
  67 H67            2.5437     2.2764   -13.2070 H       
  68 H68            3.5222     2.6286   -11.7625 H       
  69 H69           -3.3489     1.1794    -3.3301 H       
  70 H70           -4.3215     2.6684    -3.2810 H       
  71 H71           -1.6450     3.0628    -4.4438 H       
  72 H72           -3.2375     3.5468    -5.0677 H       
  73 H73           -2.4952     0.8971    -1.2560 H       
  74 H74           -1.8820     2.1863     0.8978 H       
  75 H75           -1.1857     3.4755    -0.1144 H       
  76 H76            2.0304     1.7787    -0.0426 H       
  77 H77            1.2242     3.0853    -0.9433 H       
  78 H78            1.2305     3.1037     0.8366 H       
@<TRIPOS>BOND
   1    1    4 am
   2    1   42 1
   3    1   41 1
   4    2   38 1
   5    2   40 2
   6    2   43 1
   7    3   30 am
   8    3   39 1
   9    3   44 1
  10    4    5 2
  11    4    6 am
  12    4    7 2
  13    6    8 am
  14    6   45 1
  15    8    9 2
  16    8   10 1
  17   10   11 ar
  18   10   15 ar
  19   11   12 ar
  20   11   46 1
  21   12   13 ar
  22   12   47 1
  23   13   14 ar
  24   13   16 1
  25   14   15 ar
  26   14   18 1
  27   15   48 1
  28   16   17 2
  29   16   19 1
  30   17   18 1
  31   17   25 1
  32   18   29 1
  33   19   20 1
  34   19   21 1
  35   19   49 1
  36   20   24 1
  37   20   50 1
  38   20   51 1
  39   21   22 1
  40   21   52 1
  41   21   53 1
  42   22   23 1
  43   22   54 1
  44   22   55 1
  45   23   24 1
  46   23   56 1
  47   23   57 1
  48   24   58 1
  49   24   59 1
  50   25   26 ar
  51   25   32 ar
  52   26   27 1
  53   26   35 ar
  54   27   28 2
  55   27   60 1
  56   28   29 1
  57   28   30 1
  58   29   61 1
  59   29   62 1
  60   30   31 2
  61   32   33 ar
  62   32   63 1
  63   33   34 ar
  64   33   64 1
  65   34   35 ar
  66   34   36 1
  67   35   65 1
  68   36   37 1
  69   37   66 1
  70   37   67 1
  71   37   68 1
  72   38   39 1
  73   38   69 1
  74   38   70 1
  75   39   71 1
  76   39   72 1
  77   40   41 1
  78   40   73 1
  79   41   74 1
  80   41   75 1
  81   42   76 1
  82   42   77 1
  83   42   78 1

#	End of record

