#	Name: ASD01230207
#	Creating user name:	WinNT
#	Creation time:	15. 06. 2019 19:12

#	Modifying user name:	WinNT
#	Modification time:	15. 06. 2019 19:12

#	Program:	/corina/corina34_cracker 3.40 0067  02.08.2006

@<TRIPOS>MOLECULE
ASD01230207
  24   25    0    0    0
SMALL
NO_CHARGES


@<TRIPOS>ATOM
   1 C1            -0.0168     1.3840     0.0097 C.ar    
   2 C2             0.0021    -0.0041     0.0020 C.ar    
   3 C3             1.2048    -0.6788    -0.0131 C.ar    
   4 C4             2.4025     0.0347    -0.0207 C.ar    
   5 C5             2.3802     1.4286    -0.0130 C.ar    
   6 C6             1.1742     2.0974     0.0021 C.ar    
   7 O7            -1.2035     2.0460     0.0189 O.3     
   8 C8             4.6895    -0.3525    -0.9689 C.ar    
   9 C9             3.6975    -0.6876    -0.0364 C.ar    
  10 C10            3.9495    -1.7115     0.8764 C.ar    
  11 C11            5.1765    -2.3566     0.8215 C.ar    
  12 C12            6.1051    -1.9703    -0.1267 C.ar    
  13 N13            5.8439    -0.9980    -0.9806 N.ar    
  14 Cl14           5.5427    -3.6377     1.9344 Cl      
  15 N15            4.4562     0.6603    -1.8902 N.pl3   
  16 H16           -0.9261    -0.5562     0.0083 H       
  17 H17            1.2188    -1.7587    -0.0186 H       
  18 H18            3.3064     1.9841    -0.0184 H       
  19 H19            1.1562     3.1772     0.0081 H       
  20 H20           -1.5428     2.2327     0.9049 H       
  21 H21            3.2078    -1.9951     1.6083 H       
  22 H22            7.0605    -2.4720    -0.1695 H       
  23 H23            3.6092     1.1331    -1.8871 H       
  24 H24            5.1402     0.8948    -2.5368 H       
@<TRIPOS>BOND
   1    1    2 ar
   2    1    6 ar
   3    1    7 1
   4    2    3 ar
   5    2   16 1
   6    3    4 ar
   7    3   17 1
   8    4    5 ar
   9    4    9 1
  10    5    6 ar
  11    5   18 1
  12    6   19 1
  13    7   20 1
  14    8    9 ar
  15    8   13 ar
  16    8   15 1
  17    9   10 ar
  18   10   11 ar
  19   10   21 1
  20   11   12 ar
  21   11   14 1
  22   12   13 ar
  23   12   22 1
  24   15   23 1
  25   15   24 1

#	End of record

