#	Name: ASD09740641
#	Creating user name:	WinNT
#	Creation time:	15. 06. 2019 21:23

#	Modifying user name:	WinNT
#	Modification time:	15. 06. 2019 21:23

#	Program:	/corina/corina34_cracker 3.40 0067  02.08.2006

@<TRIPOS>MOLECULE
ASD09740641
  65   69    0    0    0
SMALL
NO_CHARGES


@<TRIPOS>ATOM
   1 N1             0.1222     0.8833     2.0104 N.2     
   2 N2             0.0074    -0.3692     2.1011 N.2     
   3 C3             1.3005     1.4016     2.2328 C.2     
   4 S4             2.4092     0.0819     2.6111 S.3     
   5 C5             1.0745    -1.0549     2.4105 C.2     
   6 C6             1.6439     2.8381     2.1774 C.ar    
   7 C7             0.6639     3.7768     1.8649 C.ar    
   8 C8             2.9512     3.2549     2.4444 C.ar    
   9 C9             3.2772     4.5932     2.3942 C.ar    
  10 C10            2.3102     5.5367     2.0783 C.ar    
  11 C11            0.9935     5.1303     1.8141 C.ar    
  12 O12            2.6365     6.8526     2.0307 O.3     
  13 C13            3.9987     7.1933     2.2959 C.3     
  14 C14            4.3211     8.5437     1.6530 C.3     
  15 C15            4.2169     7.2832     3.8076 C.3     
  16 C16           -0.0065     6.1017     1.4873 C.1     
  17 N17           -0.7999     6.8723     1.2280 N.1     
  18 C18            1.1510    -2.5230     2.5658 C.ar    
  19 C19            0.0095    -3.3070     2.3766 C.ar    
  20 C20            0.0876    -4.6769     2.5226 C.ar    
  21 C21            1.2957    -5.2692     2.8559 C.ar    
  22 C22            2.4275    -4.4979     3.0444 C.ar    
  23 C23            2.3638    -3.1281     2.8957 C.ar    
  24 C24           -1.4051    -2.9092     2.0142 C.3     
  25 C25           -2.0782    -4.2104     1.5281 C.3     
  26 C26           -1.2701    -5.2969     2.2687 C.3     
  27 N27           -1.1350    -6.4904     1.4299 N.am    
  28 C28           -0.9360    -7.6955     1.9997 C.2     
  29 O29           -0.7780    -7.7808     3.2022 O.2     
  30 N30           -0.9123    -8.8061     1.2365 N.am    
  31 C31           -0.9913    -8.7101    -0.2275 C.3     
  32 C32           -2.1366    -9.6009    -0.7190 C.3     
  33 C33           -1.9333   -11.0234    -0.1924 C.3     
  34 C34           -1.9538   -11.0105     1.3378 C.3     
  35 C35           -0.8007   -10.1354     1.8523 C.3     
  36 O36           -2.9827   -11.8644    -0.6755 O.3     
  37 H37           -0.3477     3.4573     1.6623 H       
  38 H38            3.7086     2.5256     2.6913 H       
  39 H39            4.2890     4.9086     2.6019 H       
  40 H40            4.6526     6.4272     1.8793 H       
  41 H41            3.6673     9.3099     2.0696 H       
  42 H42            5.3602     8.8036     1.8552 H       
  43 H43            4.1657     8.4797     0.5760 H       
  44 H44            3.9872     6.3211     4.2657 H       
  45 H45            5.2560     7.5430     4.0099 H       
  46 H46            3.5630     8.0493     4.2242 H       
  47 H47            1.3531    -6.3416     2.9695 H       
  48 H48            3.3640    -4.9691     3.3039 H       
  49 H49            3.2477    -2.5253     3.0429 H       
  50 H50           -1.9243    -2.5189     2.8895 H       
  51 H51           -1.3966    -2.1668     1.2162 H       
  52 H52           -3.1269    -4.2382     1.8239 H       
  53 H53           -1.9759    -4.3197     0.4484 H       
  54 H54           -1.7529    -5.5498     3.2127 H       
  55 H55           -1.1888    -6.4133     0.4645 H       
  56 H56           -1.1825    -7.6766    -0.5162 H       
  57 H57           -0.0523    -9.0467    -0.6670 H       
  58 H58           -3.0853    -9.2092    -0.3519 H       
  59 H59           -2.1453    -9.6142    -1.8089 H       
  60 H60           -0.9732   -11.4053    -0.5395 H       
  61 H61           -2.9042   -10.6055     1.6855 H       
  62 H62           -1.8323   -12.0271     1.7119 H       
  63 H63            0.1521   -10.5905     1.5819 H       
  64 H64           -0.8687   -10.0415     2.9361 H       
  65 H65           -2.9178   -12.7831    -0.3806 H       
@<TRIPOS>BOND
   1    1    2 1
   2    1    3 2
   3    2    5 2
   4    3    4 1
   5    3    6 1
   6    4    5 1
   7    5   18 1
   8    6    7 ar
   9    6    8 ar
  10    7   11 ar
  11    7   37 1
  12    8    9 ar
  13    8   38 1
  14    9   10 ar
  15    9   39 1
  16   10   11 ar
  17   10   12 1
  18   11   16 1
  19   12   13 1
  20   13   14 1
  21   13   15 1
  22   13   40 1
  23   14   41 1
  24   14   42 1
  25   14   43 1
  26   15   44 1
  27   15   45 1
  28   15   46 1
  29   16   17 3
  30   18   19 ar
  31   18   23 ar
  32   19   20 ar
  33   19   24 1
  34   20   21 ar
  35   20   26 1
  36   21   22 ar
  37   21   47 1
  38   22   23 ar
  39   22   48 1
  40   23   49 1
  41   24   25 1
  42   24   50 1
  43   24   51 1
  44   25   26 1
  45   25   52 1
  46   25   53 1
  47   26   27 1
  48   26   54 1
  49   27   28 am
  50   27   55 1
  51   28   29 2
  52   28   30 am
  53   30   31 1
  54   30   35 1
  55   31   32 1
  56   31   56 1
  57   31   57 1
  58   32   33 1
  59   32   58 1
  60   32   59 1
  61   33   34 1
  62   33   36 1
  63   33   60 1
  64   34   35 1
  65   34   61 1
  66   34   62 1
  67   35   63 1
  68   35   64 1
  69   36   65 1

#	End of record

