#	Name: ASD01901607
#	Creating user name:	WinNT
#	Creation time:	15. 06. 2019 19:54

#	Modifying user name:	WinNT
#	Modification time:	15. 06. 2019 19:54

#	Program:	/corina/corina34_cracker 3.40 0067  02.08.2006

@<TRIPOS>MOLECULE
ASD01901607
  45   48    0    0    0
SMALL
NO_CHARGES


@<TRIPOS>ATOM
   1 C1            -1.4999     1.6472    -1.3942 C.3     
   2 O2            -1.2354     0.2578    -1.1903 O.3     
   3 C3            -0.4391    -0.0191    -0.0365 C.3     
   4 H4            -0.6222     0.7416     0.7224 H       
   5 C5             1.0411    -0.0076    -0.4236 C.3     
   6 C6            -0.8098    -1.3950     0.5207 C.3     
   7 O7            -0.4615    -2.4035    -0.4299 O.3     
   8 C8            -0.7258    -3.6879    -0.0888 C.ar    
   9 N9            -1.2849    -3.9616     1.0728 N.ar    
  10 C10           -1.5661    -5.1998     1.4591 C.ar    
  11 C11           -1.2935    -6.2774     0.6754 C.ar    
  12 C12           -0.6950    -6.0679    -0.5833 C.ar    
  13 C13           -0.3855    -7.1267    -1.4446 C.ar    
  14 C14            0.2001    -6.8563    -2.6653 C.ar    
  15 N15            0.5116    -7.9058    -3.5291 N.pl3   
  16 C16            1.5922    -7.7897    -4.4093 C.2     
  17 N17            2.4480    -6.8034    -4.4525 N.2     
  18 N18            3.3905    -7.0310    -5.4606 N.pl3   
  19 H19            4.1264    -6.4406    -5.6862 H       
  20 C20            3.1085    -8.2206    -6.0784 C.ar    
  21 C21            3.6971    -8.9315    -7.1237 C.ar    
  22 C22            3.1302   -10.1342    -7.4967 C.ar    
  23 C23            2.0038   -10.5985    -6.8301 C.ar    
  24 N24            1.4613    -9.9165    -5.8472 N.ar    
  25 C25            1.9711    -8.7552    -5.4436 C.ar    
  26 C26            0.4839    -5.5390    -3.0446 C.ar    
  27 C27            0.1912    -4.4951    -2.2224 C.ar    
  28 C28           -0.4089    -4.7354    -0.9780 C.ar    
  29 H29           -0.5581     2.1821    -1.5174 H       
  30 H30           -2.1093     1.7736    -2.2890 H       
  31 H31           -2.0339     2.0458    -0.5316 H       
  32 H32            1.2241    -0.7683    -1.1825 H       
  33 H33            1.3051     0.9726    -0.8206 H       
  34 H34            1.6485    -0.2188     0.4565 H       
  35 H35           -0.2673    -1.5688     1.4501 H       
  36 H36           -1.8819    -1.4321     0.7135 H       
  37 H37           -2.0247    -5.3562     2.4243 H       
  38 H38           -1.5310    -7.2758     1.0118 H       
  39 H39           -0.6022    -8.1449    -1.1571 H       
  40 H40           -0.0212    -8.7163    -3.5195 H       
  41 H41            4.5730    -8.5513    -7.6285 H       
  42 H42            3.5603   -10.7105    -8.3025 H       
  43 H43            1.5644   -11.5396    -7.1263 H       
  44 H44            0.9423    -5.3485    -4.0037 H       
  45 H45            0.4162    -3.4843    -2.5292 H       
@<TRIPOS>BOND
   1    1    2 1
   2    1   29 1
   3    1   30 1
   4    1   31 1
   5    2    3 1
   6    3    4 1
   7    3    5 1
   8    3    6 1
   9    5   32 1
  10    5   33 1
  11    5   34 1
  12    6    7 1
  13    6   35 1
  14    6   36 1
  15    7    8 1
  16    8   28 ar
  17    8    9 ar
  18    9   10 ar
  19   10   11 ar
  20   10   37 1
  21   11   12 ar
  22   11   38 1
  23   12   28 ar
  24   12   13 ar
  25   13   14 ar
  26   13   39 1
  27   14   15 1
  28   14   26 ar
  29   15   16 1
  30   15   40 1
  31   16   25 1
  32   16   17 2
  33   17   18 1
  34   18   19 1
  35   18   20 1
  36   20   25 ar
  37   20   21 ar
  38   21   22 ar
  39   21   41 1
  40   22   23 ar
  41   22   42 1
  42   23   24 ar
  43   23   43 1
  44   24   25 ar
  45   26   27 ar
  46   26   44 1
  47   27   28 ar
  48   27   45 1

#	End of record

