#	Name: ASD01141072
#	Creating user name:	WinNT
#	Creation time:	15. 06. 2019 19:01

#	Modifying user name:	WinNT
#	Modification time:	15. 06. 2019 19:01

#	Program:	/corina/corina34_cracker 3.40 0067  02.08.2006

@<TRIPOS>MOLECULE
ASD01141072
  47   49    0    0    0
SMALL
NO_CHARGES


@<TRIPOS>ATOM
   1 C1             0.3073     0.9373    -0.3155 C.2     
   2 C2            -0.3050    -0.2927     0.1974 C.2     
   3 C3             0.6305     1.0583    -1.7530 C.ar    
   4 O4             0.5448     1.8604     0.4413 O.2     
   5 C5             0.4467    -1.5541     0.1698 C.2     
   6 C6            -1.5894    -0.2648     0.7067 C.2     
   7 C7             0.2432     0.0569    -2.6458 C.ar    
   8 C8             1.3198     2.1779    -2.2256 C.ar    
   9 O9            -0.1049    -2.5977     0.4649 O.2     
  10 N10            1.7476    -1.5557    -0.1826 N.am    
  11 N11           -2.0794    -1.3388     1.3610 N.pl3   
  12 C12            0.5474     0.1761    -3.9855 C.ar    
  13 C13            1.6178     2.2840    -3.5703 C.ar    
  14 Cl14           1.8001     3.4325    -1.1260 Cl      
  15 C15           -3.4129    -1.3534     1.7802 C.ar    
  16 C16            1.2353     1.2853    -4.4469 C.ar    
  17 C17           -4.2364    -0.2656     1.5190 C.ar    
  18 C18           -3.9185    -2.4581     2.4538 C.ar    
  19 C19           -5.5535    -0.2829     1.9338 C.ar    
  20 C20           -5.2364    -2.4700     2.8663 C.ar    
  21 C21           -6.0531    -1.3827     2.6093 C.ar    
  22 Cl22          -7.7091    -1.4008     3.1299 Cl      
  23 H23            2.2062    -0.7172    -0.3485 H       
  24 H24           -1.5062    -2.1005     1.5404 H       
  25 C25            2.4691    -2.8238    -0.3149 C.3     
  26 C26            3.6654    -2.6527    -1.2675 C.3     
  27 C27            4.9313    -2.9773    -0.4478 C.3     
  28 C28            4.4187    -3.8812     0.7008 C.3     
  29 C29            3.0498    -3.2465     1.0503 C.3     
  30 H30           -2.2010     0.6164     0.5812 H       
  31 H31           -0.2931    -0.8094    -2.2877 H       
  32 H32            0.2519    -0.6000    -4.6759 H       
  33 H33            2.1503     3.1488    -3.9378 H       
  34 H34            1.4707     1.3730    -5.4973 H       
  35 H35           -3.8469     0.5930     0.9922 H       
  36 H36           -3.2817    -3.3070     2.6543 H       
  37 H37           -6.1941     0.5626     1.7313 H       
  38 H38           -5.6300    -3.3286     3.3900 H       
  39 H39            1.7992    -3.5966    -0.6919 H       
  40 H40            3.5765    -3.3431    -2.1063 H       
  41 H41            3.7092    -1.6262    -1.6313 H       
  42 H42            5.6557    -3.5135    -1.0609 H       
  43 H43            5.3710    -2.0639    -0.0472 H       
  44 H44            4.2920    -4.9079     0.3572 H       
  45 H45            5.0935    -3.8394     1.5558 H       
  46 H46            3.1857    -2.3765     1.6929 H       
  47 H47            2.4011    -3.9790     1.5305 H       
@<TRIPOS>BOND
   1    1    2 1
   2    1    3 1
   3    1    4 2
   4    2    5 1
   5    2    6 2
   6    3    7 ar
   7    3    8 ar
   8    5   10 am
   9    5    9 2
  10    6   11 1
  11    6   30 1
  12    7   12 ar
  13    7   31 1
  14    8   13 ar
  15    8   14 1
  16   10   23 1
  17   10   25 1
  18   11   24 1
  19   11   15 1
  20   12   16 ar
  21   12   32 1
  22   13   16 ar
  23   13   33 1
  24   15   18 ar
  25   15   17 ar
  26   16   34 1
  27   17   19 ar
  28   17   35 1
  29   18   20 ar
  30   18   36 1
  31   19   21 ar
  32   19   37 1
  33   20   21 ar
  34   20   38 1
  35   21   22 1
  36   25   26 1
  37   25   29 1
  38   25   39 1
  39   26   27 1
  40   26   40 1
  41   26   41 1
  42   27   28 1
  43   27   42 1
  44   27   43 1
  45   28   29 1
  46   28   44 1
  47   28   45 1
  48   29   46 1
  49   29   47 1

#	End of record

