#	Name: ASD01410020
#	Creating user name:	WinNT
#	Creation time:	15. 06. 2019 19:16

#	Modifying user name:	WinNT
#	Modification time:	15. 06. 2019 19:16

#	Program:	/corina/corina34_cracker 3.40 0067  02.08.2006

@<TRIPOS>MOLECULE
ASD01410020
  33   34    0    0    0
SMALL
NO_CHARGES


@<TRIPOS>ATOM
   1 C1            -0.0073     1.4060     0.0862 C.ar    
   2 C2             0.0073     0.0228     0.0731 C.ar    
   3 C3             1.2112    -0.6563     0.0456 C.ar    
   4 C4             2.4044     0.0506     0.0306 C.ar    
   5 C5             2.3866     1.4380     0.0433 C.ar    
   6 C6             1.1813     2.1123     0.0713 C.ar    
   7 O7             3.5892    -0.6146     0.0039 O.3     
   8 C8             4.7781     0.1782    -0.0102 C.3     
   9 C9             5.9839    -0.7252    -0.0393 C.2     
  10 N10            7.2229    -0.1950    -0.0566 N.am    
  11 C11            8.3371    -1.0260     0.0298 C.ar    
  12 C12            8.2913    -2.1758     0.8060 C.ar    
  13 C13            9.3970    -2.9982     0.8902 C.ar    
  14 C14           10.5583    -2.6847     0.2029 C.ar    
  15 C15           10.6226    -1.5474    -0.5727 C.ar    
  16 C16            9.5102    -0.7080    -0.6722 C.ar    
  17 O17            5.8394    -1.9293    -0.0471 O.2     
  18 C18            9.5718     0.5097    -1.5003 C.2     
  19 O19           10.7335     0.8733    -2.0784 O.3     
  20 O20            8.5751     1.1857    -1.6617 O.2     
  21 Br21          -1.6203    -0.9397     0.0936 Br      
  22 H22           -0.9487     1.9351     0.1035 H       
  23 H23            1.2226    -1.7362     0.0361 H       
  24 H24            3.3145     1.9904     0.0320 H       
  25 H25            1.1674     3.1921     0.0812 H       
  26 H26            4.7797     0.8149    -0.8949 H       
  27 H27            4.8111     0.7996     0.8847 H       
  28 H28            7.3385     0.7653    -0.1293 H       
  29 H29            7.3897    -2.4272     1.3449 H       
  30 H30            9.3565    -3.8914     1.4961 H       
  31 H31           11.4177    -3.3348     0.2756 H       
  32 H32           11.5305    -1.3074    -1.1062 H       
  33 H33           10.7247     1.6795    -2.6123 H       
@<TRIPOS>BOND
   1    1    2 ar
   2    1    6 ar
   3    1   22 1
   4    2    3 ar
   5    2   21 1
   6    3    4 ar
   7    3   23 1
   8    4    5 ar
   9    4    7 1
  10    5    6 ar
  11    5   24 1
  12    6   25 1
  13    7    8 1
  14    8    9 1
  15    8   26 1
  16    8   27 1
  17    9   10 am
  18    9   17 2
  19   10   11 1
  20   10   28 1
  21   11   12 ar
  22   11   16 ar
  23   12   13 ar
  24   12   29 1
  25   13   14 ar
  26   13   30 1
  27   14   15 ar
  28   14   31 1
  29   15   16 ar
  30   15   32 1
  31   16   18 1
  32   18   19 1
  33   18   20 2
  34   19   33 1

#	End of record

