#	Name: ASD01411041
#	Creating user name:	WinNT
#	Creation time:	15. 06. 2019 19:19

#	Modifying user name:	WinNT
#	Modification time:	15. 06. 2019 19:19

#	Program:	/corina/corina34_cracker 3.40 0067  02.08.2006

@<TRIPOS>MOLECULE
ASD01411041
  36   37    0    0    0
SMALL
NO_CHARGES


@<TRIPOS>ATOM
   1 C1             0.2900     1.7088     0.6630 C.2     
   2 S2             0.1692    -0.0417     0.9117 S.3     
   3 C3            -1.5949    -0.0356     1.1072 C.2     
   4 C4            -1.9653     1.3776     0.9586 C.2     
   5 N5            -0.9521     2.1996     0.7412 N.am    
   6 O6            -3.1168     1.7639     1.0344 O.2     
   7 S7             1.7234     2.6022     0.3833 S.2     
   8 C8            -2.4126    -1.0929     1.3400 C.2     
   9 C9            -1.8402    -2.4176     1.6153 C.ar    
  10 C10           -1.1897     3.6356     0.5754 C.3     
  11 C11           -0.6043    -2.5292     2.2623 C.ar    
  12 C12           -0.0740    -3.7754     2.5176 C.ar    
  13 C13           -0.7606    -4.9167     2.1357 C.ar    
  14 C14           -1.9844    -4.8158     1.4944 C.ar    
  15 C15           -2.5315    -3.5759     1.2367 C.ar    
  16 C16           -1.9013     3.8844    -0.7560 C.3     
  17 C17           -1.0883     3.2621    -1.8929 C.3     
  18 C18           -3.2927     3.2493    -0.7171 C.3     
  19 Cl19          -4.0651    -3.4510     0.4330 Cl      
  20 Cl20          -0.0834    -6.4815     2.4622 Cl      
  21 C21           -2.0507     4.1363     1.7064 C.2     
  22 O22           -2.4272     3.3719     2.5631 O.2     
  23 O23           -2.3993     5.4313     1.7620 O.3     
  24 H24           -3.4844    -0.9606     1.3229 H       
  25 H25           -0.2368     4.1648     0.5825 H       
  26 H26           -0.0673    -1.6409     2.5605 H       
  27 H27            0.8799    -3.8626     3.0165 H       
  28 H28           -2.5132    -5.7100     1.1991 H       
  29 H29           -1.9963     4.9575    -0.9223 H       
  30 H30           -0.0970     3.7146    -1.9207 H       
  31 H31           -0.9934     2.1890    -1.7266 H       
  32 H32           -1.5952     3.4393    -2.8414 H       
  33 H33           -3.7913     3.5232     0.2127 H       
  34 H34           -3.8794     3.6074    -1.5631 H       
  35 H35           -3.1988     2.1648    -0.7731 H       
  36 H36           -2.9526     5.7054     2.5063 H       
@<TRIPOS>BOND
   1    1    2 1
   2    1    7 2
   3    1    5 am
   4    2    3 1
   5    3    4 1
   6    3    8 2
   7    4    5 am
   8    4    6 2
   9    5   10 1
  10    8    9 1
  11    8   24 1
  12    9   11 ar
  13    9   15 ar
  14   10   16 1
  15   10   21 1
  16   10   25 1
  17   11   12 ar
  18   11   26 1
  19   12   13 ar
  20   12   27 1
  21   13   14 ar
  22   13   20 1
  23   14   15 ar
  24   14   28 1
  25   15   19 1
  26   16   17 1
  27   16   18 1
  28   16   29 1
  29   17   30 1
  30   17   31 1
  31   17   32 1
  32   18   33 1
  33   18   34 1
  34   18   35 1
  35   21   22 2
  36   21   23 1
  37   23   36 1

#	End of record

