#	Name: ASD02590059
#	Creating user name:	WinNT
#	Creation time:	15. 06. 2019 20:25

#	Modifying user name:	WinNT
#	Modification time:	15. 06. 2019 20:25

#	Program:	/corina/corina34_cracker 3.40 0067  02.08.2006

@<TRIPOS>MOLECULE
ASD02590059
  75   80    0    0    0
SMALL
NO_CHARGES


@<TRIPOS>ATOM
   1 C1            -0.0168     1.3882     0.0097 C.ar    
   2 C2             0.0021    -0.0041     0.0020 C.ar    
   3 C3             1.1863     2.0841     0.0019 C.ar    
   4 N4             2.3353     1.4436    -0.0125 N.ar    
   5 C5             2.3940     0.1169    -0.0202 C.ar    
   6 C6             1.2265    -0.6467    -0.0131 C.ar    
   7 C7             3.7099    -0.5578    -0.0364 C.2     
   8 N8             4.9211     0.0795    -0.0445 N.pl3   
   9 C9             5.8975    -0.8991    -0.0586 C.ar    
  10 C10            5.2180    -2.1302    -0.0584 C.ar    
  11 N11            3.8915    -1.8556    -0.0394 N.2     
  12 C12            7.2853    -0.8721    -0.0714 C.ar    
  13 C13            7.9958    -2.0527    -0.0840 C.ar    
  14 C14            7.3306    -3.2761    -0.0839 C.ar    
  15 C15            5.9515    -3.3217    -0.0713 C.ar    
  16 O16           -4.4121     4.3793     3.7761 O.3     
  17 C17           -4.8152     4.0938     5.0414 C.ar    
  18 C18           -4.1627     4.6610     6.1329 C.ar    
  19 C19           -4.6061     4.3437     7.4038 C.ar    
  20 C20           -5.6852     3.4715     7.5484 C.ar    
  21 N21           -6.2817     2.9500     6.4827 N.ar    
  22 C22           -5.8872     3.2368     5.2608 C.ar    
  23 C23           -6.1693     3.1238     8.9019 C.2     
  24 N24           -5.6618     3.5748    10.0228 N.2     
  25 C25           -6.3430     3.0564    11.0727 C.ar    
  26 C26           -7.3459     2.2227    10.5469 C.ar    
  27 N27           -7.2184     2.2873     9.1718 N.pl3   
  28 C28           -6.2244     3.2006    12.4594 C.ar    
  29 C29           -7.0907     2.5248    13.2943 C.ar    
  30 C30           -8.0812     1.7012    12.7653 C.ar    
  31 C31           -8.2087     1.5504    11.4015 C.ar    
  32 O32           -1.1979     2.0589     0.0189 O.3     
  33 C33           -1.1334     3.4864     0.0264 C.3     
  34 C34           -5.1324     3.7577     2.7099 C.3     
  35 C35           -4.5385     4.1958     1.3697 C.3     
  36 O36           -3.2009     3.7056     1.2584 O.3     
  37 C37           -2.5513     4.0610     0.0362 C.3     
  38 O38            8.0446    -4.4332    -0.0964 O.3     
  39 C39           10.0947    -5.7127    -0.1221 C.3     
  40 C40            9.4688    -4.3167    -0.1092 C.3     
  41 O41           -6.9763     2.6638    14.6420 O.3     
  42 C42           -7.6217     2.2169    16.9277 C.3     
  43 C43           -7.9041     1.9371    15.4502 C.3     
  44 H44           -0.9183    -0.5691     0.0081 H       
  45 H45            1.1777     3.1641     0.0074 H       
  46 H46            1.2783    -1.7254    -0.0194 H       
  47 H47            5.0671     1.0385    -0.0410 H       
  48 H48            7.8076     0.0732    -0.0719 H       
  49 H49            9.0755    -2.0291    -0.0944 H       
  50 H50            5.4404    -4.2731    -0.0709 H       
  51 H51           -3.3294     5.3331     5.9903 H       
  52 H52           -4.1230     4.7652     8.2730 H       
  53 H53           -6.3969     2.7938     4.4180 H       
  54 H54           -7.7658     1.8217     8.5203 H       
  55 H55           -5.4577     3.8379    12.8747 H       
  56 H56           -8.7537     1.1771    13.4282 H       
  57 H57           -8.9793     0.9103    10.9981 H       
  58 H58           -0.5994     3.8213     0.9157 H       
  59 H59           -0.6079     3.8310    -0.8642 H       
  60 H60           -5.0574     2.6744     2.8038 H       
  61 H61           -6.1801     4.0548     2.7576 H       
  62 H62           -5.1418     3.7934     0.5560 H       
  63 H63           -4.5324     5.2844     1.3135 H       
  64 H64           -2.5040     5.1467    -0.0477 H       
  65 H65           -3.1134     3.6558    -0.8051 H       
  66 H66           11.1810    -5.6238    -0.1318 H       
  67 H67            9.7828    -6.2590     0.7681 H       
  68 H68            9.7661    -6.2500    -1.0117 H       
  69 H69            9.7807    -3.7704    -0.9994 H       
  70 H70            9.7973    -3.7794     0.7805 H       
  71 H71           -8.3294     1.6627    17.5442 H       
  72 H72           -6.6061     1.9034    17.1692 H       
  73 H73           -7.7284     3.2841    17.1222 H       
  74 H74           -8.9197     2.2507    15.2087 H       
  75 H75           -7.7974     0.8699    15.2557 H       
@<TRIPOS>BOND
   1    1    2 ar
   2    1    3 ar
   3    1   32 1
   4    2    6 ar
   5    2   44 1
   6    3    4 ar
   7    3   45 1
   8    4    5 ar
   9    5    6 ar
  10    5    7 1
  11    6   46 1
  12    7    8 1
  13    7   11 2
  14    8    9 1
  15    8   47 1
  16    9   10 ar
  17    9   12 ar
  18   10   11 1
  19   10   15 ar
  20   12   13 ar
  21   12   48 1
  22   13   14 ar
  23   13   49 1
  24   14   15 ar
  25   14   38 1
  26   15   50 1
  27   16   17 1
  28   16   34 1
  29   17   18 ar
  30   17   22 ar
  31   18   19 ar
  32   18   51 1
  33   19   20 ar
  34   19   52 1
  35   20   21 ar
  36   20   23 1
  37   21   22 ar
  38   22   53 1
  39   23   24 2
  40   23   27 1
  41   24   25 1
  42   25   26 ar
  43   25   28 ar
  44   26   27 1
  45   26   31 ar
  46   27   54 1
  47   28   29 ar
  48   28   55 1
  49   29   30 ar
  50   29   41 1
  51   30   31 ar
  52   30   56 1
  53   31   57 1
  54   32   33 1
  55   33   37 1
  56   33   58 1
  57   33   59 1
  58   34   35 1
  59   34   60 1
  60   34   61 1
  61   35   36 1
  62   35   62 1
  63   35   63 1
  64   36   37 1
  65   37   64 1
  66   37   65 1
  67   38   40 1
  68   39   40 1
  69   39   66 1
  70   39   67 1
  71   39   68 1
  72   40   69 1
  73   40   70 1
  74   41   43 1
  75   42   43 1
  76   42   71 1
  77   42   72 1
  78   42   73 1
  79   43   74 1
  80   43   75 1

#	End of record

