#	Name: ASD00170541
#	Creating user name:	WinNT
#	Creation time:	15. 06. 2019 18:32

#	Modifying user name:	WinNT
#	Modification time:	15. 06. 2019 18:32

#	Program:	/corina/corina34_cracker 3.40 0067  02.08.2006

@<TRIPOS>MOLECULE
ASD00170541
  53   56    0    0    0
SMALL
NO_CHARGES


@<TRIPOS>ATOM
   1 C1             0.0212     1.4876     0.0492 C.ar    
   2 N2             0.0189     0.0909     0.0600 N.3     
   3 C3            -0.5315    -0.4252     1.3210 C.3     
   4 C4            -0.5904    -1.9534     1.2613 C.3     
   5 N5             0.7591    -2.4841     1.0228 N.3     
   6 C6             1.3095    -1.9680    -0.2383 C.3     
   7 C7             1.3684    -0.4398    -0.1786 C.3     
   8 C8             0.7567    -3.9531     1.0340 C.3     
   9 C9             2.0895    -4.4613     0.5476 C.2     
  10 C10            2.2982    -4.8945    -0.6858 C.2     
  11 S11            3.9627    -5.4074    -0.8965 S.3     
  12 C12            4.3655    -5.0235     0.7145 C.2     
  13 C13            3.2724    -4.5193     1.3803 C.2     
  14 C14            3.2999    -4.0967     2.7804 C.2     
  15 O15            3.6579    -2.9691     3.0692 O.2     
  16 C16            2.8929    -5.0387     3.8452 C.ar    
  17 C17            2.8083    -4.6052     5.1696 C.ar    
  18 C18            2.4283    -5.4882     6.1582 C.ar    
  19 C19            2.1307    -6.8029     5.8394 C.ar    
  20 C20            2.2128    -7.2388     4.5272 C.ar    
  21 C21            2.5862    -6.3635     3.5292 C.ar    
  22 Cl22           1.6535    -7.9089     7.0895 Cl      
  23 N23            5.6169    -5.1901     1.2722 N.pl3   
  24 C24           -0.7681     2.1779    -0.8616 C.ar    
  25 C25           -0.7638     3.5591    -0.8692 C.ar    
  26 C26            0.0249     4.2545     0.0286 C.ar    
  27 C27            0.8124     3.5702     0.9367 C.ar    
  28 C28            0.8085     2.1895     0.9535 C.ar    
  29 C29           -1.6277     1.4208    -1.8409 C.3     
  30 F30           -2.2415     2.3225    -2.7168 F       
  31 F31           -0.8312     0.5312    -2.5699 F       
  32 F32           -2.6083     0.7058    -1.1449 F       
  33 H33            0.1071    -0.1180     2.1493 H       
  34 H34           -1.5358    -0.0281     1.4690 H       
  35 H35           -0.9713    -2.3399     2.2066 H       
  36 H36           -1.2505    -2.2605     0.4501 H       
  37 H37            2.3138    -2.3651    -0.3863 H       
  38 H38            0.6710    -2.2752    -1.0665 H       
  39 H39            1.7493    -0.0533    -1.1239 H       
  40 H40            2.0286    -0.1327     0.6326 H       
  41 H41            0.5810    -4.3083     2.0494 H       
  42 H42           -0.0332    -4.3201     0.3788 H       
  43 H43            1.5445    -4.9283    -1.4587 H       
  44 H44            3.0405    -3.5805     5.4194 H       
  45 H45            2.3629    -5.1542     7.1832 H       
  46 H46            1.9796    -8.2650     4.2846 H       
  47 H47            2.6495    -6.7043     2.5063 H       
  48 H48            6.3228    -5.6161     0.7613 H       
  49 H49            5.7905    -4.8813     2.1752 H       
  50 H50           -1.3770     4.0965    -1.5774 H       
  51 H51            0.0264     5.3345     0.0206 H       
  52 H52            1.4276     4.1164     1.6364 H       
  53 H53            1.4237     1.6557     1.6628 H       
@<TRIPOS>BOND
   1    1    2 1
   2    1   24 ar
   3    1   28 ar
   4    2    3 1
   5    2    7 1
   6    3    4 1
   7    3   33 1
   8    3   34 1
   9    4    5 1
  10    4   35 1
  11    4   36 1
  12    5    6 1
  13    5    8 1
  14    6    7 1
  15    6   37 1
  16    6   38 1
  17    7   39 1
  18    7   40 1
  19    8    9 1
  20    8   41 1
  21    8   42 1
  22    9   10 2
  23    9   13 1
  24   10   11 1
  25   10   43 1
  26   11   12 1
  27   12   13 2
  28   12   23 1
  29   13   14 1
  30   14   15 2
  31   14   16 1
  32   16   17 ar
  33   16   21 ar
  34   17   18 ar
  35   17   44 1
  36   18   19 ar
  37   18   45 1
  38   19   20 ar
  39   19   22 1
  40   20   21 ar
  41   20   46 1
  42   21   47 1
  43   23   48 1
  44   23   49 1
  45   24   25 ar
  46   24   29 1
  47   25   26 ar
  48   25   50 1
  49   26   27 ar
  50   26   51 1
  51   27   28 ar
  52   27   52 1
  53   28   53 1
  54   29   30 1
  55   29   31 1
  56   29   32 1

#	End of record

