#	Name: ASD01910943
#	Creating user name:	WinNT
#	Creation time:	15. 06. 2019 19:56

#	Modifying user name:	WinNT
#	Modification time:	15. 06. 2019 19:56

#	Program:	/corina/corina34_cracker 3.40 0067  02.08.2006

@<TRIPOS>MOLECULE
ASD01910943
  55   58    0    0    0
SMALL
NO_CHARGES


@<TRIPOS>ATOM
   1 N1             0.3816     1.1952    -0.3493 N.am    
   2 C2             0.1584    -0.2415    -0.1351 C.3     
   3 C3            -0.4292    -0.4425     1.2672 C.3     
   4 N4            -1.5574     0.4831     1.4408 N.am    
   5 C5            -1.3343     1.9198     1.2266 C.3     
   6 C6            -0.7454     2.1214    -0.1703 C.3     
   7 C7            -2.7751     0.0225     1.7896 C.2     
   8 C8            -3.8694     0.9732     2.0813 C.ar    
   9 C9            -5.1600     0.7203     1.6110 C.ar    
  10 C10           -6.1839     1.6068     1.8821 C.ar    
  11 C11           -5.9406     2.7482     2.6189 C.ar    
  12 C12           -4.6533     3.0146     3.0958 C.ar    
  13 C13           -3.6165     2.1201     2.8306 C.ar    
  14 C14           -4.4016     4.1994     3.8597 C.1     
  15 O15           -2.9737    -1.1743     1.8644 O.2     
  16 C16           -4.1952     5.1707     4.4860 C.1     
  17 C17           -3.9435     6.3555     5.2500 C.ar    
  18 C18           -2.6615     6.6316     5.7314 C.ar    
  19 N19           -2.4309     7.7213     6.4338 N.ar    
  20 C20           -3.3865     8.5878     6.7100 C.ar    
  21 C21           -4.6829     8.3869     6.2701 C.ar    
  22 C22           -4.9779     7.2610     5.5228 C.ar    
  23 C23            1.5992     1.6558    -0.6981 C.2     
  24 C24            1.7808     3.0818    -1.0330 C.ar    
  25 O25            2.5481     0.8966    -0.7369 O.2     
  26 C26            2.9846     3.7243    -0.7321 C.ar    
  27 C27            3.1501     5.0547    -1.0461 C.ar    
  28 C28            2.1214     5.7587    -1.6612 C.ar    
  29 C29            0.9224     5.1232    -1.9622 C.ar    
  30 C30            0.7514     3.7914    -1.6570 C.ar    
  31 O31            2.2880     7.0701    -1.9683 O.3     
  32 C32            1.1907     7.7331    -2.5993 C.3     
  33 H33           -0.5403    -0.6185    -0.8820 H       
  34 H34            1.1058    -0.7747    -0.2147 H       
  35 H35           -0.7787    -1.4694     1.3737 H       
  36 H36            0.3340    -0.2337     2.0170 H       
  37 H37           -2.2816     2.4530     1.3062 H       
  38 H38           -0.6356     2.2968     1.9735 H       
  39 H39           -0.3963     3.1486    -0.2754 H       
  40 H40           -1.5066     1.9125    -0.9219 H       
  41 H41           -5.3577    -0.1706     1.0336 H       
  42 H42           -7.1797     1.4060     1.5154 H       
  43 H43           -6.7458     3.4371     2.8271 H       
  44 H44           -2.6202     2.3205     3.1963 H       
  45 H45           -1.8530     5.9457     5.5260 H       
  46 H46           -3.1530     9.4687     7.2895 H       
  47 H47           -5.4557     9.1042     6.5041 H       
  48 H48           -5.9813     7.0796     5.1668 H       
  49 H49            3.7841     3.1781    -0.2536 H       
  50 H50            4.0802     5.5520    -0.8139 H       
  51 H51            0.1255     5.6736    -2.4401 H       
  52 H52           -0.1804     3.2982    -1.8915 H       
  53 H53            0.9612     7.2382    -3.5430 H       
  54 H54            0.3184     7.6936    -1.9468 H       
  55 H55            1.4553     8.7732    -2.7895 H       
@<TRIPOS>BOND
   1    1    2 1
   2    1   23 am
   3    1    6 1
   4    2    3 1
   5    2   33 1
   6    2   34 1
   7    3    4 1
   8    3   35 1
   9    3   36 1
  10    4    5 1
  11    4    7 am
  12    5    6 1
  13    5   37 1
  14    5   38 1
  15    6   39 1
  16    6   40 1
  17    7    8 1
  18    7   15 2
  19    8    9 ar
  20    8   13 ar
  21    9   10 ar
  22    9   41 1
  23   10   11 ar
  24   10   42 1
  25   11   12 ar
  26   11   43 1
  27   12   13 ar
  28   12   14 1
  29   13   44 1
  30   14   16 3
  31   16   17 1
  32   17   18 ar
  33   17   22 ar
  34   18   19 ar
  35   18   45 1
  36   19   20 ar
  37   20   21 ar
  38   20   46 1
  39   21   22 ar
  40   21   47 1
  41   22   48 1
  42   23   25 2
  43   23   24 1
  44   24   26 ar
  45   24   30 ar
  46   26   27 ar
  47   26   49 1
  48   27   28 ar
  49   27   50 1
  50   28   29 ar
  51   28   31 1
  52   29   30 ar
  53   29   51 1
  54   30   52 1
  55   31   32 1
  56   32   53 1
  57   32   54 1
  58   32   55 1

#	End of record

