#	Name: ASD05143060
#	Creating user name:	WinNT
#	Creation time:	15. 06. 2019 20:57

#	Modifying user name:	WinNT
#	Modification time:	15. 06. 2019 20:57

#	Program:	/corina/corina34_cracker 3.40 0067  02.08.2006

@<TRIPOS>MOLECULE
ASD05143060
 154  158    0    0    0
SMALL
NO_CHARGES


@<TRIPOS>ATOM
   1 C1            -1.9686     2.7151     4.9841 C.2     
   2 C2            -1.4483     1.6046     5.8599 C.3     
   3 N3            -1.1116     3.4523     4.2501 N.am    
   4 O4            -3.1590     2.9422     4.9358 O.2     
   5 C5            -1.6174     4.5318     3.3987 C.3     
   6 C6            -2.5871     3.9547     2.3655 C.3     
   7 C7            -2.3356     5.5477     4.2491 C.2     
   8 C8            -1.8297     3.0170     1.4231 C.3     
   9 C9            -2.7993     2.4399     0.3899 C.3     
  10 N10           -2.0741     1.5421    -0.5124 N.pl3   
  11 C11           -2.7426     0.9024    -1.5293 C.2     
  12 N12           -4.0917     1.1053    -1.6995 N.pl3   
  13 N13           -2.0973     0.1036    -2.3321 N.2     
  14 O14           -2.7372     5.2406     5.3515 O.2     
  15 N15           -2.5316     6.7976     3.7845 N.am    
  16 C16           -3.2298     7.7853     4.6112 C.3     
  17 C17           -2.2119     8.7517     5.2200 C.3     
  18 C18           -1.0425     7.9589     5.8070 C.3     
  19 C19           -0.0033     7.7312     4.7398 C.2     
  20 O20           -0.3273     7.3609     3.6313 O.2     
  21 N21            1.3106     7.9501     5.0438 N.am    
  22 C22            2.2670     7.6970     3.9421 C.3     
  23 C23            2.4186     8.9788     3.1206 C.3     
  24 C24            2.9412     8.6309     1.7253 C.3     
  25 C25            3.9260     9.7079     1.2657 C.3     
  26 N26            3.7569     9.9198    -0.1860 N.am    
  27 C27            5.3358     9.2573     1.5493 C.2     
  28 N28            5.8431     9.3735     2.7925 N.am    
  29 O29            6.0138     8.7900     0.6589 O.2     
  30 C30            2.9520    10.9516    -0.5601 C.2     
  31 O31            2.4193    11.6495     0.2766 O.2     
  32 C32            2.7316    11.2163    -2.0272 C.3     
  33 N33            1.5474    12.0933    -2.1751 N.am    
  34 C34            3.9619    11.9109    -2.6146 C.3     
  35 C35            0.4131    11.4749    -2.6198 C.2     
  36 O36            0.4145    10.2887    -2.8721 O.2     
  37 C37           -0.8399    12.2947    -2.7903 C.3     
  38 N38           -2.0123    11.4070    -2.6585 N.am    
  39 C39           -0.8939    13.3788    -1.7120 C.3     
  40 C40           -3.0270    11.8514    -1.8669 C.2     
  41 O41           -2.9449    12.9232    -1.3053 O.2     
  42 C42           -4.2538    10.9924    -1.6991 C.3     
  43 C43            3.7894    12.0635    -4.1039 C.2     
  44 C44            3.0882    13.1493    -4.7931 C.ar    
  45 C45            3.1886    12.8662    -6.1674 C.ar    
  46 N46            3.8998    11.6936    -6.2896 N.pl3   
  47 C47            4.2542    11.2332    -5.0508 C.2     
  48 C48            2.4110    14.2929    -4.3650 C.ar    
  49 C49            1.8485    15.1322    -5.2847 C.ar    
  50 C50            1.9444    14.8570    -6.6421 C.ar    
  51 C51            2.6086    13.7349    -7.0863 C.ar    
  52 N52           -4.7120    11.0888    -0.2943 N.am    
  53 C53           -3.9111     9.5382    -2.0286 C.3     
  54 C54           -5.1564     8.6948    -1.9338 C.ar    
  55 C55           -6.1540     8.8250    -2.8832 C.ar    
  56 C56           -7.2970     8.0499    -2.7957 C.ar    
  57 C57           -7.4412     7.1463    -1.7601 C.ar    
  58 C58           -6.4438     7.0167    -0.8115 C.ar    
  59 C59           -5.2996     7.7869    -0.9012 C.ar    
  60 C60           -4.2051     8.5551     3.7582 C.2     
  61 O61           -5.3990     8.4561     3.9472 O.2     
  62 C62           -0.7635    12.7321    -0.3316 C.3     
  63 C63           -0.9421    13.7990     0.7504 C.3     
  64 N64           -0.8173    13.1797     2.0722 N.pl3   
  65 C65           -0.9420    13.9477     3.2057 C.2     
  66 N66           -0.8248    13.3665     4.4461 N.pl3   
  67 N67           -1.1713    15.2268     3.1043 N.2     
  68 N68           -3.7268     9.3627     2.7722 N.am    
  69 C69           -4.7296    10.0916     1.9701 C.3     
  70 C70           -4.3016    10.0758     0.5253 C.2     
  71 O71           -3.6054     9.1795     0.0977 O.2     
  72 Cl72          -5.9724     9.9607    -4.1835 Cl      
  73 C73           -4.8256    11.5377     2.4606 C.3     
  74 C74           -5.3557    11.5555     3.8712 C.ar    
  75 C75           -4.4780    11.4950     4.9393 C.ar    
  76 C76           -6.7143    11.6379     4.0948 C.ar    
  77 C77           -7.2037    11.6543     5.4021 C.ar    
  78 C78           -6.3135    11.5872     6.4747 C.ar    
  79 C79           -4.9564    11.5105     6.2373 C.ar    
  80 C80           -8.6586    11.7428     5.6492 C.2     
  81 O81           -9.4316    11.8015     4.7129 O.2     
  82 N82           -9.1279    11.7585     6.9125 N.am    
  83 H83           -0.7575     2.0158     6.5960 H       
  84 H84           -2.2823     1.1251     6.3724 H       
  85 H85           -0.9289     0.8698     5.2449 H       
  86 H86           -0.1599     3.2680     4.2857 H       
  87 H87           -0.7835     5.0114     2.8862 H       
  88 H88           -3.3737     3.3990     2.8760 H       
  89 H89           -3.0310     4.7671     1.7902 H       
  90 H90           -1.0431     3.5727     0.9126 H       
  91 H91           -1.3858     2.2045     1.9984 H       
  92 H92           -3.5859     1.8842     0.9005 H       
  93 H93           -3.2432     3.2523    -0.1854 H       
  94 H94           -1.1222     1.3989    -0.3923 H       
  95 H95           -4.5719     1.6997    -1.1020 H       
  96 H96           -4.5633     0.6539    -2.4170 H       
  97 H97           -2.5689    -0.3477    -3.0496 H       
  98 H98           -2.2104     7.0433     2.9028 H       
  99 H99           -3.7689     7.2750     5.4094 H       
 100 H100          -1.8424     9.4249     4.4465 H       
 101 H101          -2.6894     9.3326     6.0091 H       
 102 H102          -0.6006     8.5196     6.6307 H       
 103 H103          -1.4030     6.9979     6.1739 H       
 104 H104           1.5970     8.2508     5.9204 H       
 105 H105           3.2342     7.4114     4.3558 H       
 106 H106           1.8884     6.8973     3.3055 H       
 107 H107           1.4500     9.4713     3.0335 H       
 108 H108           3.1228     9.6470     3.6162 H       
 109 H109           3.4470     7.6659     1.7571 H       
 110 H110           2.1060     8.5804     1.0267 H       
 111 H111           3.7240    10.6381     1.7966 H       
 112 H112           4.1963     9.3529    -0.8389 H       
 113 H113           5.3008     9.7472     3.5047 H       
 114 H114           6.7506     9.0834     2.9751 H       
 115 H115           2.5567    10.2743    -2.5469 H       
 116 H116           1.5752    13.0411    -1.9707 H       
 117 H117           4.0756    12.8947    -2.1593 H       
 118 H118           4.8492    11.3115    -2.4111 H       
 119 H119          -0.8417    12.7580    -3.7770 H       
 120 H120          -2.0572    10.5509    -3.1123 H       
 121 H121          -0.0749    14.0822    -1.8626 H       
 122 H122          -1.8443    13.9086    -1.7767 H       
 123 H123          -5.0410    11.3451    -2.3655 H       
 124 H124           4.1201    11.2604    -7.1291 H       
 125 H125           4.8177    10.3314    -4.8623 H       
 126 H126           2.3318    14.5130    -3.3107 H       
 127 H127           1.3248    16.0166    -4.9532 H       
 128 H128           1.4942    15.5298    -7.3571 H       
 129 H129           2.6779    13.5297    -8.1444 H       
 130 H130          -5.2648    11.8205     0.0220 H       
 131 H131          -3.5089     9.4798    -3.0399 H       
 132 H132          -3.1685     9.1704    -1.3204 H       
 133 H133          -8.0763     8.1513    -3.5365 H       
 134 H134          -8.3334     6.5416    -1.6916 H       
 135 H135          -6.5571     6.3106    -0.0021 H       
 136 H136          -4.5206     7.6849    -0.1601 H       
 137 H137          -1.5295    11.9653    -0.2158 H       
 138 H138           0.2226    12.2780    -0.2348 H       
 139 H139          -0.1761    14.5657     0.6346 H       
 140 H140          -1.9283    14.2531     0.6536 H       
 141 H141          -0.6466    12.2278     2.1476 H       
 142 H142          -0.6541    12.4146     4.5216 H       
 143 H143          -0.9128    13.9084     5.2459 H       
 144 H144          -1.2593    15.7686     3.9040 H       
 145 H145          -2.7757     9.4548     2.6053 H       
 146 H146          -5.7000     9.6052     2.0689 H       
 147 H147          -3.8366    11.9954     2.4383 H       
 148 H148          -5.4996    12.0973     1.8121 H       
 149 H149          -3.4149    11.4351     4.7589 H       
 150 H150          -7.3980    11.6898     3.2603 H       
 151 H151          -6.6856    11.5999     7.4885 H       
 152 H152          -4.2664    11.4585     7.0665 H       
 153 H153          -8.5110    11.7116     7.6596 H       
 154 H154         -10.0825    11.8166     7.0746 H       
@<TRIPOS>BOND
   1    1    2 1
   2    1    3 am
   3    1    4 2
   4    2   83 1
   5    2   84 1
   6    2   85 1
   7    3    5 1
   8    3   86 1
   9    5    6 1
  10    5    7 1
  11    5   87 1
  12    6    8 1
  13    6   88 1
  14    6   89 1
  15    7   14 2
  16    7   15 am
  17    8    9 1
  18    8   90 1
  19    8   91 1
  20    9   10 1
  21    9   92 1
  22    9   93 1
  23   10   11 1
  24   10   94 1
  25   11   12 1
  26   11   13 2
  27   12   95 1
  28   12   96 1
  29   13   97 1
  30   15   16 1
  31   15   98 1
  32   16   17 1
  33   16   60 1
  34   16   99 1
  35   17   18 1
  36   17  100 1
  37   17  101 1
  38   18   19 1
  39   18  102 1
  40   18  103 1
  41   19   20 2
  42   19   21 am
  43   21   22 1
  44   21  104 1
  45   22   23 1
  46   22  105 1
  47   22  106 1
  48   23   24 1
  49   23  107 1
  50   23  108 1
  51   24   25 1
  52   24  109 1
  53   24  110 1
  54   25   26 1
  55   25   27 1
  56   25  111 1
  57   26   30 am
  58   26  112 1
  59   27   28 am
  60   27   29 2
  61   28  113 1
  62   28  114 1
  63   30   31 2
  64   30   32 1
  65   32   33 1
  66   32   34 1
  67   32  115 1
  68   33   35 am
  69   33  116 1
  70   34   43 1
  71   34  117 1
  72   34  118 1
  73   35   36 2
  74   35   37 1
  75   37   38 1
  76   37   39 1
  77   37  119 1
  78   38   40 am
  79   38  120 1
  80   39   62 1
  81   39  121 1
  82   39  122 1
  83   40   41 2
  84   40   42 1
  85   42   52 1
  86   42   53 1
  87   42  123 1
  88   43   44 1
  89   43   47 2
  90   44   45 ar
  91   44   48 ar
  92   45   46 1
  93   45   51 ar
  94   46   47 1
  95   46  124 1
  96   47  125 1
  97   48   49 ar
  98   48  126 1
  99   49   50 ar
 100   49  127 1
 101   50   51 ar
 102   50  128 1
 103   51  129 1
 104   52   70 am
 105   52  130 1
 106   53   54 1
 107   53  131 1
 108   53  132 1
 109   54   55 ar
 110   54   59 ar
 111   55   56 ar
 112   55   72 1
 113   56   57 ar
 114   56  133 1
 115   57   58 ar
 116   57  134 1
 117   58   59 ar
 118   58  135 1
 119   59  136 1
 120   60   61 2
 121   60   68 am
 122   62   63 1
 123   62  137 1
 124   62  138 1
 125   63   64 1
 126   63  139 1
 127   63  140 1
 128   64   65 1
 129   64  141 1
 130   65   66 1
 131   65   67 2
 132   66  142 1
 133   66  143 1
 134   67  144 1
 135   68   69 1
 136   68  145 1
 137   69   70 1
 138   69   73 1
 139   69  146 1
 140   70   71 2
 141   73   74 1
 142   73  147 1
 143   73  148 1
 144   74   75 ar
 145   74   76 ar
 146   75   79 ar
 147   75  149 1
 148   76   77 ar
 149   76  150 1
 150   77   78 ar
 151   77   80 1
 152   78   79 ar
 153   78  151 1
 154   79  152 1
 155   80   81 2
 156   80   82 am
 157   82  153 1
 158   82  154 1

#	End of record

