#	Name: ASD02038715
#	Creating user name:	WinNT
#	Creation time:	15. 06. 2019 20:17

#	Modifying user name:	WinNT
#	Modification time:	15. 06. 2019 20:17

#	Program:	/corina/corina34_cracker 3.40 0067  02.08.2006

@<TRIPOS>MOLECULE
ASD02038715
  44   46    0    0    0
SMALL
NO_CHARGES


@<TRIPOS>ATOM
   1 C1            -0.0167     1.3818     0.0096 C.ar    
   2 C2             0.0021    -0.0041     0.0020 C.ar    
   3 C3             1.2126    -0.6778    -0.0132 C.ar    
   4 O4             1.2316    -2.0373    -0.0211 O.3     
   5 C5             2.5138    -2.6681    -0.0367 C.3     
   6 C6             2.3346    -4.1876    -0.0437 C.3     
   7 C7             3.7007    -4.8616    -0.1861 C.3     
   8 N8             3.5194    -6.3138    -0.3131 N.3     
   9 C9             4.8131    -6.9957    -0.4520 C.3     
  10 C10            1.1842     2.0907     0.0020 C.ar    
  11 C11            2.3926     1.4121    -0.0136 C.ar    
  12 C12            2.4065     0.0313    -0.0208 C.ar    
  13 C13            4.5839    -8.5029    -0.5814 C.3     
  14 O14            1.7248    -4.6009     1.1808 O.3     
  15 C15            5.9110    -9.2025    -0.7240 C.ar    
  16 C16            6.5877    -9.6356     0.4005 C.ar    
  17 C17            7.8061   -10.2779     0.2702 C.ar    
  18 O18           -1.0215     2.2915     0.0296 O.3     
  19 C19           -0.4984     3.5277     0.0282 C.2     
  20 N20            0.8468     3.4460     0.0125 N.am    
  21 O21           -1.1390     4.5612     0.0433 O.2     
  22 C22            6.4484    -9.4156    -1.9800 C.ar    
  23 C23            8.3468   -10.4862    -0.9872 C.ar    
  24 C24            7.6652   -10.0574    -2.1121 C.ar    
  25 Cl25           9.8756   -11.2920    -1.1525 Cl      
  26 Cl26           8.6567   -10.8217     1.6824 Cl      
  27 H27           -0.9252    -0.5577     0.0083 H       
  28 H28            3.0583    -2.3624    -0.9301 H       
  29 H29            3.0749    -2.3725     0.8498 H       
  30 H30            1.6988    -4.4746    -0.8812 H       
  31 H31            4.2037    -4.4792    -1.0742 H       
  32 H32            4.3055    -4.6466     0.6949 H       
  33 H33            2.9982    -6.6828     0.4681 H       
  34 H34            5.3238    -6.6281    -1.3420 H       
  35 H35            5.4256    -6.7956     0.4271 H       
  36 H36            3.3219     1.9624    -0.0194 H       
  37 H37            3.3477    -0.4982    -0.0329 H       
  38 H38            4.0731    -8.8705     0.3086 H       
  39 H39            3.9714    -8.7031    -1.4606 H       
  40 H40            2.2368    -4.3776     1.9701 H       
  41 H41            6.1655    -9.4725     1.3811 H       
  42 H42            1.4670     4.1918     0.0082 H       
  43 H43            5.9167    -9.0806    -2.8584 H       
  44 H44            8.0864   -10.2196    -3.0933 H       
@<TRIPOS>BOND
   1    1    2 ar
   2    1   10 ar
   3    1   18 1
   4    2    3 ar
   5    2   27 1
   6    3    4 1
   7    3   12 ar
   8    4    5 1
   9    5    6 1
  10    5   28 1
  11    5   29 1
  12    6    7 1
  13    6   14 1
  14    6   30 1
  15    7    8 1
  16    7   31 1
  17    7   32 1
  18    8    9 1
  19    8   33 1
  20    9   13 1
  21    9   34 1
  22    9   35 1
  23   10   11 ar
  24   10   20 1
  25   11   12 ar
  26   11   36 1
  27   12   37 1
  28   13   15 1
  29   13   38 1
  30   13   39 1
  31   14   40 1
  32   15   16 ar
  33   15   22 ar
  34   16   17 ar
  35   16   41 1
  36   17   23 ar
  37   17   26 1
  38   18   19 1
  39   19   20 am
  40   19   21 2
  41   20   42 1
  42   22   24 ar
  43   22   43 1
  44   23   24 ar
  45   23   25 1
  46   24   44 1

#	End of record

