#	Name: ASD00370003
#	Creating user name:	WinNT
#	Creation time:	15. 06. 2019 18:35

#	Modifying user name:	WinNT
#	Modification time:	15. 06. 2019 18:35

#	Program:	/corina/corina34_cracker 3.40 0067  02.08.2006

@<TRIPOS>MOLECULE
ASD00370003
  46   48    0    0    0
SMALL
NO_CHARGES


@<TRIPOS>ATOM
   1 P1            -0.0180     1.4758     0.0102 P.3     
   2 P2            -2.5511    -2.8941     4.0384 P.3     
   3 O3             0.0021    -0.0041     0.0020 O.2     
   4 O4             1.4924     2.0330    -0.0013 O.3     
   5 O5            -0.7967     2.0091    -1.2942 O.3     
   6 O6            -1.3680    -3.4104     4.7623 O.2     
   7 O7            -2.6063    -3.5453     2.5670 O.3     
   8 O8            -3.8875    -3.2829     4.8478 O.3     
   9 C9            -1.3192    -0.6286     3.3381 C.3     
  10 O10           -2.4467    -1.2924     3.9128 O.3     
  11 C11           -1.5443     0.8842     3.3756 C.3     
  12 O12           -1.5584     1.3399     4.7335 O.3     
  13 C13           -0.3850     1.6043     2.6538 C.3     
  14 O14           -0.7716     1.9950     1.3348 O.3     
  15 C15           -0.1581     2.8488     3.5548 C.3     
  16 O16           -1.0641     3.9011     3.2171 O.3     
  17 C17           -0.4793     2.2624     4.9526 C.3     
  18 N18            0.9939     5.8863     8.3696 N.ar    
  19 C19            1.7448     5.0401     7.6887 C.ar    
  20 S20           -4.0890    -4.7808     5.0269 S.o2    
  21 N21            1.2372     4.1640     6.8473 N.ar    
  22 C22           -0.0750     4.0980     6.6480 C.ar    
  23 C23           -0.9174     4.9775     7.3491 C.ar    
  24 C24           -0.3285     5.8943     8.2362 C.ar    
  25 N25           -1.1072     6.7847     8.9545 N.pl3   
  26 N26           -2.1878     4.7034     6.9666 N.2     
  27 C27           -2.1790     3.7356     6.0967 C.2     
  28 N28           -0.8987     3.3277     5.8667 N.pl3   
  29 O29           -5.3907    -4.9483     5.5714 O.2     
  30 O30           -3.6698    -5.3900     3.8135 O.2     
  31 O31           -3.1120    -5.2418     6.0991 O.3     
  32 H32            1.5557     2.9980     0.0033 H       
  33 H33           -0.3973     1.7338    -2.1307 H       
  34 H34           -3.3581    -3.2512     2.0346 H       
  35 H35           -0.4229    -0.8768     3.9066 H       
  36 H36           -1.1951    -0.9520     2.3046 H       
  37 H37           -2.4907     1.1292     2.8935 H       
  38 H38            0.5046     0.9750     2.6251 H       
  39 H39            0.8754     3.1907     3.4995 H       
  40 H40           -0.9587     4.6982     3.7542 H       
  41 H41            0.3897     1.7400     5.3525 H       
  42 H42            2.8155     5.0679     7.8271 H       
  43 H43           -0.6889     7.4126     9.5640 H       
  44 H44           -2.0714     6.7808     8.8484 H       
  45 H45           -3.0566     3.3168     5.6267 H       
  46 H46           -3.1577    -6.1882     6.2921 H       
@<TRIPOS>BOND
   1    1    3 2
   2    1    4 1
   3    1    5 1
   4    1   14 1
   5    2    6 2
   6    2    7 1
   7    2    8 1
   8    2   10 1
   9    4   32 1
  10    5   33 1
  11    7   34 1
  12    8   20 1
  13    9   10 1
  14    9   11 1
  15    9   35 1
  16    9   36 1
  17   11   12 1
  18   11   13 1
  19   11   37 1
  20   12   17 1
  21   13   14 1
  22   13   15 1
  23   13   38 1
  24   15   16 1
  25   15   17 1
  26   15   39 1
  27   16   40 1
  28   17   28 1
  29   17   41 1
  30   18   19 ar
  31   18   24 ar
  32   19   21 ar
  33   19   42 1
  34   20   29 2
  35   20   30 2
  36   20   31 1
  37   21   22 ar
  38   22   23 ar
  39   22   28 1
  40   23   24 ar
  41   23   26 1
  42   24   25 1
  43   25   43 1
  44   25   44 1
  45   26   27 2
  46   27   28 1
  47   27   45 1
  48   31   46 1

#	End of record

