#	Name: ASD01231363
#	Creating user name:	WinNT
#	Creation time:	15. 06. 2019 19:15

#	Modifying user name:	WinNT
#	Modification time:	15. 06. 2019 19:15

#	Program:	/corina/corina34_cracker 3.40 0067  02.08.2006

@<TRIPOS>MOLECULE
ASD01231363
  51   54    0    0    0
SMALL
NO_CHARGES


@<TRIPOS>ATOM
   1 C1            -0.0187     1.5258     0.0104 C.3     
   2 C2             0.0021    -0.0041     0.0020 C.3     
   3 C3             1.3165     0.7789    -0.0063 C.3     
   4 S4            -0.5282     2.3649    -1.5150 S.o2    
   5 O5             0.3847     2.0843    -2.5672 O.2     
   6 O6            -1.9303     2.2395    -1.7086 O.2     
   7 N7            -0.3022     3.9742    -1.1965 N.am    
   8 C8             1.0481     4.4921    -0.9626 C.3     
   9 C9             1.1812     5.9190    -1.5356 C.3     
  10 C10            0.8263     6.7992    -0.3183 C.3     
  11 C11            1.1782     5.9614     0.8923 C.ar    
  12 C12            1.3715     6.3299     2.2132 C.ar    
  13 C13            1.6910     5.3774     3.1608 C.ar    
  14 C14            1.8184     4.0514     2.7906 C.ar    
  15 C15            1.6260     3.6821     1.4739 C.ar    
  16 C16            1.3056     4.6358     0.5221 C.ar    
  17 C17            1.9010     5.7829     4.5970 C.3     
  18 C18            0.5892     5.7133     5.3356 C.ar    
  19 C19            0.2110     4.5412     5.9637 C.ar    
  20 C20           -0.9921     4.4772     6.6410 C.ar    
  21 C21           -1.8171     5.5856     6.6909 C.ar    
  22 C22           -1.4386     6.7576     6.0637 C.ar    
  23 C23           -0.2331     6.8229     5.3898 C.ar    
  24 C24           -2.3380     7.9655     6.1176 C.3     
  25 F25           -3.4880     7.6582     6.8526 F       
  26 F26           -1.6608     9.0242     6.7323 F       
  27 F27           -2.7003     8.3356     4.8180 F       
  28 C28           -1.4049     3.1993     7.3249 C.3     
  29 O29           -0.9214     3.2011     8.6696 O.3     
  30 H30           -0.3072     2.0201     0.9381 H       
  31 H31           -0.2728    -0.5162     0.9241 H       
  32 H32           -0.2904    -0.5063    -0.9201 H       
  33 H33            1.8888     0.7918    -0.9339 H       
  34 H34            1.9064     0.7818     0.9103 H       
  35 H35           -1.0639     4.5740    -1.1649 H       
  36 H36            1.7890     3.8325    -1.4143 H       
  37 H37            2.2018     6.1098    -1.8673 H       
  38 H38            0.4724     6.0779    -2.3483 H       
  39 H39            1.4170     7.7152    -0.3290 H       
  40 H40           -0.2380     7.0345    -0.3191 H       
  41 H41            1.2725     7.3655     2.5032 H       
  42 H42            2.0685     3.3053     3.5303 H       
  43 H43            1.7257     2.6461     1.1854 H       
  44 H44            2.6174     5.1073     5.0643 H       
  45 H45            2.2852     6.8023     4.6342 H       
  46 H46            0.8554     3.6754     5.9248 H       
  47 H47           -2.7575     5.5354     7.2196 H       
  48 H48            0.0644     7.7398     4.9029 H       
  49 H49           -2.4923     3.1247     7.3298 H       
  50 H50           -0.9847     2.3483     6.7888 H       
  51 H51           -1.1507     2.4066     9.1710 H       
@<TRIPOS>BOND
   1    1    2 1
   2    1    3 1
   3    1    4 1
   4    1   30 1
   5    2    3 1
   6    2   31 1
   7    2   32 1
   8    3   33 1
   9    3   34 1
  10    4    5 2
  11    4    6 2
  12    4    7 am
  13    7    8 1
  14    7   35 1
  15    8    9 1
  16    8   16 1
  17    8   36 1
  18    9   10 1
  19    9   37 1
  20    9   38 1
  21   10   11 1
  22   10   39 1
  23   10   40 1
  24   11   12 ar
  25   11   16 ar
  26   12   13 ar
  27   12   41 1
  28   13   14 ar
  29   13   17 1
  30   14   15 ar
  31   14   42 1
  32   15   16 ar
  33   15   43 1
  34   17   18 1
  35   17   44 1
  36   17   45 1
  37   18   19 ar
  38   18   23 ar
  39   19   20 ar
  40   19   46 1
  41   20   21 ar
  42   20   28 1
  43   21   22 ar
  44   21   47 1
  45   22   23 ar
  46   22   24 1
  47   23   48 1
  48   24   25 1
  49   24   26 1
  50   24   27 1
  51   28   29 1
  52   28   49 1
  53   28   50 1
  54   29   51 1

#	End of record

