#	Name: ASD09720069
#	Creating user name:	WinNT
#	Creation time:	15. 06. 2019 21:22

#	Modifying user name:	WinNT
#	Modification time:	15. 06. 2019 21:22

#	Program:	/corina/corina34_cracker 3.40 0067  02.08.2006

@<TRIPOS>MOLECULE
ASD09720069
  40   42    0    0    0
SMALL
NO_CHARGES


@<TRIPOS>ATOM
   1 C1             0.0424     1.4099     0.2351 C.2     
   2 C2             0.0789    -0.0598     0.2029 C.2     
   3 N3             1.2083    -0.6766     0.0526 N.2     
   4 C4            -1.1973    -0.8485     0.3447 C.3     
   5 O5             2.4075     0.0645    -0.0807 O.3     
   6 S6            -0.8192    -2.6223     0.3082 S.3     
   7 C7            -2.4053    -3.3694     0.4838 C.ar    
   8 C8            -2.5251    -4.7539     0.5007 C.ar    
   9 C9            -3.7697    -5.3358     0.6385 C.ar    
  10 C10           -4.8962    -4.5427     0.7592 C.ar    
  11 C11           -4.7809    -3.1646     0.7423 C.ar    
  12 C12           -3.5388    -2.5756     0.6115 C.ar    
  13 C13            1.0938     2.2626    -0.0332 C.2     
  14 C14            0.6272     3.5677     0.1115 C.2     
  15 N15           -0.6370     3.5275     0.4491 N.2     
  16 N16           -1.0400     2.1888     0.5303 N.pl3   
  17 C17           -2.3796     1.7096     0.8794 C.3     
  18 C18           -2.7492     1.9344     2.3551 C.3     
  19 C19           -4.1565     2.3120     1.8636 C.3     
  20 C20           -3.4999     2.7031     0.5291 C.3     
  21 C21            1.4435     4.8188    -0.0870 C.3     
  22 F22            1.3560     5.2257    -1.4227 F       
  23 F23            0.9523     5.8326     0.7425 F       
  24 F24            2.7801     4.5596     0.2349 F       
  25 H25           -1.6756    -0.5985     1.2917 H       
  26 H26           -1.8693    -0.6033    -0.4776 H       
  27 H27            3.1978    -0.4822    -0.1880 H       
  28 H28           -1.6459    -5.3738     0.4058 H       
  29 H29           -3.8635    -6.4117     0.6517 H       
  30 H30           -5.8684    -5.0006     0.8664 H       
  31 H31           -5.6628    -2.5484     0.8364 H       
  32 H32           -3.4495    -1.4994     0.5985 H       
  33 H33            2.0974     1.9711    -0.3056 H       
  34 H34           -2.5700     0.6943     0.5313 H       
  35 H35           -2.7256     1.0243     2.9546 H       
  36 H36           -2.2119     2.7618     2.8186 H       
  37 H37           -4.8340     1.4618     1.7842 H       
  38 H38           -4.5942     3.1549     2.3984 H       
  39 H39           -3.1679     3.7407     0.4934 H       
  40 H40           -4.0825     2.4137    -0.3455 H       
@<TRIPOS>BOND
   1    1    2 1
   2    1   13 2
   3    1   16 1
   4    2    3 2
   5    2    4 1
   6    3    5 1
   7    4    6 1
   8    4   25 1
   9    4   26 1
  10    5   27 1
  11    6    7 1
  12    7    8 ar
  13    7   12 ar
  14    8    9 ar
  15    8   28 1
  16    9   10 ar
  17    9   29 1
  18   10   11 ar
  19   10   30 1
  20   11   12 ar
  21   11   31 1
  22   12   32 1
  23   13   14 1
  24   13   33 1
  25   14   15 2
  26   14   21 1
  27   15   16 1
  28   16   17 1
  29   17   18 1
  30   17   20 1
  31   17   34 1
  32   18   19 1
  33   18   35 1
  34   18   36 1
  35   19   20 1
  36   19   37 1
  37   19   38 1
  38   20   39 1
  39   20   40 1
  40   21   22 1
  41   21   23 1
  42   21   24 1

#	End of record

