#	Name: ASD04882542
#	Creating user name:	WinNT
#	Creation time:	15. 06. 2019 20:55

#	Modifying user name:	WinNT
#	Modification time:	15. 06. 2019 20:55

#	Program:	/corina/corina34_cracker 3.40 0067  02.08.2006

@<TRIPOS>MOLECULE
ASD04882542
  87   92    0    0    0
SMALL
NO_CHARGES


@<TRIPOS>ATOM
   1 C1            -0.0215     1.4012    -0.0092 C.ar    
   2 C2            -0.0115     0.0036    -0.0052 C.ar    
   3 C3            -1.2094    -0.7019    -0.0160 C.ar    
   4 C4            -2.4097    -0.0268    -0.0310 C.ar    
   5 C5            -2.4267     1.3708    -0.0350 C.ar    
   6 C6            -1.2239     2.0825    -0.0185 C.ar    
   7 N7             1.1998    -0.6830     0.0090 N.3     
   8 C8             1.3075    -1.5362     1.2007 C.3     
   9 C9             1.3717    -1.4731    -1.2181 C.3     
  10 C10            2.7456    -2.1474    -1.1992 C.3     
  11 N11            2.8533    -3.0005    -0.0075 N.3     
  12 C12            2.6814    -2.2105     1.2196 C.3     
  13 C13           -3.7126     2.0937    -0.0516 C.2     
  14 O14           -3.7265     3.3096    -0.0551 O.2     
  15 N15           -4.8720     1.4065    -0.0628 N.am    
  16 N16            1.1866     2.1110     0.0021 N.am    
  17 C17            4.0684    -3.6893     0.0068 C.ar    
  18 C18            1.2296     3.3600     0.5068 C.2     
  19 C19            2.5162     4.0732     0.6000 C.2     
  20 C20            4.0811    -5.0782     0.0108 C.ar    
  21 O21            0.2069     3.8985     0.8853 O.2     
  22 N22            3.7329     3.5991     0.2178 N.2     
  23 C23            4.6244     4.5145     0.4539 C.2     
  24 O24            4.0245     5.5887     0.9859 O.3     
  25 C25            2.7098     5.3324     1.0790 C.2     
  26 C26           -6.1489     2.1244    -0.0793 C.3     
  27 C27           -7.2830     1.1321    -0.0894 C.ar    
  28 C28            6.0998     4.3882     0.1743 C.3     
  29 C29            6.7243     5.3956    -0.7932 C.3     
  30 C30            7.0165     5.4920     0.7055 C.3     
  31 C31            5.2845    -5.7562     0.0244 C.ar    
  32 C32            6.4754    -5.0538     0.0346 C.ar    
  33 C33            6.4663    -3.6708     0.0307 C.ar    
  34 C34            5.2669    -2.9867     0.0112 C.ar    
  35 C35            2.7836    -5.8445     0.0007 C.3     
  36 C36           -7.8166     0.6803     1.1029 C.ar    
  37 C37           -8.8570    -0.2301     1.0936 C.ar    
  38 C38           -9.3638    -0.6882    -0.1079 C.ar    
  39 C39           -8.8307    -0.2356    -1.3005 C.ar    
  40 C40           -7.7934     0.6778    -1.2913 C.ar    
  41 C41           -9.4382    -0.7235     2.3936 C.3     
  42 N42          -10.5390     0.1585     2.8038 N.3     
  43 C43          -11.6633     0.0700     1.8625 C.3     
  44 C44          -10.9742    -0.1449     4.1737 C.3     
  45 C45          -11.9383     0.9412     4.6549 C.3     
  46 H46           -1.1986    -1.7819    -0.0129 H       
  47 H47           -3.3385    -0.5778    -0.0400 H       
  48 H48           -1.2340     3.1625    -0.0213 H       
  49 H49            1.1893    -0.9264     2.0964 H       
  50 H50            0.5287    -2.2984     1.1739 H       
  51 H51            0.5937    -2.2346    -1.2724 H       
  52 H52            1.3004    -0.8173    -2.0858 H       
  53 H53            2.8638    -2.7572    -2.0949 H       
  54 H54            3.5244    -1.3852    -1.1724 H       
  55 H55            3.4594    -1.4490     1.2739 H       
  56 H56            2.7527    -2.8662     2.0873 H       
  57 H57           -4.8609     0.4366    -0.0600 H       
  58 H58            1.9919     1.7035    -0.3534 H       
  59 H59            1.9513     5.9965     1.4664 H       
  60 H60           -6.2239     2.7528     0.8082 H       
  61 H61           -6.2037     2.7479    -0.9716 H       
  62 H62            6.4908     3.3708     0.1632 H       
  63 H63            7.5264     5.0410    -1.4406 H       
  64 H64            6.0679     6.1497    -1.2275 H       
  65 H65            6.5524     6.3095     1.2572 H       
  66 H66            8.0108     5.2009     1.0442 H       
  67 H67            5.2951    -6.8361     0.0275 H       
  68 H68            7.4149    -5.5864     0.0460 H       
  69 H69            7.3983    -3.1252     0.0390 H       
  70 H70            5.2605    -1.9068     0.0078 H       
  71 H71            2.4804    -6.0321    -1.0294 H       
  72 H72            2.9184    -6.7941     0.5184 H       
  73 H73            2.0134    -5.2615     0.5057 H       
  74 H74           -7.4206     1.0382     2.0417 H       
  75 H75          -10.1761    -1.3999    -0.1151 H       
  76 H76           -9.2264    -0.5938    -2.2394 H       
  77 H77           -7.3770     1.0314    -2.2229 H       
  78 H78           -9.8152    -1.7376     2.2614 H       
  79 H79           -8.6648    -0.7205     3.1617 H       
  80 H80          -12.0306    -0.9558     1.8307 H       
  81 H81          -12.4643     0.7328     2.1898 H       
  82 H82          -11.3291     0.3673     0.8685 H       
  83 H83          -11.4785    -1.1112     4.1890 H       
  84 H84          -10.1060    -0.1777     4.8319 H       
  85 H85          -11.4340     1.9074     4.6396 H       
  86 H86          -12.8065     0.9740     3.9967 H       
  87 H87          -12.2612     0.7161     5.6714 H       
@<TRIPOS>BOND
   1    1    2 ar
   2    1   16 1
   3    1    6 ar
   4    2    3 ar
   5    2    7 1
   6    3    4 ar
   7    3   46 1
   8    4    5 ar
   9    4   47 1
  10    5    6 ar
  11    5   13 1
  12    6   48 1
  13    7    8 1
  14    7    9 1
  15    8   12 1
  16    8   49 1
  17    8   50 1
  18    9   10 1
  19    9   51 1
  20    9   52 1
  21   10   11 1
  22   10   53 1
  23   10   54 1
  24   11   12 1
  25   11   17 1
  26   12   55 1
  27   12   56 1
  28   13   14 2
  29   13   15 am
  30   15   26 1
  31   15   57 1
  32   16   18 am
  33   16   58 1
  34   17   20 ar
  35   17   34 ar
  36   18   19 1
  37   18   21 2
  38   19   22 1
  39   19   25 2
  40   20   31 ar
  41   20   35 1
  42   22   23 2
  43   23   24 1
  44   23   28 1
  45   24   25 1
  46   25   59 1
  47   26   27 1
  48   26   60 1
  49   26   61 1
  50   27   36 ar
  51   27   40 ar
  52   28   29 1
  53   28   30 1
  54   28   62 1
  55   29   30 1
  56   29   63 1
  57   29   64 1
  58   30   65 1
  59   30   66 1
  60   31   32 ar
  61   31   67 1
  62   32   33 ar
  63   32   68 1
  64   33   34 ar
  65   33   69 1
  66   34   70 1
  67   35   71 1
  68   35   72 1
  69   35   73 1
  70   36   37 ar
  71   36   74 1
  72   37   38 ar
  73   37   41 1
  74   38   39 ar
  75   38   75 1
  76   39   40 ar
  77   39   76 1
  78   40   77 1
  79   41   42 1
  80   41   78 1
  81   41   79 1
  82   42   43 1
  83   42   44 1
  84   43   80 1
  85   43   81 1
  86   43   82 1
  87   44   45 1
  88   44   83 1
  89   44   84 1
  90   45   85 1
  91   45   86 1
  92   45   87 1

#	End of record

