#	Name: ASD01913062
#	Creating user name:	WinNT
#	Creation time:	15. 06. 2019 20:00

#	Modifying user name:	WinNT
#	Modification time:	15. 06. 2019 20:00

#	Program:	/corina/corina34_cracker 3.40 0067  02.08.2006

@<TRIPOS>MOLECULE
ASD01913062
  43   45    0    0    0
SMALL
NO_CHARGES


@<TRIPOS>ATOM
   1 C1            -0.1114     1.9312    -0.3008 C.3     
   2 C2            -0.0631     0.4018    -0.3271 C.3     
   3 C3            -1.4885    -0.1555    -0.3190 C.3     
   4 C4            -2.1969     0.2839     0.9662 C.3     
   5 N5            -2.1206     1.7474     1.0716 N.am    
   6 C6            -0.8043     2.3942     0.9846 C.3     
   7 C7             1.2917     2.4795    -0.3415 C.2     
   8 N8             1.4953     3.8117    -0.3273 N.am    
   9 C9             2.7986     4.3202    -0.2668 C.ar    
  10 C10            3.8318     3.6646    -0.9230 C.ar    
  11 C11            5.1166     4.1677    -0.8620 C.ar    
  12 C12            5.3748     5.3249    -0.1467 C.ar    
  13 C13            4.3459     5.9800     0.5088 C.ar    
  14 C14            3.0585     5.4838     0.4448 C.ar    
  15 F15            6.6323     5.8152    -0.0879 F       
  16 O16            2.2378     1.7218    -0.3869 O.2     
  17 C17           -3.2369     2.4825     1.2449 C.2     
  18 C18           -4.5612     1.8281     1.2347 C.ar    
  19 O19           -3.1539     3.6842     1.4095 O.2     
  20 C20           -4.7680     0.6535     1.9610 C.ar    
  21 C21           -6.0058     0.0472     1.9485 C.ar    
  22 C22           -7.0447     0.6017     1.2165 C.ar    
  23 C23           -6.8447     1.7676     0.4932 C.ar    
  24 C24           -5.6125     2.3852     0.5034 C.ar    
  25 F25           -8.2560     0.0034     1.2076 F       
  26 H26           -0.6683     2.2925    -1.1654 H       
  27 H27            0.4513     0.0701    -1.2290 H       
  28 H28            0.4731     0.0403     0.5504 H       
  29 H29           -2.0329     0.2254    -1.1830 H       
  30 H30           -1.4537    -1.2441    -0.3612 H       
  31 H31           -3.2414    -0.0260     0.9320 H       
  32 H32           -1.7069    -0.1705     1.8273 H       
  33 H33           -0.2006     2.1119     1.8471 H       
  34 H34           -0.9298     3.4768     0.9624 H       
  35 H35            0.7391     4.4183    -0.3590 H       
  36 H36            3.6310     2.7616    -1.4804 H       
  37 H37            5.9205     3.6581    -1.3723 H       
  38 H38            4.5493     6.8822     1.0665 H       
  39 H39            2.2563     5.9950     0.9562 H       
  40 H40           -3.9594     0.2206     2.5313 H       
  41 H41           -6.1667    -0.8615     2.5096 H       
  42 H42           -7.6572     2.1951    -0.0756 H       
  43 H43           -5.4579     3.2935    -0.0600 H       
@<TRIPOS>BOND
   1    1    2 1
   2    1    7 1
   3    1    6 1
   4    1   26 1
   5    2    3 1
   6    2   27 1
   7    2   28 1
   8    3    4 1
   9    3   29 1
  10    3   30 1
  11    4    5 1
  12    4   31 1
  13    4   32 1
  14    5    6 1
  15    5   17 am
  16    6   33 1
  17    6   34 1
  18    7    8 am
  19    7   16 2
  20    8    9 1
  21    8   35 1
  22    9   10 ar
  23    9   14 ar
  24   10   11 ar
  25   10   36 1
  26   11   12 ar
  27   11   37 1
  28   12   13 ar
  29   12   15 1
  30   13   14 ar
  31   13   38 1
  32   14   39 1
  33   17   18 1
  34   17   19 2
  35   18   20 ar
  36   18   24 ar
  37   20   21 ar
  38   20   40 1
  39   21   22 ar
  40   21   41 1
  41   22   23 ar
  42   22   25 1
  43   23   24 ar
  44   23   42 1
  45   24   43 1

#	End of record

