#	Name: ASD01882445
#	Creating user name:	WinNT
#	Creation time:	15. 06. 2019 19:44

#	Modifying user name:	WinNT
#	Modification time:	15. 06. 2019 19:44

#	Program:	/corina/corina34_cracker 3.40 0067  02.08.2006

@<TRIPOS>MOLECULE
ASD01882445
  55   59    0    0    0
SMALL
NO_CHARGES


@<TRIPOS>ATOM
   1 C1            -0.0170     1.4050     0.0098 C.2     
   2 C2             0.0021    -0.0041     0.0020 C.2     
   3 C3             1.1991    -0.6521    -0.0129 C.2     
   4 C4             2.3930     0.0893    -0.0203 C.2     
   5 C5             2.3588     1.4383    -0.0123 C.2     
   6 N6             1.1665     2.1012     0.0022 N.pl3   
   7 N7            -0.4824     3.4846     0.0225 N.2     
   8 N8            -0.9895     2.3019     0.0186 N.2     
   9 C9             0.8240     3.4179     0.0121 C.2     
  10 C10            1.2438    -2.1584    -0.0209 C.3     
  11 N11            1.3656    -2.6373    -1.4043 N.3     
  12 C12            1.6494    -4.0776    -1.4395 C.3     
  13 C13            1.6252    -4.5684    -2.8889 C.3     
  14 C14            2.6744    -3.8025    -3.6995 C.3     
  15 C15            2.3842    -2.3019    -3.6067 C.3     
  16 C16            2.3864    -1.8769    -2.1365 C.3     
  17 C17            4.0669    -4.0899    -3.1345 C.3     
  18 C18            2.6144    -4.2388    -5.1407 C.ar    
  19 C19            3.4745    -3.6803    -6.0678 C.ar    
  20 C20            3.4207    -4.0800    -7.3896 C.ar    
  21 C21            2.5049    -5.0402    -7.7853 C.ar    
  22 C22            1.6440    -5.5989    -6.8558 C.ar    
  23 C23            1.7032    -5.2014    -5.5335 C.ar    
  24 F24            2.4511    -5.4314    -9.0773 F       
  25 C25            1.7759     4.5862     0.0100 C.3     
  26 C26            2.0856     4.9891    -1.4332 C.3     
  27 C27            2.9459     6.2357    -1.6495 C.3     
  28 C28            3.5319     4.8469    -1.9116 C.3     
  29 Cl29          -1.4832    -0.9027     0.0120 Cl      
  30 H30            3.3434    -0.4236    -0.0322 H       
  31 H31            3.2826     1.9976    -0.0178 H       
  32 H32            2.1017    -2.4995     0.5585 H       
  33 H33            0.3279    -2.5514     0.4204 H       
  34 H34            2.6332    -4.2645    -1.0092 H       
  35 H35            0.8936    -4.6109    -0.8629 H       
  36 H36            1.8513    -5.6343    -2.9160 H       
  37 H37            0.6374    -4.3943    -3.3156 H       
  38 H38            3.1526    -1.7486    -4.1466 H       
  39 H39            1.4084    -2.0922    -4.0447 H       
  40 H40            2.1659    -0.8117    -2.0661 H       
  41 H41            3.3668    -2.0741    -1.7029 H       
  42 H42            4.2704    -5.1590    -3.1958 H       
  43 H43            4.8131    -3.5443    -3.7121 H       
  44 H44            4.1093    -3.7711    -2.0930 H       
  45 H45            4.1884    -2.9311    -5.7591 H       
  46 H46            4.0924    -3.6433    -8.1138 H       
  47 H47            0.9293    -6.3479    -7.1633 H       
  48 H48            1.0346    -5.6400    -4.8076 H       
  49 H49            1.3200     5.4273     0.5322 H       
  50 H50            2.6998     4.3030     0.5143 H       
  51 H51            1.2942     4.7920    -2.1564 H       
  52 H52            2.7208     6.8585    -2.5153 H       
  53 H53            3.2913     6.7687    -0.7637 H       
  54 H54            4.2628     4.4662    -1.1982 H       
  55 H55            3.6923     4.5560    -2.9497 H       
@<TRIPOS>BOND
   1    1    2 1
   2    1    6 1
   3    1    8 2
   4    2    3 2
   5    2   29 1
   6    3    4 1
   7    3   10 1
   8    4    5 2
   9    4   30 1
  10    5    6 1
  11    5   31 1
  12    6    9 1
  13    7    8 1
  14    7    9 2
  15    9   25 1
  16   10   11 1
  17   10   32 1
  18   10   33 1
  19   11   12 1
  20   11   16 1
  21   12   13 1
  22   12   34 1
  23   12   35 1
  24   13   14 1
  25   13   36 1
  26   13   37 1
  27   14   15 1
  28   14   17 1
  29   14   18 1
  30   15   16 1
  31   15   38 1
  32   15   39 1
  33   16   40 1
  34   16   41 1
  35   17   42 1
  36   17   43 1
  37   17   44 1
  38   18   19 ar
  39   18   23 ar
  40   19   20 ar
  41   19   45 1
  42   20   21 ar
  43   20   46 1
  44   21   22 ar
  45   21   24 1
  46   22   23 ar
  47   22   47 1
  48   23   48 1
  49   25   26 1
  50   25   49 1
  51   25   50 1
  52   26   27 1
  53   26   28 1
  54   26   51 1
  55   27   28 1
  56   27   52 1
  57   27   53 1
  58   28   54 1
  59   28   55 1

#	End of record

