#	Name: ASD01913595
#	Creating user name:	WinNT
#	Creation time:	15. 06. 2019 20:01

#	Modifying user name:	WinNT
#	Modification time:	15. 06. 2019 20:01

#	Program:	/corina/corina34_cracker 3.40 0067  02.08.2006

@<TRIPOS>MOLECULE
ASD01913595
  35   37    0    0    0
SMALL
NO_CHARGES


@<TRIPOS>ATOM
   1 C1            -2.8027     0.2910    -1.2491 C.ar    
   2 C2            -2.2965    -0.1536    -0.0320 C.ar    
   3 C3            -3.0899    -0.0145     1.1022 C.ar    
   4 N4            -4.2889     0.5316     0.9839 N.ar    
   5 C5            -4.7332     0.9407    -0.1874 C.ar    
   6 N6            -4.0118     0.8263    -1.2844 N.ar    
   7 C7            -0.9722    -2.0618     0.1318 C.ar    
   8 C8             0.2659    -2.6936     0.2069 C.ar    
   9 C9             0.3173    -4.0732     0.2982 C.ar    
  10 N10           -0.7845    -4.7923     0.3146 N.ar    
  11 C11           -1.9869    -4.2319     0.2451 C.ar    
  12 C12           -2.1200    -2.8506     0.1519 C.ar    
  13 C13           -3.1971    -5.0860     0.2673 C.2     
  14 N14           -3.0752    -6.4252     0.3575 N.am    
  15 O15           -1.0589    -0.7099     0.0469 O.3     
  16 O16           -4.2997    -4.5792     0.2040 O.2     
  17 C17           -4.2115    -7.2211     0.4844 C.ar    
  18 C18           -4.0838    -8.5914     0.6938 C.ar    
  19 N19           -5.1627    -9.3420     0.8139 N.ar    
  20 C20           -6.3634    -8.7938     0.7356 C.ar    
  21 C21           -6.4938    -7.4332     0.5272 C.ar    
  22 N22           -5.4178    -6.6743     0.4114 N.ar    
  23 C23           -7.8647    -6.8137     0.4378 C.3     
  24 H24           -2.2153     0.2044    -2.1513 H       
  25 H25           -2.7323    -0.3479     2.0652 H       
  26 H26           -5.7167     1.3825    -0.2502 H       
  27 H27            1.1766    -2.1132     0.1935 H       
  28 H28            1.2760    -4.5671     0.3566 H       
  29 H29           -3.0984    -2.3966     0.0955 H       
  30 H30           -2.1962    -6.8349     0.3341 H       
  31 H31           -3.1033    -9.0397     0.7575 H       
  32 H32           -7.2445    -9.4105     0.8343 H       
  33 H33           -8.1910    -6.5084     1.4320 H       
  34 H34           -7.8277    -5.9424    -0.2160 H       
  35 H35           -8.5669    -7.5424     0.0327 H       
@<TRIPOS>BOND
   1    1    2 ar
   2    1    6 ar
   3    1   24 1
   4    2    3 ar
   5    2   15 1
   6    3    4 ar
   7    3   25 1
   8    4    5 ar
   9    5    6 ar
  10    5   26 1
  11    7    8 ar
  12    7   12 ar
  13    7   15 1
  14    8    9 ar
  15    8   27 1
  16    9   10 ar
  17    9   28 1
  18   10   11 ar
  19   11   12 ar
  20   11   13 1
  21   12   29 1
  22   13   14 am
  23   13   16 2
  24   14   17 1
  25   14   30 1
  26   17   18 ar
  27   17   22 ar
  28   18   19 ar
  29   18   31 1
  30   19   20 ar
  31   20   21 ar
  32   20   32 1
  33   21   22 ar
  34   21   23 1
  35   23   33 1
  36   23   34 1
  37   23   35 1

#	End of record

