#	Name: ASD05490002
#	Creating user name:	WinNT
#	Creation time:	15. 06. 2019 21:00

#	Modifying user name:	WinNT
#	Modification time:	15. 06. 2019 21:00

#	Program:	/corina/corina34_cracker 3.40 0067  02.08.2006

@<TRIPOS>MOLECULE
ASD05490002
  70   74    0    0    0
SMALL
NO_CHARGES


@<TRIPOS>ATOM
   1 N1            -0.5648     1.7063     0.5645 N.ar    
   2 C2            -0.6052     0.3790     0.5111 C.ar    
   3 C3             0.5819     2.3614     0.4573 C.ar    
   4 N4             1.7369     1.7403     0.2932 N.ar    
   5 C5             1.7884     0.4138     0.2289 C.ar    
   6 C6             0.5984    -0.3229     0.3376 C.ar    
   7 N7            -1.8085    -0.2973     0.6245 N.pl3   
   8 N8             2.7956    -0.5087     0.0695 N.pl3   
   9 C9             2.2211    -1.7490     0.0834 C.2     
  10 N10            0.9285    -1.6369     0.2413 N.2     
  11 C11            4.2226    -0.2161    -0.0867 C.3     
  12 C12            4.8787    -0.1771     1.2694 C.ar    
  13 C13            5.4112    -1.3324     1.8120 C.ar    
  14 C14            6.0150    -1.3039     3.0564 C.ar    
  15 C15            6.0885    -0.1212     3.7635 C.ar    
  16 C16            5.5535     1.0460     3.2216 C.ar    
  17 C17            4.9521     1.0127     1.9654 C.ar    
  18 C18            5.6295     2.3208     3.9773 C.ar    
  19 C19            5.0995     2.4040     5.2630 C.ar    
  20 C20            5.1729     3.5925     5.9615 C.ar    
  21 C21            5.7708     4.6993     5.3870 C.ar    
  22 C22            6.2984     4.6224     4.1104 C.ar    
  23 C23            6.2364     3.4375     3.4057 C.ar    
  24 C24            4.4468     1.1991     5.8899 C.3     
  25 N25            3.1389     0.9684     5.2620 N.3     
  26 C26            2.2933     2.1787     5.3390 C.3     
  27 C27            2.4270    -0.1441     5.9172 C.3     
  28 C28            1.0673     0.4039     6.3992 C.3     
  29 C29            0.8480     1.6425     5.4912 C.3     
  30 O30            0.5699     3.7154     0.5177 O.3     
  31 C31           -1.6887     8.0566     0.9739 C.3     
  32 C32           -1.8744     6.5385     0.9298 C.3     
  33 C33           -0.5145     5.8637     0.7395 C.3     
  34 C34           -0.7002     4.3457     0.6954 C.3     
  35 O35            2.8907    -2.9183    -0.0464 O.3     
  36 C36            2.1151    -4.1179    -0.0069 C.3     
  37 H37           -2.6339     0.1980     0.7444 H       
  38 H38           -1.8260    -1.2663     0.5841 H       
  39 H39            4.6884    -0.9925    -0.6935 H       
  40 H40            4.3438     0.7499    -0.5768 H       
  41 H41            5.3552    -2.2604     1.2623 H       
  42 H42            6.4292    -2.2090     3.4754 H       
  43 H43            6.5594    -0.1001     4.7352 H       
  44 H44            4.5359     1.9144     1.5408 H       
  45 H45            4.7623     3.6581     6.9582 H       
  46 H46            5.8258     5.6272     5.9368 H       
  47 H47            6.7639     5.4899     3.6664 H       
  48 H48            6.6486     3.3785     2.4092 H       
  49 H49            5.0802     0.3245     5.7419 H       
  50 H50            4.3116     1.3733     6.9574 H       
  51 H51            2.5685     2.7793     6.2060 H       
  52 H52            2.3862     2.7653     4.4250 H       
  53 H53            2.2690    -0.9540     5.2049 H       
  54 H54            3.0047    -0.5038     6.7687 H       
  55 H55            0.2784    -0.3321     6.2442 H       
  56 H56            1.1203     0.6988     7.4472 H       
  57 H57            0.2085     2.3771     5.9806 H       
  58 H58            0.4362     1.3505     4.5252 H       
  59 H59           -2.6575     8.5374     1.1094 H       
  60 H60           -1.0337     8.3185     1.8048 H       
  61 H61           -1.2426     8.3954     0.0388 H       
  62 H62           -2.3204     6.1998     1.8649 H       
  63 H63           -2.5294     6.2766     0.0989 H       
  64 H64           -0.0684     6.2025    -0.1956 H       
  65 H65            0.1405     6.1256     1.5704 H       
  66 H66           -1.3552     4.0837    -0.1355 H       
  67 H67           -1.1463     4.0069     1.6305 H       
  68 H68            2.7726    -4.9796    -0.1219 H       
  69 H69            1.5947    -4.1828     0.9487 H       
  70 H70            1.3863    -4.1062    -0.8174 H       
@<TRIPOS>BOND
   1    1    2 ar
   2    1    3 ar
   3    2    7 1
   4    2    6 ar
   5    3    4 ar
   6    3   30 1
   7    4    5 ar
   8    5    6 ar
   9    5    8 1
  10    6   10 1
  11    7   37 1
  12    7   38 1
  13    8    9 1
  14    8   11 1
  15    9   10 2
  16    9   35 1
  17   11   12 1
  18   11   39 1
  19   11   40 1
  20   12   13 ar
  21   12   17 ar
  22   13   14 ar
  23   13   41 1
  24   14   15 ar
  25   14   42 1
  26   15   16 ar
  27   15   43 1
  28   16   17 ar
  29   16   18 1
  30   17   44 1
  31   18   19 ar
  32   18   23 ar
  33   19   20 ar
  34   19   24 1
  35   20   21 ar
  36   20   45 1
  37   21   22 ar
  38   21   46 1
  39   22   23 ar
  40   22   47 1
  41   23   48 1
  42   24   25 1
  43   24   49 1
  44   24   50 1
  45   25   27 1
  46   25   26 1
  47   26   29 1
  48   26   51 1
  49   26   52 1
  50   27   28 1
  51   27   53 1
  52   27   54 1
  53   28   29 1
  54   28   55 1
  55   28   56 1
  56   29   57 1
  57   29   58 1
  58   30   34 1
  59   31   32 1
  60   31   59 1
  61   31   60 1
  62   31   61 1
  63   32   33 1
  64   32   62 1
  65   32   63 1
  66   33   34 1
  67   33   64 1
  68   33   65 1
  69   34   66 1
  70   34   67 1
  71   35   36 1
  72   36   68 1
  73   36   69 1
  74   36   70 1

#	End of record

