#	Name: ASD07260001
#	Creating user name:	WinNT
#	Creation time:	15. 06. 2019 21:09

#	Modifying user name:	WinNT
#	Modification time:	15. 06. 2019 21:09

#	Program:	/corina/corina34_cracker 3.40 0067  02.08.2006

@<TRIPOS>MOLECULE
ASD07260001
  24   23    0    0    0
SMALL
NO_CHARGES


@<TRIPOS>ATOM
   1 O1            -0.0161     1.3381     0.0094 O.3     
   2 O2             1.0565    -0.5939    -0.0112 O.2     
   3 O3            -5.4747    -1.2550     2.6292 O.3     
   4 O4            -0.8238    -2.2282    -2.2113 O.2     
   5 O5            -3.7529    -0.0409     3.2961 O.2     
   6 N6            -1.0054    -2.2118    -0.0002 N.am    
   7 C7            -1.2926    -0.7753     0.0102 C.3     
   8 C8            -2.0879    -0.4233     1.2690 C.3     
   9 C9            -3.4547    -1.1090     1.2171 C.3     
  10 C10            0.0021    -0.0041     0.0020 C.2     
  11 C11           -0.7847    -2.8464    -1.1686 C.2     
  12 C12           -4.2380    -0.7623     2.4570 C.2     
  13 C13           -0.4893    -4.3241    -1.1793 C.3     
  14 H14           -1.8762    -0.5150    -0.8728 H       
  15 H15           -1.5436    -0.7641     2.1498 H       
  16 H16           -2.2250     0.6567     1.3221 H       
  17 H17           -3.9989    -0.7681     0.3364 H       
  18 H18           -3.3176    -2.1890     1.1641 H       
  19 H19           -0.9742    -2.7062     0.8337 H       
  20 H20            0.5867    -4.4801    -1.1009 H       
  21 H21           -0.9880    -4.8005    -0.3353 H       
  22 H22           -0.8528    -4.7605    -2.1096 H       
  23 H23            0.8394     1.7888     0.0037 H       
  24 H24           -5.9379    -1.0047     3.4403 H       
@<TRIPOS>BOND
   1    1   10 1
   2    1   23 1
   3    2   10 2
   4    3   12 1
   5    3   24 1
   6    4   11 2
   7    5   12 2
   8    6   11 am
   9    6   19 1
  10    6    7 1
  11    7    8 1
  12    7   10 1
  13    7   14 1
  14    8    9 1
  15    8   15 1
  16    8   16 1
  17    9   12 1
  18    9   17 1
  19    9   18 1
  20   11   13 1
  21   13   20 1
  22   13   21 1
  23   13   22 1

#	End of record

