#	Name: ASD03091355
#	Creating user name:	WinNT
#	Creation time:	15. 06. 2019 20:30

#	Modifying user name:	WinNT
#	Modification time:	15. 06. 2019 20:30

#	Program:	/corina/corina34_cracker 3.40 0067  02.08.2006

@<TRIPOS>MOLECULE
ASD03091355
  51   54    0    0    0
SMALL
NO_CHARGES


@<TRIPOS>ATOM
   1 N1            -0.0163     1.3531     0.1045 N.am    
   2 C2             0.0021    -0.0050     0.0466 C.2     
   3 N3            -1.0720    -0.7327     0.0073 N.2     
   4 C4            -2.3097    -0.1761     0.0215 C.ar    
   5 C5            -2.4269     1.2304     0.0807 C.ar    
   6 C6            -1.1907     2.0254     0.1298 C.2     
   7 O7            -1.2224     3.2412     0.1817 O.2     
   8 C8            -3.4649    -0.9600    -0.0214 C.ar    
   9 C9            -4.6934    -0.3638    -0.0058 C.ar    
  10 C10           -4.8150     1.0245     0.0526 C.ar    
  11 C11           -3.6863     1.8253     0.0960 C.ar    
  12 N12           -6.0837     1.6107     0.0669 N.3     
  13 C13            1.2461     2.0952     0.1459 C.3     
  14 C14           -5.9909     3.0605     0.2766 C.3     
  15 C15           -6.8159     1.3121    -1.1718 C.3     
  16 C16           -8.2887     1.0742    -0.8735 C.3     
  17 C17           -9.0483     2.3432    -0.5435 C.3     
  18 N18           -8.2017     3.5353    -0.6944 N.3     
  19 C19           -7.3521     3.7026     0.4945 C.3     
  20 C20           -6.5735     2.4258    -2.1740 C.3     
  21 C21           -7.5295     3.5904    -1.9749 C.3     
  22 C22            1.3384    -0.7015     0.0267 C.3     
  23 C23            1.6967     2.4151    -1.2809 C.3     
  24 O24            0.7564     3.3023    -1.8897 O.3     
  25 C25            1.0854     3.6661    -3.2319 C.3     
  26 H26           -3.3867    -2.0362    -0.0671 H       
  27 H27           -5.5828    -0.9754    -0.0395 H       
  28 H28           -3.7814     2.9002     0.1412 H       
  29 H29            1.1038     3.0238     0.6987 H       
  30 H30            2.0068     1.4910     0.6402 H       
  31 H31           -5.3665     3.2518     1.1493 H       
  32 H32           -5.5222     3.5142    -0.5967 H       
  33 H33           -6.4038     0.3958    -1.5944 H       
  34 H34           -8.7503     0.6068    -1.7433 H       
  35 H35           -8.3680     0.3897    -0.0290 H       
  36 H36           -9.9055     2.4286    -1.2113 H       
  37 H37           -9.4043     2.2875     0.4852 H       
  38 H38           -7.8370     3.2345     1.3511 H       
  39 H39           -7.2197     4.7659     0.6945 H       
  40 H40           -5.5502     2.7847    -2.0642 H       
  41 H41           -6.7023     2.0300    -3.1815 H       
  42 H42           -8.2773     3.5735    -2.7677 H       
  43 H43           -6.9689     4.5230    -2.0400 H       
  44 H44            1.6530    -0.9133     1.0486 H       
  45 H45            1.2529    -1.6359    -0.5281 H       
  46 H46            2.0757    -0.0592    -0.4548 H       
  47 H47            2.6783     2.8883    -1.2544 H       
  48 H48            1.7534     1.4930    -1.8593 H       
  49 H49            2.0543     4.1653    -3.2459 H       
  50 H50            1.1294     2.7700    -3.8509 H       
  51 H51            0.3235     4.3405    -3.6227 H       
@<TRIPOS>BOND
   1    1    2 1
   2    1   13 1
   3    1    6 am
   4    2    3 2
   5    2   22 1
   6    3    4 1
   7    4    5 ar
   8    4    8 ar
   9    5    6 1
  10    5   11 ar
  11    6    7 2
  12    8    9 ar
  13    8   26 1
  14    9   10 ar
  15    9   27 1
  16   10   11 ar
  17   10   12 1
  18   11   28 1
  19   12   15 1
  20   12   14 1
  21   13   23 1
  22   13   29 1
  23   13   30 1
  24   14   19 1
  25   14   31 1
  26   14   32 1
  27   15   16 1
  28   15   20 1
  29   15   33 1
  30   16   17 1
  31   16   34 1
  32   16   35 1
  33   17   18 1
  34   17   36 1
  35   17   37 1
  36   18   19 1
  37   18   21 1
  38   19   38 1
  39   19   39 1
  40   20   21 1
  41   20   40 1
  42   20   41 1
  43   21   42 1
  44   21   43 1
  45   22   44 1
  46   22   45 1
  47   22   46 1
  48   23   24 1
  49   23   47 1
  50   23   48 1
  51   24   25 1
  52   25   49 1
  53   25   50 1
  54   25   51 1

#	End of record

