#	Name: ASD01150161
#	Creating user name:	WinNT
#	Creation time:	15. 06. 2019 19:03

#	Modifying user name:	WinNT
#	Modification time:	15. 06. 2019 19:03

#	Program:	/corina/corina34_cracker 3.40 0067  02.08.2006

@<TRIPOS>MOLECULE
ASD01150161
  46   48    0    0    0
SMALL
NO_CHARGES


@<TRIPOS>ATOM
   1 N1             0.3698     1.4079     0.9219 N.pl3   
   2 C2             0.2876     0.0816     0.5476 C.2     
   3 C3            -1.0358    -0.1393     0.1874 C.2     
   4 N4            -1.6879     1.0149     0.3486 N.2     
   5 C5            -0.8641     1.9319     0.7881 C.2     
   6 C6             1.2084    -0.9855     0.4713 C.2     
   7 N7             0.7823    -2.1946     0.0505 N.am    
   8 C8            -0.5012    -2.3942    -0.2954 C.2     
   9 N9            -1.4113    -1.4038    -0.2367 N.am    
  10 O10            2.3742    -0.8167     0.7812 O.2     
  11 C11           -2.8005    -1.6632    -0.6227 C.3     
  12 O12           -0.8492    -3.4974    -0.6704 O.2     
  13 C13            1.7328    -3.3064    -0.0310 C.3     
  14 C14            2.4992    -3.2182    -1.3256 C.ar    
  15 C15            3.7195    -2.5706    -1.3632 C.ar    
  16 C16            4.4232    -2.4893    -2.5504 C.ar    
  17 C17            3.9058    -3.0557    -3.7016 C.ar    
  18 C18            2.6842    -3.7040    -3.6645 C.ar    
  19 C19            1.9835    -3.7904    -2.4752 C.ar    
  20 C20           -1.2371     3.3607     1.0890 C.3     
  21 C21           -1.6787     3.4759     2.5493 C.3     
  22 C22            1.5698     2.1104     1.3832 C.3     
  23 C23           -3.5939    -2.1188     0.6036 C.3     
  24 C24           -5.0448    -2.3898     0.2005 C.3     
  25 Cl25           4.7890    -2.9524    -5.1926 Cl      
  26 Cl26           0.4509    -4.6042    -2.4275 Cl      
  27 H27           -3.2427    -0.7510    -1.0232 H       
  28 H28           -2.8266    -2.4438    -1.3830 H       
  29 H29            2.4277    -3.2525     0.8070 H       
  30 H30            1.1908    -4.2513     0.0066 H       
  31 H31            4.1235    -2.1277    -0.4649 H       
  32 H32            5.3768    -1.9831    -2.5792 H       
  33 H33            2.2799    -4.1463    -4.5630 H       
  34 H34           -0.3745     4.0050     0.9184 H       
  35 H35           -2.0546     3.6679     0.4368 H       
  36 H36           -2.5413     2.8316     2.7199 H       
  37 H37           -0.8612     3.1687     3.2015 H       
  38 H38           -1.9485     4.5093     2.7669 H       
  39 H39            2.0878     2.5447     0.5281 H       
  40 H40            1.2836     2.9025     2.0752 H       
  41 H41            2.2307     1.4069     1.8895 H       
  42 H42           -3.1517    -3.0310     1.0041 H       
  43 H43           -3.5678    -1.3382     1.3639 H       
  44 H44           -5.0709    -3.1704    -0.5598 H       
  45 H45           -5.6101    -2.7144     1.0741 H       
  46 H46           -5.4870    -1.4776    -0.2001 H       
@<TRIPOS>BOND
   1    1    2 1
   2    1   22 1
   3    1    5 1
   4    2    3 2
   5    2    6 1
   6    3    4 1
   7    3    9 1
   8    4    5 2
   9    5   20 1
  10    6    7 am
  11    6   10 2
  12    7    8 am
  13    7   13 1
  14    8    9 am
  15    8   12 2
  16    9   11 1
  17   11   23 1
  18   11   27 1
  19   11   28 1
  20   13   14 1
  21   13   29 1
  22   13   30 1
  23   14   15 ar
  24   14   19 ar
  25   15   16 ar
  26   15   31 1
  27   16   17 ar
  28   16   32 1
  29   17   18 ar
  30   17   25 1
  31   18   19 ar
  32   18   33 1
  33   19   26 1
  34   20   21 1
  35   20   34 1
  36   20   35 1
  37   21   36 1
  38   21   37 1
  39   21   38 1
  40   22   39 1
  41   22   40 1
  42   22   41 1
  43   23   24 1
  44   23   42 1
  45   23   43 1
  46   24   44 1
  47   24   45 1
  48   24   46 1

#	End of record

