#	Name: ASD02500264
#	Creating user name:	WinNT
#	Creation time:	15. 06. 2019 20:22

#	Modifying user name:	WinNT
#	Modification time:	15. 06. 2019 20:22

#	Program:	/corina/corina34_cracker 3.40 0067  02.08.2006

@<TRIPOS>MOLECULE
ASD02500264
  66   70    0    0    0
SMALL
NO_CHARGES


@<TRIPOS>ATOM
   1 N1            -3.4409     5.6539    -0.2370 N.ar    
   2 C2            -4.5357     6.3146    -0.5254 C.ar    
   3 C3            -5.7044     6.1565     0.2166 C.ar    
   4 C4            -5.7282     5.2942     1.2754 C.ar    
   5 C5            -4.5508     4.5861     1.5819 C.ar    
   6 C6            -4.4991     3.6830     2.6555 C.ar    
   7 C7            -3.3409     3.0175     2.9199 C.ar    
   8 C8            -2.2053     3.2210     2.1390 C.ar    
   9 C9            -2.2200     4.0889     1.0907 C.ar    
  10 C10           -3.3968     4.7947     0.7862 C.ar    
  11 S11           -0.7692     4.3278     0.1198 S.o2    
  12 O12           -0.5636     5.7318     0.0442 O.2     
  13 O13            0.2052     3.4257     0.6258 O.2     
  14 N14           -1.1199     3.8231    -1.4179 N.am    
  15 C15           -1.3388     2.4715    -1.6745 C.ar    
  16 C16           -0.9737     1.9281    -2.9080 C.ar    
  17 C17           -1.1902     0.5893    -3.1629 C.ar    
  18 C18           -1.7754    -0.2203    -2.1841 C.ar    
  19 C19           -2.1387     0.3290    -0.9520 C.ar    
  20 C20           -1.9152     1.6648    -0.7002 C.ar    
  21 C21           -2.0093    -1.6520    -2.4525 C.2     
  22 O22           -2.4354    -2.0059    -3.5349 O.2     
  23 N23           -1.7505    -2.5676    -1.4979 N.am    
  24 C24           -1.8928    -4.0028    -1.7800 C.3     
  25 C25           -0.5676    -4.7009    -1.4497 C.3     
  26 N26           -0.1377    -4.2819    -0.1083 N.am    
  27 C27            0.0045    -2.8466     0.1738 C.3     
  28 C28           -1.3152    -2.1488    -0.1582 C.3     
  29 C29            0.1210    -5.1975     0.8463 C.2     
  30 C30            0.6634    -4.7696     2.1533 C.ar    
  31 C31            0.0268    -5.1404     3.3441 C.ar    
  32 C32            0.5750    -4.7145     4.5409 C.ar    
  33 C33            1.7235    -3.9433     4.5231 C.ar    
  34 N34            2.3017    -3.6087     3.3854 N.ar    
  35 C35            1.8214    -3.9944     2.2214 C.ar    
  36 O36           -0.0915    -6.3750     0.6325 O.2     
  37 C37           -1.2236    -5.9814     3.3226 C.3     
  38 F38           -1.6552    -6.2088     4.6338 F       
  39 F39           -2.2246    -5.3106     2.6119 F       
  40 F40           -0.9517    -7.2055     2.7023 F       
  41 O41           -0.4052     2.7182    -3.8580 O.3     
  42 C42           -0.0569     2.0956    -5.0962 C.3     
  43 H43           -4.5316     7.0000    -1.3600 H       
  44 H44           -6.5906     6.7156    -0.0452 H       
  45 H45           -6.6253     5.1596     1.8615 H       
  46 H46           -5.3728     3.5174     3.2684 H       
  47 H47           -3.3021     2.3229     3.7461 H       
  48 H48           -1.2984     2.6815     2.3694 H       
  49 H49           -1.1728     4.4686    -2.1400 H       
  50 H50           -0.9087     0.1677    -4.1165 H       
  51 H51           -2.5907    -0.2947    -0.1950 H       
  52 H52           -2.1924     2.0871     0.2543 H       
  53 H53           -2.6893    -4.4196    -1.1637 H       
  54 H54           -2.1292    -4.1468    -2.8343 H       
  55 H55           -0.7090    -5.7815    -1.4677 H       
  56 H56            0.1882    -4.4161    -2.1817 H       
  57 H57            0.2410    -2.7026     1.2280 H       
  58 H58            0.8011    -2.4298    -0.4426 H       
  59 H59           -1.1704    -1.0686    -0.1416 H       
  60 H60           -2.0697    -2.4305     0.5763 H       
  61 H61            0.1111    -4.9809     5.4791 H       
  62 H62            2.1537    -3.6094     5.4558 H       
  63 H63            2.3256    -3.7041     1.3115 H       
  64 H64            0.6611     1.2965    -4.9118 H       
  65 H65           -0.9523     1.6800    -5.5584 H       
  66 H66            0.3861     2.8354    -5.7629 H       
@<TRIPOS>BOND
   1    1    2 ar
   2    1   10 ar
   3    2    3 ar
   4    2   43 1
   5    3    4 ar
   6    3   44 1
   7    4    5 ar
   8    4   45 1
   9    5    6 ar
  10    5   10 ar
  11    6    7 ar
  12    6   46 1
  13    7    8 ar
  14    7   47 1
  15    8    9 ar
  16    8   48 1
  17    9   10 ar
  18    9   11 1
  19   11   12 2
  20   11   13 2
  21   11   14 am
  22   14   15 1
  23   14   49 1
  24   15   16 ar
  25   15   20 ar
  26   16   17 ar
  27   16   41 1
  28   17   18 ar
  29   17   50 1
  30   18   19 ar
  31   18   21 1
  32   19   20 ar
  33   19   51 1
  34   20   52 1
  35   21   22 2
  36   21   23 am
  37   23   24 1
  38   23   28 1
  39   24   25 1
  40   24   53 1
  41   24   54 1
  42   25   26 1
  43   25   55 1
  44   25   56 1
  45   26   27 1
  46   26   29 am
  47   27   28 1
  48   27   57 1
  49   27   58 1
  50   28   59 1
  51   28   60 1
  52   29   30 1
  53   29   36 2
  54   30   31 ar
  55   30   35 ar
  56   31   32 ar
  57   31   37 1
  58   32   33 ar
  59   32   61 1
  60   33   34 ar
  61   33   62 1
  62   34   35 ar
  63   35   63 1
  64   37   38 1
  65   37   39 1
  66   37   40 1
  67   41   42 1
  68   42   64 1
  69   42   65 1
  70   42   66 1

#	End of record

