#	Name: ASD02560156
#	Creating user name:	WinNT
#	Creation time:	15. 06. 2019 20:24

#	Modifying user name:	WinNT
#	Modification time:	15. 06. 2019 20:24

#	Program:	/corina/corina34_cracker 3.40 0067  02.08.2006

@<TRIPOS>MOLECULE
ASD02560156
  60   63    0    0    0
SMALL
NO_CHARGES


@<TRIPOS>ATOM
   1 N1             0.3341     0.5427     1.0435 N.2     
   2 N2             0.2988    -0.6863     1.1589 N.2     
   3 C3             1.7175     1.0356     1.0302 C.3     
   4 N4             2.5262    -0.0924     1.5577 N.3     
   5 C5             1.6518    -1.2509     1.2449 C.3     
   6 S6             1.7384    -2.4842     2.5724 S.3     
   7 C7             1.1625    -1.5620     4.0244 C.3     
   8 C8             1.1768    -2.4647     5.2310 C.2     
   9 O9             1.5398    -3.6169     5.1221 O.2     
  10 N10            0.7863    -1.9918     6.4311 N.am    
  11 C11            3.7445    -0.1904     0.8868 C.ar    
  12 C12            0.7777    -2.8365     7.5472 C.ar    
  13 C13           -0.1252    -2.6160     8.5808 C.ar    
  14 C14           -0.1310    -3.4524     9.6808 C.ar    
  15 C15            0.7603    -4.5075     9.7534 C.ar    
  16 C16            1.6593    -4.7290     8.7268 C.ar    
  17 C17            1.6670    -3.8998     7.6217 C.ar    
  18 Cl18          -1.2436    -1.2914     8.4901 Cl      
  19 S19            0.7503    -5.5714    11.1579 S.o2    
  20 O20            2.0434    -6.1565    11.2273 O.2     
  21 O21            0.1767    -4.8252    12.2225 O.2     
  22 C22            4.0977    -1.3864     0.2240 C.ar    
  23 C23            4.6108     0.8810     0.8605 C.ar    
  24 C24            5.8296     0.7964     0.1942 C.ar    
  25 C25            6.1988    -0.3459    -0.4492 C.ar    
  26 C26            5.3415    -1.4579    -0.4494 C.ar    
  27 C27            5.6943    -2.6533    -1.1047 C.ar    
  28 C28            4.8123    -3.6951    -1.0639 C.ar    
  29 C29            3.6028    -3.5557    -0.3864 C.ar    
  30 N30            3.2796    -2.4421     0.2251 N.ar    
  31 N31           -0.3044    -6.8054    10.8306 N.am    
  32 C32            2.1476     1.3776    -0.3977 C.3     
  33 F33            1.1872     2.2059    -0.9883 F       
  34 F34            3.3796     2.0397    -0.3677 F       
  35 C35            7.5234    -0.4143    -1.1647 C.3     
  36 C36            4.2335     2.1604     1.5618 C.3     
  37 C37            2.6426    -4.7168    -0.3526 C.3     
  38 H38            1.8159     1.9079     1.6764 H       
  39 H39            1.9384    -1.6966     0.2924 H       
  40 H40            1.8212    -0.7113     4.1993 H       
  41 H41            0.1475    -1.2055     3.8493 H       
  42 H42            0.5111    -1.0660     6.5214 H       
  43 H43           -0.8318    -3.2818    10.4846 H       
  44 H44            2.3541    -5.5536     8.7870 H       
  45 H45            2.3697    -4.0737     6.8203 H       
  46 H46            6.4922     1.6492     0.1868 H       
  47 H47            6.6362    -2.7436    -1.6255 H       
  48 H48            5.0519    -4.6258    -1.5565 H       
  49 H49           -0.1604    -7.6825    11.2191 H       
  50 H50           -1.0663    -6.6512    10.2503 H       
  51 H51            2.2423     0.4599    -0.9782 H       
  52 H52            8.2899    -0.7708    -0.4767 H       
  53 H53            7.4454    -1.0996    -2.0087 H       
  54 H54            7.7927     0.5782    -1.5261 H       
  55 H55            4.4811     2.0812     2.6203 H       
  56 H56            4.7833     2.9920     1.1212 H       
  57 H57            3.1630     2.3333     1.4510 H       
  58 H58            2.8545    -5.3383     0.5174 H       
  59 H59            1.6210    -4.3417    -0.2910 H       
  60 H60            2.7578    -5.3100    -1.2597 H       
@<TRIPOS>BOND
   1    1    2 2
   2    1    3 1
   3    2    5 1
   4    3    4 1
   5    3   32 1
   6    3   38 1
   7    4    5 1
   8    4   11 1
   9    5    6 1
  10    5   39 1
  11    6    7 1
  12    7    8 1
  13    7   40 1
  14    7   41 1
  15    8    9 2
  16    8   10 am
  17   10   12 1
  18   10   42 1
  19   11   22 ar
  20   11   23 ar
  21   12   13 ar
  22   12   17 ar
  23   13   14 ar
  24   13   18 1
  25   14   15 ar
  26   14   43 1
  27   15   16 ar
  28   15   19 1
  29   16   17 ar
  30   16   44 1
  31   17   45 1
  32   19   20 2
  33   19   21 2
  34   19   31 am
  35   22   26 ar
  36   22   30 ar
  37   23   24 ar
  38   23   36 1
  39   24   25 ar
  40   24   46 1
  41   25   26 ar
  42   25   35 1
  43   26   27 ar
  44   27   28 ar
  45   27   47 1
  46   28   29 ar
  47   28   48 1
  48   29   30 ar
  49   29   37 1
  50   31   49 1
  51   31   50 1
  52   32   33 1
  53   32   34 1
  54   32   51 1
  55   35   52 1
  56   35   53 1
  57   35   54 1
  58   36   55 1
  59   36   56 1
  60   36   57 1
  61   37   58 1
  62   37   59 1
  63   37   60 1

#	End of record

