#	Name: ASD05730089
#	Creating user name:	WinNT
#	Creation time:	15. 06. 2019 21:02

#	Modifying user name:	WinNT
#	Modification time:	15. 06. 2019 21:02

#	Program:	/corina/corina34_cracker 3.40 0067  02.08.2006

@<TRIPOS>MOLECULE
ASD05730089
  77   82    0    0    0
SMALL
NO_CHARGES


@<TRIPOS>ATOM
   1 N1            -0.0423     1.3954     0.0757 N.3     
   2 C2            -0.0208    -0.0037     0.0530 C.ar    
   3 C3            -1.0572    -0.7044    -0.5498 C.ar    
   4 C4            -1.0357    -2.0848    -0.5726 C.ar    
   5 C5             0.0223    -2.7724     0.0074 C.ar    
   6 C6             1.0587    -2.0717     0.6102 C.ar    
   7 C7             1.0399    -0.6913     0.6283 C.ar    
   8 N8             0.0438    -4.1727    -0.0153 N.pl3   
   9 C9             1.2453    -4.8431    -0.1366 C.ar    
  10 N10            1.2512    -6.1641    -0.0423 N.ar    
  11 C11            2.3869    -6.8435    -0.1541 C.ar    
  12 C12            3.5850    -6.1299    -0.3750 C.ar    
  13 C13            3.5258    -4.7312    -0.4674 C.ar    
  14 N14            2.3521    -4.1394    -0.3490 N.ar    
  15 N15            2.4024    -8.2120    -0.0568 N.am    
  16 C16            3.5573    -8.8958    -0.1695 C.2     
  17 C17            4.8176    -8.1864    -0.3990 C.2     
  18 C18            4.8118    -6.8209    -0.4994 C.2     
  19 C19            1.1500    -8.9367     0.1727 C.3     
  20 C20            0.4624    -9.1814    -1.1458 C.ar    
  21 O21            3.5534   -10.1107    -0.0798 O.2     
  22 C22            6.0876    -8.9395    -0.5223 C.ar    
  23 C23            6.3738    -9.6435    -1.6926 C.ar    
  24 C24            7.0044    -8.9430     0.5284 C.ar    
  25 C25            8.1854    -9.6462     0.4078 C.ar    
  26 C26            8.4618   -10.3469    -0.7528 C.ar    
  27 C27            7.5595   -10.3436    -1.8010 C.ar    
  28 C28            1.1441     1.9293     0.7591 C.3     
  29 C29            1.1228     3.4582     0.6928 C.3     
  30 N30           -0.1104     3.9559     1.3184 N.3     
  31 C31           -1.2967     3.4220     0.6350 C.3     
  32 C32           -1.2754     1.8931     0.7013 C.3     
  33 C33           -0.1329     5.4246     1.3422 C.3     
  34 C34           -0.7956    -9.7530    -1.1735 C.ar    
  35 C35           -1.4264    -9.9775    -2.3831 C.ar    
  36 C36           -0.7992    -9.6298    -3.5647 C.ar    
  37 C37            0.4589    -9.0571    -3.5369 C.ar    
  38 C38            1.0877    -8.8287    -2.3274 C.ar    
  39 Cl39           5.2420    -9.6400    -3.0090 Cl      
  40 S40            9.9729   -11.2413    -0.8989 S.o2    
  41 C41            9.5836   -12.8947    -0.2621 C.3     
  42 O42           10.2172   -11.2906    -2.2978 O.2     
  43 O43           10.8654   -10.5668    -0.0226 O.2     
  44 C44           -1.4795   -10.1322     0.1147 C.3     
  45 F45           -2.6814   -10.7888    -0.1710 F       
  46 F46           -0.6477   -10.9819     0.8518 F       
  47 F47           -1.7444    -8.9778     0.8593 F       
  48 H48           -1.8802    -0.1697    -1.0005 H       
  49 H49           -1.8419    -2.6297    -1.0411 H       
  50 H50            1.8815    -2.6065     1.0612 H       
  51 H51            1.8459    -0.1463     1.0971 H       
  52 H52           -0.7851    -4.6717     0.0541 H       
  53 H53            4.4213    -4.1513    -0.6358 H       
  54 H54            5.7310    -6.2797    -0.6684 H       
  55 H55            1.3654    -9.8913     0.6528 H       
  56 H56            0.5003    -8.3444     0.8169 H       
  57 H57            6.7906    -8.3961     1.4348 H       
  58 H58            8.8959    -9.6494     1.2212 H       
  59 H59            7.7807   -10.8927    -2.7043 H       
  60 H60            1.1377     1.6104     1.8014 H       
  61 H61            2.0441     1.5566     0.2699 H       
  62 H62            1.9868     3.8573     1.2241 H       
  63 H63            1.1566     3.7776    -0.3488 H       
  64 H64           -2.1967     3.7946     1.1242 H       
  65 H65           -1.2904     3.7409    -0.4073 H       
  66 H66           -2.1394     1.4939     0.1699 H       
  67 H67           -1.3093     1.5737     1.7429 H       
  68 H68           -0.0802     5.8053     0.3222 H       
  69 H69           -1.0561     5.7662     1.8102 H       
  70 H70            0.7207     5.7919     1.9117 H       
  71 H71           -2.4092   -10.4249    -2.4048 H       
  72 H72           -1.2916    -9.8058    -4.5096 H       
  73 H73            0.9492    -8.7857    -4.4601 H       
  74 H74            2.0704    -8.3813    -2.3057 H       
  75 H75            8.7890   -13.3375    -0.8625 H       
  76 H76           10.4726   -13.5231    -0.3154 H       
  77 H77            9.2554   -12.8168     0.7744 H       
@<TRIPOS>BOND
   1    1    2 1
   2    1   28 1
   3    1   32 1
   4    2    3 ar
   5    2    7 ar
   6    3    4 ar
   7    3   48 1
   8    4    5 ar
   9    4   49 1
  10    5    6 ar
  11    5    8 1
  12    6    7 ar
  13    6   50 1
  14    7   51 1
  15    8    9 1
  16    8   52 1
  17    9   10 ar
  18    9   14 ar
  19   10   11 ar
  20   11   12 ar
  21   11   15 1
  22   12   13 ar
  23   12   18 1
  24   13   14 ar
  25   13   53 1
  26   15   16 am
  27   15   19 1
  28   16   17 1
  29   16   21 2
  30   17   18 2
  31   17   22 1
  32   18   54 1
  33   19   20 1
  34   19   55 1
  35   19   56 1
  36   20   34 ar
  37   20   38 ar
  38   22   24 ar
  39   22   23 ar
  40   23   39 1
  41   23   27 ar
  42   24   25 ar
  43   24   57 1
  44   25   26 ar
  45   25   58 1
  46   26   27 ar
  47   26   40 1
  48   27   59 1
  49   28   29 1
  50   28   60 1
  51   28   61 1
  52   29   30 1
  53   29   62 1
  54   29   63 1
  55   30   31 1
  56   30   33 1
  57   31   32 1
  58   31   64 1
  59   31   65 1
  60   32   66 1
  61   32   67 1
  62   33   68 1
  63   33   69 1
  64   33   70 1
  65   34   35 ar
  66   34   44 1
  67   35   36 ar
  68   35   71 1
  69   36   37 ar
  70   36   72 1
  71   37   38 ar
  72   37   73 1
  73   38   74 1
  74   40   41 1
  75   40   42 2
  76   40   43 2
  77   41   75 1
  78   41   76 1
  79   41   77 1
  80   44   45 1
  81   44   46 1
  82   44   47 1

#	End of record

