#	Name: ASD01915151
#	Creating user name:	WinNT
#	Creation time:	15. 06. 2019 20:04

#	Modifying user name:	WinNT
#	Modification time:	15. 06. 2019 20:04

#	Program:	/corina/corina34_cracker 3.40 0067  02.08.2006

@<TRIPOS>MOLECULE
ASD01915151
  37   40    0    0    0
SMALL
NO_CHARGES


@<TRIPOS>ATOM
   1 C1             0.0644     0.5903    -0.0127 C.ar    
   2 C2             0.3904    -0.7469     0.2245 C.ar    
   3 N3            -0.5750    -1.6475     0.4224 N.ar    
   4 C4            -1.8470    -1.3242     0.4034 C.ar    
   5 C5            -2.2491    -0.0173     0.1739 C.ar    
   6 C6            -1.2975     0.9573    -0.0317 C.ar    
   7 C7             1.2516     1.4179    -0.2037 C.2     
   8 C8             2.4032     0.7564    -0.1179 C.2     
   9 S9             2.1389    -0.9455     0.2056 S.3     
  10 C10            1.1803     2.8739    -0.4715 C.ar    
  11 C11            1.4789     3.7938     0.5320 C.ar    
  12 S12            3.9908     1.4970    -0.3062 S.o2    
  13 O13            3.8542     2.8496     0.1074 O.2     
  14 O14            4.9248     0.5973     0.2747 O.2     
  15 C15            4.3461     1.5377    -2.0315 C.ar    
  16 C16            4.0938     2.6855    -2.7607 C.ar    
  17 C17            4.8807     0.4263    -2.6503 C.ar    
  18 C18            5.1625     0.4590    -4.0173 C.ar    
  19 C19            4.9012     1.6182    -4.7504 C.ar    
  20 C20            4.3708     2.7261    -4.1181 C.ar    
  21 F21            4.1169     3.8491    -4.8250 F       
  22 N22            1.4160     5.0885     0.2954 N.ar    
  23 C23            1.0720     5.5644    -0.8865 C.ar    
  24 C24            0.7606     4.7148    -1.9349 C.ar    
  25 C25            0.8179     3.3468    -1.7371 C.ar    
  26 Cl26           1.0083     7.2820    -1.1306 Cl      
  27 C27            5.7178    -0.6913    -4.6646 C.1     
  28 N28            6.1583    -1.6039    -5.1781 N.1     
  29 H29           -2.5922    -2.0883     0.5689 H       
  30 H30           -3.2991     0.2351     0.1603 H       
  31 H31           -1.5889     1.9815    -0.2118 H       
  32 H32            1.7641     3.4422     1.5126 H       
  33 H33            3.6788     3.5537    -2.2703 H       
  34 H34            5.0810    -0.4674    -2.0779 H       
  35 H35            5.1169     1.6500    -5.8082 H       
  36 H36            0.4801     5.1158    -2.8976 H       
  37 H37            0.5806     2.6613    -2.5372 H       
@<TRIPOS>BOND
   1    1    2 ar
   2    1    7 1
   3    1    6 ar
   4    2    3 ar
   5    2    9 1
   6    3    4 ar
   7    4    5 ar
   8    4   29 1
   9    5    6 ar
  10    5   30 1
  11    6   31 1
  12    7    8 2
  13    7   10 1
  14    8    9 1
  15    8   12 1
  16   10   11 ar
  17   10   25 ar
  18   11   22 ar
  19   11   32 1
  20   12   13 2
  21   12   14 2
  22   12   15 1
  23   15   16 ar
  24   15   17 ar
  25   16   20 ar
  26   16   33 1
  27   17   18 ar
  28   17   34 1
  29   18   19 ar
  30   18   27 1
  31   19   20 ar
  32   19   35 1
  33   20   21 1
  34   22   23 ar
  35   23   24 ar
  36   23   26 1
  37   24   25 ar
  38   24   36 1
  39   25   37 1
  40   27   28 3

#	End of record

