#	Name: ASD02030180
#	Creating user name:	WinNT
#	Creation time:	15. 06. 2019 20:14

#	Modifying user name:	WinNT
#	Modification time:	15. 06. 2019 20:14

#	Program:	/corina/corina34_cracker 3.40 0067  02.08.2006

@<TRIPOS>MOLECULE
ASD02030180
  37   39    0    0    0
SMALL
NO_CHARGES


@<TRIPOS>ATOM
   1 C1            -0.0164     1.3599     0.0095 C.2     
   2 N2             0.0021    -0.0041     0.0020 N.am    
   3 N3             2.3536     0.0479    -0.0198 N.2     
   4 C4             2.3779     1.3753    -0.0133 C.2     
   5 C5             1.1862     2.0685     0.0018 C.2     
   6 N6            -1.0892    -0.8654     0.0074 N.2     
   7 C7            -0.8931    -2.1371    -0.0017 C.2     
   8 S8             0.8653    -2.3557    -0.0195 S.3     
   9 C9             1.2154    -0.6187    -0.0129 C.2     
  10 C10           -1.9430    -3.2182     0.0020 C.3     
  11 O11           -1.0808     1.9586     0.0178 O.2     
  12 C12            3.6911     2.1147    -0.0211 C.3     
  13 N13            4.4140     1.8393     1.2229 N.pl3   
  14 C14            5.2920     0.7553     1.2952 C.ar    
  15 C15            4.2162     2.7008     2.3912 C.3     
  16 C16            3.0658     2.1542     3.2390 C.3     
  17 C17            5.4851    -0.0592     0.1866 C.ar    
  18 C18            5.9783     0.4928     2.4740 C.ar    
  19 C19            6.8455    -0.5798     2.5421 C.ar    
  20 C20            7.0315    -1.3918     1.4383 C.ar    
  21 C21            6.3538    -1.1301     0.2615 C.ar    
  22 H22            1.1832     3.1485     0.0073 H       
  23 H23           -2.2057    -3.4730    -1.0247 H       
  24 H24           -1.5528    -4.1018     0.5071 H       
  25 H25           -2.8297    -2.8618     0.5262 H       
  26 H26            4.2894     1.7836    -0.8700 H       
  27 H27            3.5046     3.1854    -0.1036 H       
  28 H28            5.1289     2.7207     2.9868 H       
  29 H29            3.9758     3.7113     2.0609 H       
  30 H30            2.9186     2.7951     4.1082 H       
  31 H31            2.1531     2.1343     2.6435 H       
  32 H32            3.3062     1.1436     3.5693 H       
  33 H33            4.9561     0.1446    -0.7327 H       
  34 H34            5.8341     1.1270     3.3363 H       
  35 H35            7.3794    -0.7845     3.4583 H       
  36 H36            7.7108    -2.2295     1.4939 H       
  37 H37            6.5044    -1.7638    -0.6000 H       
@<TRIPOS>BOND
   1    1    2 am
   2    1    5 1
   3    1   11 2
   4    2    6 1
   5    2    9 1
   6    3    4 1
   7    3    9 2
   8    4    5 2
   9    4   12 1
  10    5   22 1
  11    6    7 2
  12    7    8 1
  13    7   10 1
  14    8    9 1
  15   10   23 1
  16   10   24 1
  17   10   25 1
  18   12   13 1
  19   12   26 1
  20   12   27 1
  21   13   14 1
  22   13   15 1
  23   14   18 ar
  24   14   17 ar
  25   15   16 1
  26   15   28 1
  27   15   29 1
  28   16   30 1
  29   16   31 1
  30   16   32 1
  31   17   21 ar
  32   17   33 1
  33   18   19 ar
  34   18   34 1
  35   19   20 ar
  36   19   35 1
  37   20   21 ar
  38   20   36 1
  39   21   37 1

#	End of record

