#	Name: ASD01884018
#	Creating user name:	WinNT
#	Creation time:	15. 06. 2019 19:47

#	Modifying user name:	WinNT
#	Modification time:	15. 06. 2019 19:47

#	Program:	/corina/corina34_cracker 3.40 0067  02.08.2006

@<TRIPOS>MOLECULE
ASD01884018
  56   59    0    0    0
SMALL
NO_CHARGES


@<TRIPOS>ATOM
   1 C1            -0.0168     1.3863     0.0097 C.ar    
   2 C2             0.0021    -0.0041     0.0020 C.ar    
   3 C3             1.2221    -0.6792    -0.0133 C.ar    
   4 C4             2.4177     0.0462    -0.0208 C.ar    
   5 C5             2.3890     1.4278    -0.0131 C.ar    
   6 C6             1.1821     2.0988     0.0020 C.ar    
   7 C7            -1.3116     2.1114     0.0197 C.ar    
   8 C8            -1.3327     3.5048     0.0274 C.ar    
   9 C9            -2.5395     4.1740     0.0368 C.ar    
  10 C10           -3.7269     3.4641     0.0386 C.ar    
  11 C11           -3.7118     2.0813     0.0310 C.ar    
  12 C12           -2.5103     1.4017     0.0158 C.ar    
  13 C13            1.2516    -2.1555    -0.0210 C.2     
  14 O14            2.3154    -2.7418    -0.0343 O.2     
  15 O15            0.0986    -2.8523    -0.0133 O.3     
  16 Cl16           3.9392    -0.7895    -0.0392 Cl      
  17 C17           -2.5640     5.6807     0.0456 C.3     
  18 O18           -2.5778     6.1648    -1.2989 O.3     
  19 C19           -2.6714    11.6541    -2.2990 C.2     
  20 N20           -2.6774    11.6796    -3.6428 N.am    
  21 C21           -2.6569    10.2996    -4.1412 C.3     
  22 C22           -2.6374     9.4117    -2.9220 C.ar    
  23 C23           -2.6150     8.0493    -2.7514 C.ar    
  24 C24           -2.6005     7.5110    -1.4688 C.ar    
  25 C25           -2.6096     8.3508    -0.3609 C.ar    
  26 C26           -2.6326     9.7174    -0.5262 C.ar    
  27 C27           -2.6468    10.2636    -1.8130 C.ar    
  28 O28           -2.6800    12.6388    -1.5858 O.2     
  29 C29           -2.7009    12.8863    -4.4731 C.3     
  30 C30           -2.7172    14.1240    -3.5737 C.3     
  31 C31           -1.4560    12.9182    -5.3619 C.3     
  32 C32           -3.9541    12.8771    -5.3508 C.3     
  33 H33           -0.9245    -0.5589     0.0082 H       
  34 H34            3.3141     1.9850    -0.0186 H       
  35 H35            1.1666     3.1787     0.0080 H       
  36 H36           -0.4062     4.0599     0.0264 H       
  37 H37           -4.6692     3.9918     0.0463 H       
  38 H38           -4.6417     1.5320     0.0328 H       
  39 H39           -2.4997     0.3218     0.0053 H       
  40 H40            0.1684    -3.8168    -0.0188 H       
  41 H41           -3.4573     6.0266     0.5655 H       
  42 H42           -1.6776     6.0555     0.5575 H       
  43 H43           -3.5499    10.1022    -4.7343 H       
  44 H44           -1.7629    10.1313    -4.7417 H       
  45 H45           -2.6087     7.3967    -3.6118 H       
  46 H46           -2.5990     7.9294     0.6334 H       
  47 H47           -2.6400    10.3665     0.3369 H       
  48 H48           -1.8244    14.1305    -2.9484 H       
  49 H49           -2.7347    15.0218    -4.1915 H       
  50 H50           -3.6041    14.1013    -2.9405 H       
  51 H51           -1.4443    12.0364    -6.0027 H       
  52 H52           -1.4735    13.8160    -5.9797 H       
  53 H53           -0.5632    12.9247    -4.7366 H       
  54 H54           -4.8410    12.8545    -4.7176 H       
  55 H55           -3.9716    13.7750    -5.9686 H       
  56 H56           -3.9424    11.9954    -5.9915 H       
@<TRIPOS>BOND
   1    1    2 ar
   2    1    6 ar
   3    1    7 1
   4    2    3 ar
   5    2   33 1
   6    3    4 ar
   7    3   13 1
   8    4    5 ar
   9    4   16 1
  10    5    6 ar
  11    5   34 1
  12    6   35 1
  13    7    8 ar
  14    7   12 ar
  15    8    9 ar
  16    8   36 1
  17    9   10 ar
  18    9   17 1
  19   10   11 ar
  20   10   37 1
  21   11   12 ar
  22   11   38 1
  23   12   39 1
  24   13   14 2
  25   13   15 1
  26   15   40 1
  27   17   18 1
  28   17   41 1
  29   17   42 1
  30   18   24 1
  31   19   20 am
  32   19   27 1
  33   19   28 2
  34   20   21 1
  35   20   29 1
  36   21   22 1
  37   21   43 1
  38   21   44 1
  39   22   23 ar
  40   22   27 ar
  41   23   24 ar
  42   23   45 1
  43   24   25 ar
  44   25   26 ar
  45   25   46 1
  46   26   27 ar
  47   26   47 1
  48   29   30 1
  49   29   32 1
  50   29   31 1
  51   30   48 1
  52   30   49 1
  53   30   50 1
  54   31   51 1
  55   31   52 1
  56   31   53 1
  57   32   54 1
  58   32   55 1
  59   32   56 1

#	End of record

