#	Name: ASD01917616
#	Creating user name:	WinNT
#	Creation time:	15. 06. 2019 20:09

#	Modifying user name:	WinNT
#	Modification time:	15. 06. 2019 20:09

#	Program:	/corina/corina34_cracker 3.40 0067  02.08.2006

@<TRIPOS>MOLECULE
ASD01917616
  60   64    0    0    0
SMALL
NO_CHARGES


@<TRIPOS>ATOM
   1 C1            -0.0166     1.3759     0.0096 C.ar    
   2 C2             0.0021    -0.0041     0.0020 C.ar    
   3 C3             1.2198    -0.6817    -0.0132 C.ar    
   4 C4             2.4124     0.0392    -0.0207 C.ar    
   5 C5             1.2463    -2.1650    -0.0210 C.2     
   6 N6             0.1706    -2.9784    -0.0151 N.2     
   7 C7             2.3586    -2.9450    -0.0412 C.2     
   8 N8             1.9281    -4.2444    -0.0421 N.pl3   
   9 C9             0.5695    -4.2195    -0.0258 C.2     
  10 C10            2.7388    -5.3890    -0.0607 C.ar    
  11 C11            3.7573    -5.5041    -0.9969 C.ar    
  12 C12            4.5544    -6.6318    -1.0138 C.ar    
  13 C13            3.3264    -7.5317     0.8408 C.ar    
  14 C14            2.5272    -6.4055     0.8607 C.ar    
  15 C15           -0.3293    -5.4291    -0.0202 C.3     
  16 C16           -0.6120    -5.8383     1.4024 C.2     
  17 N17           -1.3993    -6.9030     1.6535 N.am    
  18 O18           -0.1309    -5.2096     2.3212 O.2     
  19 C19           -1.6880    -7.3194     3.0343 C.3     
  20 C20           -1.9977    -7.6755     0.5542 C.3     
  21 C21           -3.5021    -7.8068     0.8141 C.3     
  22 N22           -3.7171    -8.3662     2.1553 N.3     
  23 C23           -3.2053    -7.4655     3.1916 C.3     
  24 C24           -5.0609    -8.6522     2.3663 C.ar    
  25 C25           -5.4685    -9.1915     3.5824 C.ar    
  26 N26           -5.9425    -8.4038     1.4102 N.ar    
  27 C27           -7.2272    -8.6600     1.5700 C.ar    
  28 C28           -7.7001    -9.2001     2.7488 C.ar    
  29 C29           -6.8087    -9.4707     3.7789 C.ar    
  30 C30            4.3379    -7.6476    -0.0978 C.ar    
  31 F31            5.1181    -8.7504    -0.1164 F       
  32 C32            1.1433     3.5931     0.0109 C.3     
  33 C33            2.3818     1.4189    -0.0130 C.ar    
  34 C34            1.1702     2.0863     0.0021 C.ar    
  35 H35           -0.9597     1.9021     0.0169 H       
  36 H36           -0.9252    -0.5578     0.0082 H       
  37 H37            3.3589    -0.4809    -0.0322 H       
  38 H38            3.3838    -2.6056    -0.0545 H       
  39 H39            3.9259    -4.7124    -1.7119 H       
  40 H40            5.3468    -6.7217    -1.7421 H       
  41 H41            3.1622    -8.3226     1.5578 H       
  42 H42            1.7387    -6.3153     1.5931 H       
  43 H43           -1.2664    -5.1878    -0.5219 H       
  44 H44            0.1622    -6.2494    -0.5434 H       
  45 H45           -1.2051    -8.2753     3.2370 H       
  46 H46           -1.3188    -6.5649     3.7290 H       
  47 H47           -1.8331    -7.1564    -0.3900 H       
  48 H48           -1.5451    -8.6663     0.5143 H       
  49 H49           -3.9694    -6.8241     0.7508 H       
  50 H50           -3.9435    -8.4686     0.0690 H       
  51 H51           -3.4266    -7.8796     4.1752 H       
  52 H52           -3.6803    -6.4895     3.0921 H       
  53 H53           -4.7480    -9.3898     4.3621 H       
  54 H54           -7.9176    -8.4439     0.7680 H       
  55 H55           -8.7532    -9.4064     2.8705 H       
  56 H56           -7.1537    -9.8933     4.7109 H       
  57 H57            1.1272     3.9622    -1.0145 H       
  58 H58            0.2518     3.9374     0.5351 H       
  59 H59            2.0314     3.9694     0.5187 H       
  60 H60            3.3054     1.9786    -0.0185 H       
@<TRIPOS>BOND
   1    1    2 ar
   2    1   34 ar
   3    1   35 1
   4    2    3 ar
   5    2   36 1
   6    3    4 ar
   7    3    5 1
   8    4   33 ar
   9    4   37 1
  10    5    6 1
  11    5    7 2
  12    6    9 2
  13    7    8 1
  14    7   38 1
  15    8    9 1
  16    8   10 1
  17    9   15 1
  18   10   11 ar
  19   10   14 ar
  20   11   12 ar
  21   11   39 1
  22   12   30 ar
  23   12   40 1
  24   13   14 ar
  25   13   30 ar
  26   13   41 1
  27   14   42 1
  28   15   16 1
  29   15   43 1
  30   15   44 1
  31   16   17 am
  32   16   18 2
  33   17   19 1
  34   17   20 1
  35   19   23 1
  36   19   45 1
  37   19   46 1
  38   20   21 1
  39   20   47 1
  40   20   48 1
  41   21   22 1
  42   21   49 1
  43   21   50 1
  44   22   23 1
  45   22   24 1
  46   23   51 1
  47   23   52 1
  48   24   25 ar
  49   24   26 ar
  50   25   29 ar
  51   25   53 1
  52   26   27 ar
  53   27   28 ar
  54   27   54 1
  55   28   29 ar
  56   28   55 1
  57   29   56 1
  58   30   31 1
  59   32   34 1
  60   32   57 1
  61   32   58 1
  62   32   59 1
  63   33   34 ar
  64   33   60 1

#	End of record

