#	Name: ASD03430535
#	Creating user name:	WinNT
#	Creation time:	15. 06. 2019 20:41

#	Modifying user name:	WinNT
#	Modification time:	15. 06. 2019 20:41

#	Program:	/corina/corina34_cracker 3.40 0067  02.08.2006

@<TRIPOS>MOLECULE
ASD03430535
  58   63    0    0    0
SMALL
NO_CHARGES


@<TRIPOS>ATOM
   1 N1            -0.0818     1.4527     0.5902 N.am    
   2 C2            -0.0918     0.1696     0.9893 C.2     
   3 C3             1.2957    -0.1470     1.5054 C.3     
   4 C4             2.0578     1.1462     1.3291 C.ar    
   5 C5             3.3569     1.5124     1.6039 C.ar    
   6 C6             3.7851     2.7991     1.3286 C.ar    
   7 C7             2.9062     3.7140     0.7778 C.ar    
   8 C8             1.6028     3.3502     0.5014 C.ar    
   9 C9             1.1648     2.0539     0.7763 C.ar    
  10 O10           -1.0351    -0.5915     0.9448 O.2     
  11 O11            1.0946    -1.5760     6.9593 O.3     
  12 C12            1.2313    -2.9650     7.2786 C.3     
  13 C13            2.4112    -3.5287     6.4753 C.3     
  14 O14            2.1304    -3.3512     5.0826 O.3     
  15 C15            1.6648    -2.1287     4.7030 C.ar    
  16 C16            1.1457    -1.2433     5.6405 C.ar    
  17 C17            1.7123    -1.7693     3.3648 C.ar    
  18 C18            1.2420    -0.5339     2.9609 C.ar    
  19 C19            0.7214     0.3498     3.8939 C.ar    
  20 C20            0.6733    -0.0050     5.2334 C.ar    
  21 O21            0.2583     1.5646     3.4952 O.3     
  22 O22            1.8922    -1.1892     0.7307 O.3     
  23 F23            0.7506     4.2505    -0.0358 F       
  24 C24           -1.2432     2.1398     0.0198 C.3     
  25 C25           -0.9398     2.5454    -1.3996 C.ar    
  26 C26           -1.4406     3.7321    -1.9014 C.ar    
  27 C27           -1.1623     4.1042    -3.2033 C.ar    
  28 C28           -0.3828     3.2897    -4.0033 C.ar    
  29 C29            0.1188     2.1035    -3.5012 C.ar    
  30 C30           -0.1559     1.7335    -2.1979 C.ar    
  31 C31           -2.4320     1.2137     0.0343 C.ar    
  32 C32           -3.4902     1.4608     0.8888 C.ar    
  33 C33           -4.5806     0.6113     0.9022 C.ar    
  34 C34           -4.6130    -0.4851     0.0608 C.ar    
  35 C35           -3.5552    -0.7316    -0.7943 C.ar    
  36 C36           -2.4667     0.1204    -0.8108 C.ar    
  37 H37            4.0407     0.7958     2.0344 H       
  38 H38            4.8032     3.0883     1.5437 H       
  39 H39            3.2407     4.7181     0.5631 H       
  40 H40            1.4246    -3.0797     8.3452 H       
  41 H41            0.3175    -3.4953     7.0109 H       
  42 H42            3.3237    -2.9933     6.7375 H       
  43 H43            2.5312    -4.5898     6.6938 H       
  44 H44            2.1172    -2.4562     2.6364 H       
  45 H45            0.2675     0.6833     5.9599 H       
  46 H46           -0.6795     1.5699     3.2592 H       
  47 H47            1.4093    -2.0264     0.7597 H       
  48 H48           -1.4669     3.0275     0.6114 H       
  49 H49           -2.0496     4.3684    -1.2764 H       
  50 H50           -1.5542     5.0309    -3.5956 H       
  51 H51           -0.1660     3.5800    -5.0207 H       
  52 H52            0.7275     1.4670    -4.1263 H       
  53 H53            0.2390     0.8085    -1.8044 H       
  54 H54           -3.4648     2.3173     1.5461 H       
  55 H55           -5.4070     0.8039     1.5703 H       
  56 H56           -5.4646    -1.1492     0.0718 H       
  57 H57           -3.5804    -1.5883    -1.4514 H       
  58 H58           -1.6420    -0.0702    -1.4815 H       
@<TRIPOS>BOND
   1    1    2 am
   2    1    9 1
   3    1   24 1
   4    2    3 1
   5    2   10 2
   6    3    4 1
   7    3   18 1
   8    3   22 1
   9    4    5 ar
  10    4    9 ar
  11    5    6 ar
  12    5   37 1
  13    6    7 ar
  14    6   38 1
  15    7    8 ar
  16    7   39 1
  17    8    9 ar
  18    8   23 1
  19   11   12 1
  20   11   16 1
  21   12   13 1
  22   12   40 1
  23   12   41 1
  24   13   14 1
  25   13   42 1
  26   13   43 1
  27   14   15 1
  28   15   16 ar
  29   15   17 ar
  30   16   20 ar
  31   17   18 ar
  32   17   44 1
  33   18   19 ar
  34   19   20 ar
  35   19   21 1
  36   20   45 1
  37   21   46 1
  38   22   47 1
  39   24   25 1
  40   24   31 1
  41   24   48 1
  42   25   26 ar
  43   25   30 ar
  44   26   27 ar
  45   26   49 1
  46   27   28 ar
  47   27   50 1
  48   28   29 ar
  49   28   51 1
  50   29   30 ar
  51   29   52 1
  52   30   53 1
  53   31   32 ar
  54   31   36 ar
  55   32   33 ar
  56   32   54 1
  57   33   34 ar
  58   33   55 1
  59   34   35 ar
  60   34   56 1
  61   35   36 ar
  62   35   57 1
  63   36   58 1

#	End of record

