#	Name: ASD01913890
#	Creating user name:	WinNT
#	Creation time:	15. 06. 2019 20:02

#	Modifying user name:	WinNT
#	Modification time:	15. 06. 2019 20:02

#	Program:	/corina/corina34_cracker 3.40 0067  02.08.2006

@<TRIPOS>MOLECULE
ASD01913890
  42   44    0    0    0
SMALL
NO_CHARGES


@<TRIPOS>ATOM
   1 C1            -0.0173     1.4278     0.0099 C.ar    
   2 C2             0.0021    -0.0041     0.0020 C.1     
   3 C3             0.0180    -1.1779    -0.0044 C.1     
   4 C4             0.0374    -2.6098    -0.0123 C.ar    
   5 C5            -1.1552    -3.3455    -0.0049 C.ar    
   6 C6             0.0738    -5.2913    -0.0280 C.ar    
   7 N7             1.2234    -4.6330    -0.0407 N.ar    
   8 C8             1.2495    -3.3128    -0.0336 C.ar    
   9 N9            -1.0933    -4.6646    -0.0130 N.ar    
  10 C10            1.1812     2.1463     0.0023 C.ar    
  11 C11            1.1547     3.5252     0.0095 C.ar    
  12 C12           -1.2350     2.1134     0.0194 C.ar    
  13 C13           -0.0549     4.1972     0.0242 C.ar    
  14 C14           -1.2458     3.4925     0.0264 C.ar    
  15 N15            0.0926    -6.6796    -0.0361 N.am    
  16 C16            1.2789    -7.2884    -0.0564 C.2     
  17 C17            1.4444    -8.7798    -0.1158 C.3     
  18 C18            0.1365    -9.4654     0.2873 C.3     
  19 C19           -1.0109    -8.8219    -0.5006 C.3     
  20 C20           -1.1854    -7.3802    -0.0159 C.3     
  21 C21           -0.6763    -8.8300    -1.9936 C.3     
  22 C22           -2.3031    -9.6039    -0.2565 C.3     
  23 O23            2.2774    -6.6009    -0.0258 O.2     
  24 H24           -2.1103    -2.8415     0.0077 H       
  25 H25            2.1905    -2.7829    -0.0443 H       
  26 H26            2.1259     1.6231    -0.0088 H       
  27 H27            2.0801     4.0818     0.0040 H       
  28 H28           -2.1652     1.5647     0.0208 H       
  29 H29           -0.0696     5.2771     0.0301 H       
  30 H30           -2.1861     4.0237     0.0375 H       
  31 H31            1.7097    -9.0745    -1.1311 H       
  32 H32            2.2378    -9.0835     0.5671 H       
  33 H33            0.1919   -10.5284     0.0526 H       
  34 H34           -0.0328    -9.3334     1.3559 H       
  35 H35           -1.5836    -7.3869     0.9987 H       
  36 H36           -1.8857    -6.8621    -0.6711 H       
  37 H37           -0.5381    -9.8578    -2.3294 H       
  38 H38           -1.4931    -8.3722    -2.5515 H       
  39 H39            0.2407    -8.2659    -2.1635 H       
  40 H40           -2.5413    -9.5892     0.8070 H       
  41 H41           -3.1171    -9.1447    -0.8175 H       
  42 H42           -2.1716   -10.6348    -0.5853 H       
@<TRIPOS>BOND
   1    1    2 1
   2    1   10 ar
   3    1   12 ar
   4    2    3 3
   5    3    4 1
   6    4    5 ar
   7    4    8 ar
   8    5    9 ar
   9    5   24 1
  10    6    7 ar
  11    6   15 1
  12    6    9 ar
  13    7    8 ar
  14    8   25 1
  15   10   11 ar
  16   10   26 1
  17   11   13 ar
  18   11   27 1
  19   12   14 ar
  20   12   28 1
  21   13   14 ar
  22   13   29 1
  23   14   30 1
  24   15   16 am
  25   15   20 1
  26   16   17 1
  27   16   23 2
  28   17   18 1
  29   17   31 1
  30   17   32 1
  31   18   19 1
  32   18   33 1
  33   18   34 1
  34   19   20 1
  35   19   21 1
  36   19   22 1
  37   20   35 1
  38   20   36 1
  39   21   37 1
  40   21   38 1
  41   21   39 1
  42   22   40 1
  43   22   41 1
  44   22   42 1

#	End of record

