#	Name: ASD01410676
#	Creating user name:	WinNT
#	Creation time:	15. 06. 2019 19:18

#	Modifying user name:	WinNT
#	Modification time:	15. 06. 2019 19:18

#	Program:	/corina/corina34_cracker 3.40 0067  02.08.2006

@<TRIPOS>MOLECULE
ASD01410676
  62   64    0    0    0
SMALL
NO_CHARGES


@<TRIPOS>ATOM
   1 C1             2.4300     5.4762    -2.2823 C.ar    
   2 C2             2.6616     4.6743    -3.3912 C.ar    
   3 C3             3.6271     3.6892    -3.3229 C.ar    
   4 N4             4.3273     3.5040    -2.2202 N.ar    
   5 C5             4.1356     4.2479    -1.1430 C.ar    
   6 C6             3.1811     5.2569    -1.1405 C.ar    
   7 O7             4.8784     4.0229    -0.0303 O.3     
   8 C8             5.7297     2.9621    -0.0346 C.ar    
   9 C9             6.9810     3.0788    -0.6347 C.ar    
  10 C10            7.8535     2.0063    -0.6437 C.ar    
  11 C11            7.4864     0.8054    -0.0541 C.ar    
  12 C12            6.2261     0.6826     0.5522 C.ar    
  13 C13            5.3528     1.7744     0.5614 C.ar    
  14 F14            7.3439     4.2454    -1.2112 F       
  15 N15            8.3653    -0.2754    -0.0641 N.am    
  16 C16            9.3614    -0.3423     0.8413 C.2     
  17 C17            8.2069    -1.3392    -1.0588 C.3     
  18 O18           10.1409    -1.2747     0.8195 O.2     
  19 C19            9.5059     0.7182     1.8608 C.ar    
  20 C20           10.7216     0.8907     2.5250 C.ar    
  21 C21           10.8513     1.8829     3.4758 C.ar    
  22 C22            9.7788     2.7064     3.7723 C.ar    
  23 C23            8.5695     2.5408     3.1172 C.ar    
  24 C24            8.4294     1.5545     2.1591 C.ar    
  25 C25            6.9586    -1.0682    -1.9009 C.3     
  26 C26            9.4372    -1.3751    -1.9675 C.3     
  27 C27            1.8677     4.8761    -4.6561 C.3     
  28 O28           10.5578    -1.8713    -1.2327 O.3     
  29 C29           11.7652    -1.9453    -1.9936 C.3     
  30 O30            5.7945    -1.1952    -1.0818 O.3     
  31 C31            4.5674    -0.9606    -1.7753 C.3     
  32 F32            7.5269     3.3481     3.4115 F       
  33 Br33          12.4977     2.1173     4.3760 Br      
  34 C34            2.9662     6.1017     0.0888 C.3     
  35 F35            1.9589     7.0400    -0.1605 F       
  36 F36            2.5862     5.2823     1.1571 F       
  37 F37            4.1540     6.7670     0.4109 F       
  38 C38            5.8280    -0.5884     1.1804 C.2     
  39 O39            6.6297    -1.4969     1.2746 O.2     
  40 O40            4.5747    -0.7441     1.6509 O.3     
  41 H41            1.6838     6.2564    -2.3111 H       
  42 H42            3.8110     3.0623    -4.1828 H       
  43 H43            8.8224     2.1035    -1.1108 H       
  44 H44            4.3818     1.6867     1.0261 H       
  45 H45            8.1018    -2.2982    -0.5515 H       
  46 H46           11.5592     0.2487     2.2954 H       
  47 H47            9.8852     3.4807     4.5176 H       
  48 H48            7.4864     1.4259     1.6486 H       
  49 H49            7.0075    -0.0585    -2.3087 H       
  50 H50            6.9082    -1.7879    -2.7180 H       
  51 H51            9.2420    -2.0286    -2.8178 H       
  52 H52            9.6542    -0.3685    -2.3252 H       
  53 H53            2.3812     5.5928    -5.2970 H       
  54 H54            1.7705     3.9250    -5.1797 H       
  55 H55            0.8772     5.2564    -4.4066 H       
  56 H56           12.5677    -2.3311    -1.3649 H       
  57 H57           11.6183    -2.6107    -2.8443 H       
  58 H58           12.0304    -0.9506    -2.3518 H       
  59 H59            4.5667     0.0513    -2.1805 H       
  60 H60            4.4674    -1.6781    -2.5898 H       
  61 H61            3.7319    -1.0761    -1.0848 H       
  62 H62            4.3601    -1.5960     2.0549 H       
@<TRIPOS>BOND
   1    1    2 ar
   2    1    6 ar
   3    1   41 1
   4    2    3 ar
   5    2   27 1
   6    3    4 ar
   7    3   42 1
   8    4    5 ar
   9    5    6 ar
  10    5    7 1
  11    6   34 1
  12    7    8 1
  13    8    9 ar
  14    8   13 ar
  15    9   10 ar
  16    9   14 1
  17   10   11 ar
  18   10   43 1
  19   11   12 ar
  20   11   15 1
  21   12   13 ar
  22   12   38 1
  23   13   44 1
  24   15   16 am
  25   15   17 1
  26   16   18 2
  27   16   19 1
  28   17   25 1
  29   17   26 1
  30   17   45 1
  31   19   20 ar
  32   19   24 ar
  33   20   21 ar
  34   20   46 1
  35   21   22 ar
  36   21   33 1
  37   22   23 ar
  38   22   47 1
  39   23   24 ar
  40   23   32 1
  41   24   48 1
  42   25   30 1
  43   25   49 1
  44   25   50 1
  45   26   28 1
  46   26   51 1
  47   26   52 1
  48   27   53 1
  49   27   54 1
  50   27   55 1
  51   28   29 1
  52   29   56 1
  53   29   57 1
  54   29   58 1
  55   30   31 1
  56   31   59 1
  57   31   60 1
  58   31   61 1
  59   34   35 1
  60   34   36 1
  61   34   37 1
  62   38   39 2
  63   38   40 1
  64   40   62 1

#	End of record

