#	Name: ASD01883388
#	Creating user name:	WinNT
#	Creation time:	15. 06. 2019 19:46

#	Modifying user name:	WinNT
#	Modification time:	15. 06. 2019 19:46

#	Program:	/corina/corina34_cracker 3.40 0067  02.08.2006

@<TRIPOS>MOLECULE
ASD01883388
  52   54    0    0    0
SMALL
NO_CHARGES


@<TRIPOS>ATOM
   1 N1             0.0045     1.3042    -0.0006 N.am    
   2 C2             0.0079    -0.0420    -0.0536 C.2     
   3 C3            -1.2685    -0.7631    -0.0436 C.2     
   4 C4            -2.4516    -0.0146     0.0212 C.2     
   5 C5            -2.3620     1.3860     0.0736 C.2     
   6 C6            -1.1544     2.0008     0.0671 C.2     
   7 O7             1.0606    -0.6536    -0.1096 O.2     
   8 C8            -1.3055    -2.1935    -0.0992 C.1     
   9 N9            -1.3348    -3.3283    -0.1432 N.1     
  10 C10            1.2785     2.0274    -0.0104 C.3     
  11 C11            1.6788     2.3357    -1.4546 C.3     
  12 C12            3.0094     3.0910    -1.4648 C.3     
  13 C13            4.1154     2.1830    -0.9233 C.3     
  14 C14            3.3479     3.5083    -2.8973 C.3     
  15 C15           -3.7737    -0.6891     0.0339 C.2     
  16 N16           -4.2202    -1.2756     1.1622 N.am    
  17 O17           -4.4533    -0.7125    -0.9727 O.2     
  18 C18           -3.3753    -1.3409     2.3644 C.3     
  19 C19           -4.1804    -0.8085     3.5546 C.3     
  20 N20           -5.4513    -1.5392     3.6482 N.3     
  21 C21           -6.2841    -1.3142     2.4592 C.3     
  22 C22           -5.5676    -1.8618     1.2260 C.3     
  23 C23           -6.1342    -1.2006     4.8035 C.ar    
  24 N24           -7.3059    -1.7671     5.0517 N.ar    
  25 C25           -7.9843    -1.4656     6.1465 C.ar    
  26 C26           -7.4551    -0.5457     7.0380 C.ar    
  27 C27           -6.2272     0.0279     6.7475 C.ar    
  28 N28           -5.5982    -0.3217     5.6375 N.ar    
  29 H29           -3.2637     1.9782     0.1239 H       
  30 H30           -1.1156     3.0794     0.1081 H       
  31 H31            1.1713     2.9598     0.5439 H       
  32 H32            2.0484     1.4134     0.4568 H       
  33 H33            1.7860     1.4033    -2.0089 H       
  34 H34            0.9089     2.9497    -1.9218 H       
  35 H35            2.9282     3.9786    -0.8374 H       
  36 H36            4.1966     1.2954    -1.5507 H       
  37 H37            5.0633     2.7211    -0.9306 H       
  38 H38            3.8742     1.8857     0.0973 H       
  39 H39            2.5600     4.1552    -3.2831 H       
  40 H40            4.2958     4.0464    -2.9046 H       
  41 H41            3.4291     2.6207    -3.5248 H       
  42 H42           -3.0847    -2.3745     2.5519 H       
  43 H43           -2.4857    -0.7277     2.2204 H       
  44 H44           -3.6101    -0.9515     4.4725 H       
  45 H45           -4.3809     0.2534     3.4123 H       
  46 H46           -7.2397    -1.8239     2.5827 H       
  47 H47           -6.4554    -0.2452     2.3321 H       
  48 H48           -6.1272    -1.5959     0.3292 H       
  49 H49           -5.4854    -2.9461     1.3016 H       
  50 H50           -8.9391    -1.9305     6.3432 H       
  51 H51           -7.9881    -0.2812     7.9393 H       
  52 H52           -5.7874     0.7484     7.4211 H       
@<TRIPOS>BOND
   1    1    2 am
   2    1   10 1
   3    1    6 1
   4    2    3 1
   5    2    7 2
   6    3    4 2
   7    3    8 1
   8    4    5 1
   9    4   15 1
  10    5    6 2
  11    5   29 1
  12    6   30 1
  13    8    9 3
  14   10   11 1
  15   10   31 1
  16   10   32 1
  17   11   12 1
  18   11   33 1
  19   11   34 1
  20   12   13 1
  21   12   14 1
  22   12   35 1
  23   13   36 1
  24   13   37 1
  25   13   38 1
  26   14   39 1
  27   14   40 1
  28   14   41 1
  29   15   16 am
  30   15   17 2
  31   16   18 1
  32   16   22 1
  33   18   19 1
  34   18   42 1
  35   18   43 1
  36   19   20 1
  37   19   44 1
  38   19   45 1
  39   20   21 1
  40   20   23 1
  41   21   22 1
  42   21   46 1
  43   21   47 1
  44   22   48 1
  45   22   49 1
  46   23   24 ar
  47   23   28 ar
  48   24   25 ar
  49   25   26 ar
  50   25   50 1
  51   26   27 ar
  52   26   51 1
  53   27   28 ar
  54   27   52 1

#	End of record

