#	Name: ASD03430079
#	Creating user name:	WinNT
#	Creation time:	15. 06. 2019 20:40

#	Modifying user name:	WinNT
#	Modification time:	15. 06. 2019 20:40

#	Program:	/corina/corina34_cracker 3.40 0067  02.08.2006

@<TRIPOS>MOLECULE
ASD03430079
  52   57    0    0    0
SMALL
NO_CHARGES


@<TRIPOS>ATOM
   1 C1             1.8804     1.2938    -1.0467 C.ar    
   2 C2             1.3068     0.0598    -0.7796 C.ar    
   3 C3             2.0947    -1.0019    -0.3893 C.ar    
   4 C4             3.4711    -0.8485    -0.2481 C.ar    
   5 C5             4.0436     0.3893    -0.5208 C.ar    
   6 C6             3.2544     1.4564    -0.9170 C.ar    
   7 O7             4.0566    -2.0063     0.1722 O.3     
   8 C8             1.7868    -2.4372    -0.0568 C.3     
   9 C9             3.1665    -3.1094    -0.0840 C.3     
  10 C10           -0.0845    -3.2379     1.0276 C.ar    
  11 C11            1.1186    -2.5841     1.2778 C.ar    
  12 C12            0.8438    -3.0616    -1.0448 C.2     
  13 N13           -0.2152    -3.5035    -0.3377 N.am    
  14 O14            1.0036    -3.1505    -2.2438 O.2     
  15 C15            1.4643    -2.2173     2.5643 C.ar    
  16 C16            0.6080    -2.5023     3.6204 C.ar    
  17 C17           -0.5871    -3.1522     3.3787 C.ar    
  18 C18           -0.9348    -3.5189     2.0945 C.ar    
  19 O19            2.6411    -1.5788     2.7963 O.3     
  20 C20           -1.3691    -4.1833    -0.9316 C.3     
  21 O21            1.0883     2.3296    -1.4386 O.3     
  22 C22            1.6508     3.6427    -1.3405 C.3     
  23 C23            3.0690     3.6021    -1.9256 C.3     
  24 O24            3.8387     2.6596    -1.1722 O.3     
  25 C25            2.9907    -1.3343     4.0865 C.ar    
  26 C26            3.7130    -2.2787     4.8018 C.ar    
  27 C27            4.0675    -2.0274     6.1130 C.ar    
  28 C28            3.7031    -0.8361     6.7129 C.ar    
  29 C29            2.9833     0.1067     6.0023 C.ar    
  30 C30            2.6308    -0.1373     4.6892 C.ar    
  31 C31            4.0908    -0.5649     8.1437 C.3     
  32 F32            5.3371     0.0697     8.1769 F       
  33 F33            3.1309     0.2610     8.7384 F       
  34 F34            4.1642    -1.7738     8.8440 F       
  35 H35            0.2391    -0.0698    -0.8773 H       
  36 H36            5.1113     0.5194    -0.4230 H       
  37 H37            3.3645    -3.5473    -1.0623 H       
  38 H38            3.2462    -3.8613     0.7011 H       
  39 H39            0.8756    -2.2171     4.6271 H       
  40 H40           -1.2527    -3.3749     4.1995 H       
  41 H41           -1.8712    -4.0265     1.9157 H       
  42 H42           -2.1214    -3.4455    -1.2107 H       
  43 H43           -1.0510    -4.7312    -1.8186 H       
  44 H44           -1.7933    -4.8789    -0.2076 H       
  45 H45            1.0402     4.3474    -1.9050 H       
  46 H46            1.6931     3.9473    -0.2948 H       
  47 H47            3.0273     3.2903    -2.9693 H       
  48 H48            3.5245     4.5898    -1.8544 H       
  49 H49            3.9976    -3.2095     4.3338 H       
  50 H50            4.6294    -2.7623     6.6703 H       
  51 H51            2.6999     1.0364     6.4732 H       
  52 H52            2.0688     0.5995     4.1345 H       
@<TRIPOS>BOND
   1    1    2 ar
   2    1    6 ar
   3    1   21 1
   4    2    3 ar
   5    2   35 1
   6    3    4 ar
   7    3    8 1
   8    4    5 ar
   9    4    7 1
  10    5    6 ar
  11    5   36 1
  12    6   24 1
  13    7    9 1
  14    8    9 1
  15    8   11 1
  16    8   12 1
  17    9   37 1
  18    9   38 1
  19   10   11 ar
  20   10   13 1
  21   10   18 ar
  22   11   15 ar
  23   12   13 am
  24   12   14 2
  25   13   20 1
  26   15   16 ar
  27   15   19 1
  28   16   17 ar
  29   16   39 1
  30   17   18 ar
  31   17   40 1
  32   18   41 1
  33   19   25 1
  34   20   42 1
  35   20   43 1
  36   20   44 1
  37   21   22 1
  38   22   23 1
  39   22   45 1
  40   22   46 1
  41   23   24 1
  42   23   47 1
  43   23   48 1
  44   25   26 ar
  45   25   30 ar
  46   26   27 ar
  47   26   49 1
  48   27   28 ar
  49   27   50 1
  50   28   29 ar
  51   28   31 1
  52   29   30 ar
  53   29   51 1
  54   30   52 1
  55   31   32 1
  56   31   33 1
  57   31   34 1

#	End of record

