#	Name: ASD05740057
#	Creating user name:	WinNT
#	Creation time:	15. 06. 2019 21:02

#	Modifying user name:	WinNT
#	Modification time:	15. 06. 2019 21:02

#	Program:	/corina/corina34_cracker 3.40 0067  02.08.2006

@<TRIPOS>MOLECULE
ASD05740057
  46   49    0    0    0
SMALL
NO_CHARGES


@<TRIPOS>ATOM
   1 O1             0.1006     1.3847     0.3052 O.3     
   2 C2             2.0307    -4.2900    -0.5548 C.ar    
   3 C3             0.8272    -4.9004    -0.2078 C.ar    
   4 C4             2.1485    -2.9303    -0.5293 C.ar    
   5 C5             1.0535    -2.1440    -0.1533 C.ar    
   6 C6            -0.1645    -2.7545     0.1977 C.ar    
   7 C7            -0.2667    -4.1374     0.1668 C.ar    
   8 C8             1.1527    -0.6832    -0.1174 C.2     
   9 C9             0.0530     0.0271     0.2575 C.2     
  10 C10           -1.1405    -0.6552     0.5980 C.2     
  11 O11           -1.2198    -1.9941     0.5611 O.3     
  12 C12           -0.6512     2.0818    -0.5885 C.2     
  13 S13           -1.5785     1.3735    -1.9044 S.3     
  14 O14           -2.1185    -0.0111     0.9320 O.2     
  15 O15            0.7256    -6.2541    -0.2376 O.3     
  16 C16            0.0454    -6.8187    -1.2650 C.2     
  17 C17            2.4369     0.0148    -0.4844 C.3     
  18 C18           -0.8039     3.4148    -0.5979 C.2     
  19 C19           -1.6262     3.8968    -1.6062 C.2     
  20 C20           -2.1310     2.9632    -2.4143 C.2     
  21 N21           -0.1773     4.2606     0.3445 N.am    
  22 S22           -0.9544     5.6207     0.8818 S.o2    
  23 O23           -0.0302     6.2210     1.7789 O.2     
  24 O24           -1.3589     6.2859    -0.3070 O.2     
  25 N25           -0.4356    -6.1734    -2.2799 N.2     
  26 S26           -0.2959    -8.4874    -1.4138 S.3     
  27 C27           -1.1306    -8.1915    -2.9368 C.2     
  28 C28           -1.0728    -6.8835    -3.1926 C.2     
  29 C29           -2.3981     4.9914     1.7819 C.3     
  30 C30           -3.2072     6.1669     2.3338 C.3     
  31 H31            2.8771    -4.8966    -0.8410 H       
  32 H32            3.0840    -2.4627    -0.7990 H       
  33 H33           -1.1964    -4.6179     0.4337 H       
  34 H34            2.4214     0.2708    -1.5438 H       
  35 H35            2.5382     0.9243     0.1077 H       
  36 H36            3.2800    -0.6459    -0.2826 H       
  37 H37           -1.8367     4.9487    -1.7311 H       
  38 H38           -2.7880     3.1540    -3.2499 H       
  39 H39            0.7080     4.0446     0.6768 H       
  40 H40           -1.6030    -8.9389    -3.5569 H       
  41 H41           -1.5131    -6.4410    -4.0739 H       
  42 H42           -3.0217     4.4070     1.1053 H       
  43 H43           -2.0657     4.3603     2.6061 H       
  44 H44           -2.5836     6.7513     3.0104 H       
  45 H45           -3.5396     6.7980     1.5096 H       
  46 H46           -4.0747     5.7888     2.8747 H       
@<TRIPOS>BOND
   1    1    9 1
   2    1   12 1
   3    2    3 ar
   4    2    4 ar
   5    2   31 1
   6    3   15 1
   7    3    7 ar
   8    4    5 ar
   9    4   32 1
  10    5    6 ar
  11    5    8 1
  12    6    7 ar
  13    6   11 1
  14    7   33 1
  15    8    9 2
  16    8   17 1
  17    9   10 1
  18   10   11 1
  19   10   14 2
  20   12   13 1
  21   12   18 2
  22   13   20 1
  23   15   16 1
  24   16   26 1
  25   16   25 2
  26   17   34 1
  27   17   35 1
  28   17   36 1
  29   18   19 1
  30   18   21 1
  31   19   20 2
  32   19   37 1
  33   20   38 1
  34   21   22 am
  35   21   39 1
  36   22   23 2
  37   22   24 2
  38   22   29 1
  39   25   28 1
  40   26   27 1
  41   27   28 2
  42   27   40 1
  43   28   41 1
  44   29   30 1
  45   29   42 1
  46   29   43 1
  47   30   44 1
  48   30   45 1
  49   30   46 1

#	End of record

