#	Name: ASD01810990
#	Creating user name:	WinNT
#	Creation time:	15. 06. 2019 19:25

#	Modifying user name:	WinNT
#	Modification time:	15. 06. 2019 19:25

#	Program:	/corina/corina34_cracker 3.40 0067  02.08.2006

@<TRIPOS>MOLECULE
ASD01810990
  59   62    0    0    0
SMALL
NO_CHARGES


@<TRIPOS>ATOM
   1 C1            -7.3215     2.2134    -4.0020 C.1     
   2 C2            -6.3440     3.0076    -3.3205 C.ar    
   3 C3            -5.1731     2.4183    -2.8395 C.ar    
   4 C4            -4.2357     3.1893    -2.1839 C.ar    
   5 C5            -4.4538     4.5435    -2.0022 C.ar    
   6 C6            -5.6121     5.1338    -2.4759 C.ar    
   7 C7            -6.5548     4.3759    -3.1392 C.ar    
   8 N8            -8.0969     1.5833    -4.5425 N.1     
   9 N9            -2.4098     7.7982    -0.2276 N.am    
  10 C10           -1.8546     7.3097    -1.4972 C.3     
  11 C11           -2.9246     6.4838    -2.2180 C.3     
  12 C12           -3.4254     5.3792    -1.2846 C.3     
  13 C13           -4.0572     6.0078    -0.0405 C.3     
  14 C14           -3.0000     6.8284     0.7050 C.3     
  15 C15           -2.3735     9.1104     0.0781 C.2     
  16 C16           -3.0191     9.5994     1.3152 C.ar    
  17 C17           -3.9803    10.6110     1.2504 C.ar    
  18 C18           -4.5844    11.0685     2.4044 C.ar    
  19 C19           -4.2436    10.5305     3.6297 C.ar    
  20 C20           -3.2841     9.5186     3.7090 C.ar    
  21 C21           -2.6742     9.0484     2.5473 C.ar    
  22 O22           -1.8100     9.8917    -0.6632 O.2     
  23 C23           -4.9080    11.0366     4.8841 C.3     
  24 C24           -4.0333    12.1163     5.5245 C.3     
  25 C25           -4.3583    11.2045    -0.0822 C.3     
  26 C26           -5.3443    10.2754    -0.7931 C.3     
  27 O27           -2.0140     7.9665     5.2430 O.3     
  28 C28           -2.9202     8.9441     5.0211 C.2     
  29 N29           -3.4166     9.2893     6.1838 N.2     
  30 N30           -2.8697     8.5821     7.1090 N.2     
  31 C31           -2.0018     7.7568     6.5725 C.2     
  32 N32           -1.2200     6.8406     7.2480 N.pl3   
  33 H33           -5.0019     1.3612    -2.9800 H       
  34 H34           -3.3296     2.7348    -1.8113 H       
  35 H35           -5.7762     6.1913    -2.3304 H       
  36 H36           -7.4562     4.8389    -3.5127 H       
  37 H37           -1.5658     8.1566    -2.1196 H       
  38 H38           -0.9833     6.6855    -1.2988 H       
  39 H39           -3.7570     7.1302    -2.4962 H       
  40 H40           -2.4958     6.0359    -3.1145 H       
  41 H41           -2.5881     4.7480    -0.9869 H       
  42 H42           -4.8790     6.6587    -0.3392 H       
  43 H43           -4.4346     5.2212     0.6129 H       
  44 H44           -2.2221     6.1649     1.0830 H       
  45 H45           -3.4670     7.3577     1.5356 H       
  46 H46           -5.3267    11.8510     2.3486 H       
  47 H47           -1.9347     8.2633     2.6025 H       
  48 H48           -5.8817    11.4584     4.6347 H       
  49 H49           -5.0381    10.2117     5.5845 H       
  50 H50           -3.9033    12.9412     4.8240 H       
  51 H51           -4.5139    12.4824     6.4317 H       
  52 H52           -3.0597    11.6945     5.7739 H       
  53 H53           -4.8234    12.1781     0.0725 H       
  54 H54           -3.4641    11.3222    -0.6943 H       
  55 H55           -6.2385    10.1577    -0.1810 H       
  56 H56           -5.6177    10.7047    -1.7569 H       
  57 H57           -4.8791     9.3018    -0.9478 H       
  58 H58           -0.6058     6.2722     6.7576 H       
  59 H59           -1.2850     6.7655     8.2129 H       
@<TRIPOS>BOND
   1    1    2 1
   2    1    8 3
   3    2    3 ar
   4    2    7 ar
   5    3    4 ar
   6    3   33 1
   7    4    5 ar
   8    4   34 1
   9    5    6 ar
  10    5   12 1
  11    6    7 ar
  12    6   35 1
  13    7   36 1
  14    9   10 1
  15    9   14 1
  16    9   15 am
  17   10   11 1
  18   10   37 1
  19   10   38 1
  20   11   12 1
  21   11   39 1
  22   11   40 1
  23   12   13 1
  24   12   41 1
  25   13   14 1
  26   13   42 1
  27   13   43 1
  28   14   44 1
  29   14   45 1
  30   15   16 1
  31   15   22 2
  32   16   17 ar
  33   16   21 ar
  34   17   18 ar
  35   17   25 1
  36   18   19 ar
  37   18   46 1
  38   19   20 ar
  39   19   23 1
  40   20   21 ar
  41   20   28 1
  42   21   47 1
  43   23   24 1
  44   23   48 1
  45   23   49 1
  46   24   50 1
  47   24   51 1
  48   24   52 1
  49   25   26 1
  50   25   53 1
  51   25   54 1
  52   26   55 1
  53   26   56 1
  54   26   57 1
  55   27   28 1
  56   27   31 1
  57   28   29 2
  58   29   30 1
  59   30   31 2
  60   31   32 1
  61   32   58 1
  62   32   59 1

#	End of record

