#	Name: ASD01670026
#	Creating user name:	WinNT
#	Creation time:	15. 06. 2019 19:22

#	Modifying user name:	WinNT
#	Modification time:	15. 06. 2019 19:22

#	Program:	/corina/corina34_cracker 3.40 0067  02.08.2006

@<TRIPOS>MOLECULE
ASD01670026
  57   60    0    0    0
SMALL
NO_CHARGES


@<TRIPOS>ATOM
   1 C1             0.0732     1.2915    -0.6535 C.ar    
   2 C2             0.0872    -0.0793    -0.4667 C.ar    
   3 C3             1.2296     2.0232    -0.4958 C.ar    
   4 C4             1.9981     4.2624     0.7758 C.ar    
   5 C5             1.2619    -0.7220    -0.1207 C.ar    
   6 C6             1.0191     5.2306     0.6871 C.ar    
   7 C7             2.4260     1.3802    -0.1454 C.ar    
   8 C8             3.0717     4.2664    -0.1147 C.ar    
   9 C9             3.1510     5.2677    -1.1081 C.ar    
  10 C10            2.4299    -0.0015     0.0412 C.ar    
  11 C11            1.0878     6.2186    -0.2850 C.ar    
  12 C12            2.1506     6.2428    -1.1854 C.ar    
  13 C13            3.7717     1.9382     0.0775 C.2     
  14 C14            4.1150     3.2349    -0.0197 C.2     
  15 C15            4.2771     5.2852    -2.0538 C.2     
  16 C16            6.9483     0.1287    -0.2125 C.2     
  17 C17            3.8207    -0.4590     0.4102 C.3     
  18 C18            1.0314     8.1627    -1.3820 C.3     
  19 C19            4.6973     0.8006     0.4347 C.3     
  20 C20            8.0539     0.0158    -1.2303 C.3     
  21 C21            9.2706    -0.6546    -0.5894 C.3     
  22 C22           10.3931    -0.7692    -1.6227 C.3     
  23 C23           11.6099    -1.4396    -0.9818 C.3     
  24 C24           12.7324    -1.5543    -2.0151 C.3     
  25 N25           13.9006    -2.1980    -1.3997 N.3     
  26 N26            5.7721     0.6908    -0.5547 N.am    
  27 O27            4.1973     4.6804    -3.1051 O.2     
  28 O28            7.1169    -0.2861     0.9146 O.2     
  29 O29            0.2556     7.2641    -0.5672 O.3     
  30 O30            1.9855     7.2999    -2.0287 O.3     
  31 O31            5.3978     5.9722    -1.7547 O.3     
  32 H32           -0.8455     1.7885    -0.9281 H       
  33 H33           -0.8219    -0.6491    -0.5911 H       
  34 H34            1.2152     3.0932    -0.6424 H       
  35 H35            1.9350     3.5014     1.5396 H       
  36 H36            1.2663    -1.7923     0.0241 H       
  37 H37            0.1915     5.2196     1.3809 H       
  38 H38            5.1571     3.5184    -0.0280 H       
  39 H39            3.8116    -0.9283     1.3940 H       
  40 H40            4.1943    -1.1602    -0.3360 H       
  41 H41            0.3977     8.6540    -2.1203 H       
  42 H42            1.5403     8.9001    -0.7612 H       
  43 H43            5.1138     0.9511     1.4307 H       
  44 H44            7.7113    -0.5834    -2.0740 H       
  45 H45            8.3292     1.0110    -1.5796 H       
  46 H46            9.6132    -0.0554     0.2542 H       
  47 H47            8.9953    -1.6497    -0.2402 H       
  48 H48           10.0505    -1.3684    -2.4664 H       
  49 H49           10.6685     0.2259    -1.9719 H       
  50 H50           11.9525    -0.8405    -0.1381 H       
  51 H51           11.3345    -2.4348    -0.6326 H       
  52 H52           12.3898    -2.1535    -2.8587 H       
  53 H53           13.0078    -0.5591    -2.3643 H       
  54 H54           13.6555    -3.0960    -1.0104 H       
  55 H55           14.6563    -2.2853    -2.0626 H       
  56 H56            5.6372     1.0226    -1.4562 H       
  57 H57            6.1110     5.9543    -2.4074 H       
@<TRIPOS>BOND
   1    1    2 ar
   2    1    3 ar
   3    1   32 1
   4    2    5 ar
   5    2   33 1
   6    3    7 ar
   7    3   34 1
   8    4    6 ar
   9    4    8 ar
  10    4   35 1
  11    5   10 ar
  12    5   36 1
  13    6   11 ar
  14    6   37 1
  15    7   10 ar
  16    7   13 1
  17    8    9 ar
  18    8   14 1
  19    9   12 ar
  20    9   15 1
  21   10   17 1
  22   11   12 ar
  23   11   29 1
  24   12   30 1
  25   13   14 2
  26   13   19 1
  27   14   38 1
  28   15   27 2
  29   15   31 1
  30   16   20 1
  31   16   26 am
  32   16   28 2
  33   17   19 1
  34   17   39 1
  35   17   40 1
  36   18   29 1
  37   18   30 1
  38   18   41 1
  39   18   42 1
  40   19   26 1
  41   19   43 1
  42   20   21 1
  43   20   44 1
  44   20   45 1
  45   21   22 1
  46   21   46 1
  47   21   47 1
  48   22   23 1
  49   22   48 1
  50   22   49 1
  51   23   24 1
  52   23   50 1
  53   23   51 1
  54   24   25 1
  55   24   52 1
  56   24   53 1
  57   25   54 1
  58   25   55 1
  59   26   56 1
  60   31   57 1

#	End of record

