#	Name: ASD00100061
#	Creating user name:	WinNT
#	Creation time:	15. 06. 2019 18:30

#	Modifying user name:	WinNT
#	Modification time:	15. 06. 2019 18:30

#	Program:	/corina/corina34_cracker 3.40 0067  02.08.2006

@<TRIPOS>MOLECULE
ASD00100061
  74   79    0    0    0
SMALL
NO_CHARGES


@<TRIPOS>ATOM
   1 C1            -0.0180     1.4739     0.0101 C.2     
   2 C2             0.0021    -0.0041     0.0020 C.ar    
   3 C3             1.2205    -0.6863    -0.0133 C.ar    
   4 C4             1.2379    -2.0635    -0.0209 C.ar    
   5 C5             0.0397    -2.7765    -0.0133 C.ar    
   6 C6            -1.1775    -2.0964     0.0015 C.ar    
   7 C7            -1.1973    -0.7193     0.0154 C.ar    
   8 O8             1.0264     2.0960     0.0035 O.2     
   9 N9            -1.1942     2.1319     0.0193 N.am    
  10 O10            0.7976    -6.1908    -0.0380 O.3     
  11 N11            1.1225    -5.0222    -0.0353 N.2     
  12 C12            0.0598    -4.2604    -0.0215 C.2     
  13 N13           -1.0174    -5.0779    -0.0154 N.2     
  14 C14           -0.5350    -6.2954    -0.0259 C.2     
  15 C15           -1.3325    -7.5742    -0.0246 C.3     
  16 C16           -1.2141     3.5967     0.0274 C.3     
  17 C17           -2.5311     4.0922    -0.5733 C.3     
  18 C18           -2.5518     5.6221    -0.5649 C.3     
  19 C19           -2.4262     6.1259     0.8743 C.3     
  20 C20           -1.1092     5.6304     1.4750 C.3     
  21 C21           -1.0885     4.1006     1.4665 C.3     
  22 C22           -2.4470     7.6557     0.8827 C.3     
  23 C23           -2.4471     8.1578     2.3279 C.3     
  24 N24           -2.4670     9.6267     2.3360 N.3     
  25 C25           -2.7058    10.1423     3.6901 C.3     
  26 C26           -2.8648    11.6635     3.6374 C.3     
  27 C27           -1.5940    12.2847     3.0513 C.3     
  28 C28           -1.3415    11.6950     1.6609 C.3     
  29 C29           -1.2266    10.1729     1.7709 C.3     
  30 O30           -2.5442    15.7572     2.3729 O.3     
  31 C31           -2.6985    14.4292     2.2310 C.2     
  32 C32           -1.7677    13.7776     2.9412 C.2     
  33 C33           -0.9515    14.8103     3.5909 C.ar    
  34 C34           -1.5037    16.0365     3.1837 C.ar    
  35 C35            0.1501    14.7875     4.4444 C.ar    
  36 C36            0.6936    15.9739     4.8859 C.ar    
  37 C37            0.1489    17.1849     4.4843 C.ar    
  38 C38           -0.9406    17.2211     3.6404 C.ar    
  39 H39            2.1487    -0.1343    -0.0195 H       
  40 H40            2.1801    -2.5914    -0.0331 H       
  41 H41           -2.1050    -2.6497     0.0066 H       
  42 H42           -2.1401    -0.1927     0.0317 H       
  43 H43           -2.0276     1.6355     0.0206 H       
  44 H44           -0.6528    -8.4262    -0.0348 H       
  45 H45           -1.9526    -7.6147     0.8709 H       
  46 H46           -1.9688    -7.6064    -0.9090 H       
  47 H47           -0.3801     3.9747    -0.5640 H       
  48 H48           -2.6206     3.7333    -1.5986 H       
  49 H49           -3.3651     3.7143     0.0180 H       
  50 H50           -1.7178     6.0000    -1.1563 H       
  51 H51           -3.4901     5.9750    -0.9929 H       
  52 H52           -3.2602     5.7480     1.4656 H       
  53 H53           -0.2752     6.0083     0.8836 H       
  54 H54           -1.0197     5.9894     2.5003 H       
  55 H55           -1.9225     3.7226     2.0579 H       
  56 H56           -0.1502     3.7476     1.8945 H       
  57 H57           -1.5645     8.0339     0.3667 H       
  58 H58           -3.3442     8.0097     0.3750 H       
  59 H59           -3.3296     7.7797     2.8439 H       
  60 H60           -1.5498     7.8038     2.8356 H       
  61 H61           -3.6146     9.6959     4.0937 H       
  62 H62           -1.8610     9.8874     4.3300 H       
  63 H63           -3.7179    11.9186     3.0088 H       
  64 H64           -3.0265    12.0475     4.6446 H       
  65 H65           -0.7471    12.0625     3.7005 H       
  66 H66           -2.1706    11.9506     1.0012 H       
  67 H67           -0.4148    12.1016     1.2560 H       
  68 H68           -0.3887     9.9179     2.4198 H       
  69 H69           -1.0610     9.7487     0.7806 H       
  70 H70           -3.4622    13.9561     1.6315 H       
  71 H71            0.5749    13.8454     4.7582 H       
  72 H72            1.5470    15.9612     5.5476 H       
  73 H73            0.5827    18.1090     4.8367 H       
  74 H74           -1.3558    18.1700     3.3344 H       
@<TRIPOS>BOND
   1    1    2 1
   2    1    8 2
   3    1    9 am
   4    2    3 ar
   5    2    7 ar
   6    3    4 ar
   7    3   39 1
   8    4    5 ar
   9    4   40 1
  10    5    6 ar
  11    5   12 1
  12    6    7 ar
  13    6   41 1
  14    7   42 1
  15    9   16 1
  16    9   43 1
  17   10   11 1
  18   10   14 1
  19   11   12 2
  20   12   13 1
  21   13   14 2
  22   14   15 1
  23   15   44 1
  24   15   45 1
  25   15   46 1
  26   16   17 1
  27   16   21 1
  28   16   47 1
  29   17   18 1
  30   17   48 1
  31   17   49 1
  32   18   19 1
  33   18   50 1
  34   18   51 1
  35   19   20 1
  36   19   22 1
  37   19   52 1
  38   20   21 1
  39   20   53 1
  40   20   54 1
  41   21   55 1
  42   21   56 1
  43   22   23 1
  44   22   57 1
  45   22   58 1
  46   23   24 1
  47   23   59 1
  48   23   60 1
  49   24   25 1
  50   24   29 1
  51   25   26 1
  52   25   61 1
  53   25   62 1
  54   26   27 1
  55   26   63 1
  56   26   64 1
  57   27   28 1
  58   27   32 1
  59   27   65 1
  60   28   29 1
  61   28   66 1
  62   28   67 1
  63   29   68 1
  64   29   69 1
  65   30   31 1
  66   30   34 1
  67   31   32 2
  68   31   70 1
  69   32   33 1
  70   33   34 ar
  71   33   35 ar
  72   34   38 ar
  73   35   36 ar
  74   35   71 1
  75   36   37 ar
  76   36   72 1
  77   37   38 ar
  78   37   73 1
  79   38   74 1

#	End of record

