#	Name: ASD01940613
#	Creating user name:	WinNT
#	Creation time:	15. 06. 2019 20:12

#	Modifying user name:	WinNT
#	Modification time:	15. 06. 2019 20:12

#	Program:	/corina/corina34_cracker 3.40 0067  02.08.2006

@<TRIPOS>MOLECULE
ASD01940613
  49   51    0    0    0
SMALL
NO_CHARGES


@<TRIPOS>ATOM
   1 C1             0.6672     0.8001    -0.1037 C.ar    
   2 C2             0.2456    -0.5310     0.0413 C.ar    
   3 C3             1.1246    -1.4814     0.5306 C.ar    
   4 C4             2.4181    -1.1237     0.8778 C.ar    
   5 C5             2.8452     0.1857     0.7397 C.ar    
   6 C6             1.9804     1.1536     0.2503 C.ar    
   7 N7             2.4106     2.4672     0.1113 N.pl3   
   8 C8             3.4827     2.9370     0.8775 C.ar    
   9 C9             3.8162     2.3057     2.0684 C.ar    
  10 C10            4.8753     2.7716     2.8230 C.ar    
  11 C11            5.6040     3.8666     2.3945 C.ar    
  12 C12            5.2753     4.4992     1.2090 C.ar    
  13 C13            4.2205     4.0340     0.4453 C.ar    
  14 F14            3.9031     4.6479    -0.7155 F       
  15 I15            7.2086     4.5688     3.5439 I       
  16 F16            3.2677    -2.0595     1.3548 F       
  17 C17           -0.2570     1.8162    -0.6283 C.2     
  18 O18           -0.9647     2.4464     0.1346 O.2     
  19 N19           -0.3200     2.0494    -1.9542 N.am    
  20 O20           -1.0196    -0.8846    -0.2966 O.3     
  21 C21           -1.3634    -2.1956    -0.1987 C.ar    
  22 C22           -1.6662    -2.7428     1.0387 C.ar    
  23 C23           -2.0173    -4.0820     1.1350 C.ar    
  24 C24           -2.0643    -4.8701    -0.0088 C.ar    
  25 C25           -1.7619    -4.3211    -1.2396 C.ar    
  26 C26           -1.4171    -2.9863    -1.3381 C.ar    
  27 N27           -2.3227    -4.6371     2.3797 N.am    
  28 S28           -1.5497    -4.0950     3.7402 S.o2    
  29 N29           -2.0959    -2.5598     4.0355 N.am    
  30 O30           -2.0157    -4.9002     4.8143 O.2     
  31 O31           -0.1755    -3.9733     3.3994 O.2     
  32 C32           -2.4449    -6.3246     0.0940 C.3     
  33 H33            0.8015    -2.5059     0.6427 H       
  34 H34            3.8547     0.4545     1.0136 H       
  35 H35            1.9676     3.0587    -0.5170 H       
  36 H36            3.2478     1.4511     2.4046 H       
  37 H37            5.1345     2.2804     3.7493 H       
  38 H38            5.8457     5.3543     0.8775 H       
  39 H39            0.2443     1.5469    -2.5624 H       
  40 H40           -0.9298     2.7198    -2.3002 H       
  41 H41           -1.6286    -2.1281     1.9259 H       
  42 H42           -1.7990    -4.9351    -2.1273 H       
  43 H43           -1.1855    -2.5589    -2.3025 H       
  44 H44           -2.9875    -5.3402     2.4473 H       
  45 H45           -2.7522    -2.1567     3.4458 H       
  46 H46           -1.7595    -2.0636     4.7980 H       
  47 H47           -3.5250    -6.4259    -0.0124 H       
  48 H48           -1.9476    -6.8870    -0.6962 H       
  49 H49           -2.1375    -6.7128     1.0651 H       
@<TRIPOS>BOND
   1    1    2 ar
   2    1    6 ar
   3    1   17 1
   4    2    3 ar
   5    2   20 1
   6    3    4 ar
   7    3   33 1
   8    4    5 ar
   9    4   16 1
  10    5    6 ar
  11    5   34 1
  12    6    7 1
  13    7    8 1
  14    7   35 1
  15    8    9 ar
  16    8   13 ar
  17    9   10 ar
  18    9   36 1
  19   10   11 ar
  20   10   37 1
  21   11   12 ar
  22   11   15 1
  23   12   13 ar
  24   12   38 1
  25   13   14 1
  26   17   18 2
  27   17   19 am
  28   19   39 1
  29   19   40 1
  30   20   21 1
  31   21   22 ar
  32   21   26 ar
  33   22   23 ar
  34   22   41 1
  35   23   24 ar
  36   23   27 1
  37   24   25 ar
  38   24   32 1
  39   25   26 ar
  40   25   42 1
  41   26   43 1
  42   27   28 am
  43   27   44 1
  44   28   29 am
  45   28   30 2
  46   28   31 2
  47   29   45 1
  48   29   46 1
  49   32   47 1
  50   32   48 1
  51   32   49 1

#	End of record

