#	Name: ASD03740236
#	Creating user name:	WinNT
#	Creation time:	15. 06. 2019 20:46

#	Modifying user name:	WinNT
#	Modification time:	15. 06. 2019 20:46

#	Program:	/corina/corina34_cracker 3.40 0067  02.08.2006

@<TRIPOS>MOLECULE
ASD03740236
  24   24    0    0    0
SMALL
NO_CHARGES


@<TRIPOS>ATOM
   1 C1             0.0627     1.9795    -0.1418 C.2     
   2 N2             4.9275     1.1102    -0.0390 N.am    
   3 O3            -0.1079     0.7882    -0.2503 O.2     
   4 C4             1.4602     2.5347    -0.0432 C.3     
   5 N5             6.4017     2.9375    -0.1441 N.ar    
   6 O6            -0.9924     2.8088    -0.1147 O.3     
   7 C7             2.4704     1.3872    -0.1049 C.3     
   8 O8             4.0391     3.1381     0.1026 O.2     
   9 C9             3.8679     1.9424    -0.0062 C.2     
  10 C10            6.2215     1.6294    -0.0566 C.ar    
  11 C11            7.3102     0.7679     0.0185 C.ar    
  12 C12            8.5889     1.2958     0.0005 C.ar    
  13 C13            8.7354     2.6741    -0.0923 C.ar    
  14 C14            7.6086     3.4703    -0.1634 C.ar    
  15 Br15          10.4586     3.4522    -0.1204 Br      
  16 H16            4.7900     0.1501    -0.0504 H       
  17 H17            1.6381     3.2202    -0.8717 H       
  18 H18            1.5735     3.0681     0.9005 H       
  19 H19           -1.8689     2.4065    -0.1851 H       
  20 H20            2.2925     0.7016     0.7237 H       
  21 H21            2.3571     0.8537    -1.0486 H       
  22 H22            7.1597    -0.2992     0.0901 H       
  23 H23            9.4535     0.6511     0.0578 H       
  24 H24            7.7170     4.5424    -0.2360 H       
@<TRIPOS>BOND
   1    1    3 2
   2    1    4 1
   3    1    6 1
   4    2    9 am
   5    2   10 1
   6    2   16 1
   7    4    7 1
   8    4   17 1
   9    4   18 1
  10    5   10 ar
  11    5   14 ar
  12    6   19 1
  13    7    9 1
  14    7   20 1
  15    7   21 1
  16    8    9 2
  17   10   11 ar
  18   11   12 ar
  19   11   22 1
  20   12   13 ar
  21   12   23 1
  22   13   14 ar
  23   13   15 1
  24   14   24 1

#	End of record

