#	Name: ASD05430717
#	Creating user name:	WinNT
#	Creation time:	15. 06. 2019 21:00

#	Modifying user name:	WinNT
#	Modification time:	15. 06. 2019 21:00

#	Program:	/corina/corina34_cracker 3.40 0067  02.08.2006

@<TRIPOS>MOLECULE
ASD05430717
  66   71    0    0    0
SMALL
NO_CHARGES


@<TRIPOS>ATOM
   1 C1            -0.1574     1.4407     0.4426 C.2     
   2 C2            -0.1027     0.0721     0.1360 C.2     
   3 N3            -1.2701    -0.6647     0.0730 N.pl3   
   4 C4            -2.3602    -0.1090     0.7308 C.2     
   5 N5            -2.5259     1.2596     0.7742 N.am    
   6 C6            -1.4510     2.0894     0.6856 C.2     
   7 O7            -1.5560     3.2965     0.8037 O.2     
   8 C8            -3.8703     1.8246     0.9150 C.3     
   9 C9            -3.9746     2.5665     2.2490 C.3     
  10 C10           -4.1323     2.7854    -0.2161 C.ar    
  11 C11           -3.6844     2.4910    -1.4900 C.ar    
  12 C12           -3.9246     3.3731    -2.5300 C.ar    
  13 C13           -4.6136     4.5501    -2.2934 C.ar    
  14 C14           -5.0617     4.8439    -1.0171 C.ar    
  15 C15           -4.8252     3.9577     0.0203 C.ar    
  16 N16            1.0988     1.9057     0.4428 N.2     
  17 C17            1.9199     0.9185     0.1557 C.2     
  18 N18            1.1937    -0.2356    -0.0409 N.pl3   
  19 F19           -5.7338     5.9926    -0.7846 F       
  20 F20           -3.4864     3.0853    -3.7751 F       
  21 N21           -3.2321    -0.8858     1.3103 N.2     
  22 C22           -2.9871    -2.3277     1.3937 C.3     
  23 C23           -2.1789    -2.8391     2.5879 C.3     
  24 C24           -3.6849    -3.0991     2.5158 C.3     
  25 C25           -1.3524    -1.9428    -0.6384 C.3     
  26 C26            3.3908     1.0300     0.0595 C.ar    
  27 C27            4.0147     2.2585     0.2820 C.ar    
  28 C28            5.3909     2.3584     0.1910 C.ar    
  29 C29            6.1517     1.2332    -0.1225 C.ar    
  30 C30            5.5300     0.0117    -0.3441 C.ar    
  31 C31            4.1588    -0.0945    -0.2485 C.ar    
  32 N32            7.5471     1.3353    -0.2146 N.pl3   
  33 C33            8.2438     2.2592    -0.9256 C.2     
  34 N34            9.5192     2.0323    -0.7648 N.2     
  35 C35            9.6839     0.9729     0.0411 C.2     
  36 C36            8.4658     0.5250     0.4007 C.2     
  37 C37           11.0037     0.3880     0.4733 C.3     
  38 O38            6.0017     3.5537     0.4068 O.3     
  39 C39            5.1603     4.6644     0.7232 C.3     
  40 H40           -4.6067     1.0214     0.8874 H       
  41 H41           -4.9748     2.9869     2.3537 H       
  42 H42           -3.7851     1.8716     3.0670 H       
  43 H43           -3.2382     3.3697     2.2766 H       
  44 H44           -3.1466     1.5728    -1.6743 H       
  45 H45           -4.8011     5.2389    -3.1039 H       
  46 H46           -5.1750     4.1865     1.0161 H       
  47 H47            1.5517    -1.1087    -0.2651 H       
  48 H48           -2.8530    -2.8378     0.4398 H       
  49 H49           -1.5133    -3.6857     2.4198 H       
  50 H50           -1.8294    -2.1026     3.3115 H       
  51 H51           -4.3262    -2.5337     3.1919 H       
  52 H52           -4.0101    -4.1168     2.3002 H       
  53 H53           -1.1328    -2.7575     0.0516 H       
  54 H54           -2.3568    -2.0696    -1.0425 H       
  55 H55           -0.6289    -1.9521    -1.4536 H       
  56 H56            3.4238     3.1294     0.5245 H       
  57 H57            6.1223    -0.8581    -0.5872 H       
  58 H58            3.6777    -1.0460    -0.4210 H       
  59 H59            7.8145     3.0490    -1.5242 H       
  60 H60            8.2534    -0.3153     1.0451 H       
  61 H61           11.3302     0.8697     1.3950 H       
  62 H62           10.8883    -0.6824     0.6439 H       
  63 H63           11.7473     0.5536    -0.3063 H       
  64 H64            4.4618     4.8361    -0.0958 H       
  65 H65            4.6043     4.4506     1.6361 H       
  66 H66            5.7728     5.5539     0.8708 H       
@<TRIPOS>BOND
   1    1    2 2
   2    1   16 1
   3    1    6 1
   4    2    3 1
   5    2   18 1
   6    3    4 1
   7    3   25 1
   8    4    5 1
   9    4   21 2
  10    5    6 am
  11    5    8 1
  12    6    7 2
  13    8    9 1
  14    8   10 1
  15    8   40 1
  16    9   41 1
  17    9   42 1
  18    9   43 1
  19   10   11 ar
  20   10   15 ar
  21   11   12 ar
  22   11   44 1
  23   12   13 ar
  24   12   20 1
  25   13   14 ar
  26   13   45 1
  27   14   15 ar
  28   14   19 1
  29   15   46 1
  30   16   17 2
  31   17   18 1
  32   17   26 1
  33   18   47 1
  34   21   22 1
  35   22   23 1
  36   22   24 1
  37   22   48 1
  38   23   24 1
  39   23   49 1
  40   23   50 1
  41   24   51 1
  42   24   52 1
  43   25   53 1
  44   25   54 1
  45   25   55 1
  46   26   27 ar
  47   26   31 ar
  48   27   28 ar
  49   27   56 1
  50   28   29 ar
  51   28   38 1
  52   29   30 ar
  53   29   32 1
  54   30   31 ar
  55   30   57 1
  56   31   58 1
  57   32   33 1
  58   32   36 1
  59   33   34 2
  60   33   59 1
  61   34   35 1
  62   35   36 2
  63   35   37 1
  64   36   60 1
  65   37   61 1
  66   37   62 1
  67   37   63 1
  68   38   39 1
  69   39   64 1
  70   39   65 1
  71   39   66 1

#	End of record

