#	Name: ASD01813325
#	Creating user name:	WinNT
#	Creation time:	15. 06. 2019 19:30

#	Modifying user name:	WinNT
#	Modification time:	15. 06. 2019 19:30

#	Program:	/corina/corina34_cracker 3.40 0067  02.08.2006

@<TRIPOS>MOLECULE
ASD01813325
  62   66    0    0    0
SMALL
NO_CHARGES


@<TRIPOS>ATOM
   1 C1             1.2329     2.5779    -2.1977 C.2     
   2 C2             1.0631     1.2881    -1.6765 C.2     
   3 C3             2.1484     0.4744    -1.5311 C.2     
   4 C4             3.4183     0.9434    -1.9065 C.2     
   5 N5             3.5551     2.2076    -2.4124 N.am    
   6 C6             2.4632     3.0117    -2.5534 C.2     
   7 C7             4.5353     0.1092    -1.7580 C.2     
   8 C8             5.7734     0.5552    -2.1192 C.2     
   9 C9             5.9103     1.8555    -2.6395 C.2     
  10 C10            4.7681     2.6705    -2.7763 C.2     
  11 O11            4.8774     3.7984    -3.2266 O.2     
  12 C12            7.2280     2.3582    -3.0342 C.2     
  13 O13            7.3525     3.6057    -3.5323 O.3     
  14 O14            8.2102     1.6509    -2.9128 O.2     
  15 C15            4.3686    -1.2803    -1.1989 C.3     
  16 C16            4.2316    -2.2799    -2.3491 C.3     
  17 N17            4.0692    -3.6343    -1.8041 N.3     
  18 C18            3.6999    -4.5842    -2.8584 C.3     
  19 C19            3.6339    -5.9844    -2.3073 C.ar    
  20 C20            4.2229    -6.3226    -1.1079 C.ar    
  21 C21            4.9616    -5.3066    -0.2750 C.3     
  22 C22            5.2958    -4.0797    -1.1239 C.3     
  23 C23            2.9587    -6.9508    -3.0387 C.ar    
  24 C24            2.8758    -8.2473    -2.5729 C.ar    
  25 C25            3.4688    -8.5864    -1.3709 C.ar    
  26 C26            4.1405    -7.6260    -0.6417 C.ar    
  27 C27            2.3324    -4.2005    -3.4274 C.3     
  28 C28            2.2503    -4.6327    -4.8927 C.3     
  29 C29            0.8829    -4.2490    -5.4618 C.3     
  30 C30           -0.2173    -4.9488    -4.6612 C.3     
  31 C31           -0.1351    -4.5166    -3.1958 C.3     
  32 C32            1.2323    -4.9003    -2.6268 C.3     
  33 H33            0.3776     3.2259    -2.3197 H       
  34 H34            0.0808     0.9411    -1.3918 H       
  35 H35            2.0324    -0.5218    -1.1305 H       
  36 H36            2.5824     4.0077    -2.9538 H       
  37 H37            6.6380    -0.0822    -2.0067 H       
  38 H38            8.2423     3.8932    -3.7788 H       
  39 H39            5.2403    -1.5366    -0.5967 H       
  40 H40            3.4740    -1.3169    -0.5772 H       
  41 H41            3.3600    -2.0236    -2.9513 H       
  42 H42            5.1262    -2.2432    -2.9708 H       
  43 H43            4.4438    -4.5455    -3.6541 H       
  44 H44            4.3374    -5.0056     0.5663 H       
  45 H45            5.8843    -5.7488     0.1008 H       
  46 H46            6.0510    -4.3418    -1.8650 H       
  47 H47            5.6694    -3.2814    -0.4826 H       
  48 H48            2.4951    -6.6869    -3.9778 H       
  49 H49            2.3484    -8.9954    -3.1461 H       
  50 H50            3.4064    -9.6000    -1.0033 H       
  51 H51            4.6039    -7.8910     0.2972 H       
  52 H52            2.2005    -3.1206    -3.3591 H       
  53 H53            3.0341    -4.1341    -5.4631 H       
  54 H54            2.3822    -5.7125    -4.9610 H       
  55 H55            0.7509    -3.1691    -5.3935 H       
  56 H56            0.8244    -4.5569    -6.5057 H       
  57 H57           -1.1914    -4.6754    -5.0666 H       
  58 H58           -0.0853    -6.0286    -4.7295 H       
  59 H59           -0.2670    -3.4367    -3.1276 H       
  60 H60           -0.9189    -5.0151    -2.6255 H       
  61 H61            1.3643    -5.9801    -2.6951 H       
  62 H62            1.2908    -4.5924    -1.5828 H       
@<TRIPOS>BOND
   1    1    2 1
   2    1    6 2
   3    1   33 1
   4    2    3 2
   5    2   34 1
   6    3    4 1
   7    3   35 1
   8    4    5 1
   9    4    7 2
  10    5    6 1
  11    5   10 am
  12    6   36 1
  13    7    8 1
  14    7   15 1
  15    8    9 2
  16    8   37 1
  17    9   10 1
  18    9   12 1
  19   10   11 2
  20   12   13 1
  21   12   14 2
  22   13   38 1
  23   15   16 1
  24   15   39 1
  25   15   40 1
  26   16   17 1
  27   16   41 1
  28   16   42 1
  29   17   18 1
  30   17   22 1
  31   18   19 1
  32   18   27 1
  33   18   43 1
  34   19   20 ar
  35   19   23 ar
  36   20   21 1
  37   20   26 ar
  38   21   22 1
  39   21   44 1
  40   21   45 1
  41   22   46 1
  42   22   47 1
  43   23   24 ar
  44   23   48 1
  45   24   25 ar
  46   24   49 1
  47   25   26 ar
  48   25   50 1
  49   26   51 1
  50   27   28 1
  51   27   32 1
  52   27   52 1
  53   28   29 1
  54   28   53 1
  55   28   54 1
  56   29   30 1
  57   29   55 1
  58   29   56 1
  59   30   31 1
  60   30   57 1
  61   30   58 1
  62   31   32 1
  63   31   59 1
  64   31   60 1
  65   32   61 1
  66   32   62 1

#	End of record

