#	Name: ASD00120019
#	Creating user name:	WinNT
#	Creation time:	15. 06. 2019 18:31

#	Modifying user name:	WinNT
#	Modification time:	15. 06. 2019 18:31

#	Program:	/corina/corina34_cracker 3.40 0067  02.08.2006

@<TRIPOS>MOLECULE
ASD00120019
  20   21    0    0    0
SMALL
NO_CHARGES


@<TRIPOS>ATOM
   1 N1            -0.0165     1.3638     0.0095 N.pl3   
   2 C2             0.0021    -0.0041     0.0020 C.2     
   3 C3             1.2701    -0.4446    -0.0124 C.2     
   4 C4             2.1349     0.7378    -0.0143 C.ar    
   5 C5             3.5188     0.9265    -0.0265 C.ar    
   6 C6             4.0324     2.2078    -0.0246 C.ar    
   7 C7             3.1771     3.3069    -0.0100 C.ar    
   8 C8             1.8114     3.1326     0.0021 C.ar    
   9 C9             1.2740     1.8496    -0.0002 C.ar    
  10 O10            5.3789     2.3977    -0.0364 O.3     
  11 C11            5.8436     3.7490    -0.0336 C.3     
  12 H12           -0.8178     1.9103     0.0165 H       
  13 H13           -0.8737    -0.6360     0.0073 H       
  14 H14            1.5918    -1.4755    -0.0207 H       
  15 H15            4.1831     0.0750    -0.0371 H       
  16 H16            3.5891     4.3052    -0.0079 H       
  17 H17            1.1574     3.9920     0.0136 H       
  18 H18            5.4674     4.2644    -0.9172 H       
  19 H19            5.4843     4.2549     0.8626 H       
  20 H20            6.9335     3.7584    -0.0439 H       
@<TRIPOS>BOND
   1    1    2 1
   2    1    9 1
   3    1   12 1
   4    2    3 2
   5    2   13 1
   6    3    4 1
   7    3   14 1
   8    4    5 ar
   9    4    9 ar
  10    5    6 ar
  11    5   15 1
  12    6    7 ar
  13    6   10 1
  14    7    8 ar
  15    7   16 1
  16    8    9 ar
  17    8   17 1
  18   10   11 1
  19   11   18 1
  20   11   19 1
  21   11   20 1

#	End of record

