#	Name: ASD00461032
#	Creating user name:	WinNT
#	Creation time:	15. 06. 2019 18:36

#	Modifying user name:	WinNT
#	Modification time:	15. 06. 2019 18:36

#	Program:	/corina/corina34_cracker 3.40 0067  02.08.2006

@<TRIPOS>MOLECULE
ASD00461032
  50   52    0    0    0
SMALL
NO_CHARGES


@<TRIPOS>ATOM
   1 C1            -0.0167     1.3833     0.0096 C.ar    
   2 C2             0.0021    -0.0041     0.0020 C.ar    
   3 C3             1.1706     2.0890     0.0021 C.ar    
   4 C4             1.2139    -0.6788    -0.0132 C.ar    
   5 C5             2.3774     1.4139    -0.0135 C.ar    
   6 C6             2.3988     0.0317    -0.0207 C.ar    
   7 C7             3.7158    -0.7008    -0.0367 C.3     
   8 N8             4.6677    -0.0161     0.8482 N.3     
   9 C9             5.6992    -0.9441     1.3306 C.3     
  10 C10            6.6552    -0.2075     2.2332 C.ar    
  11 C11            6.4083    -0.1403     3.5892 C.ar    
  12 C12            7.7813     0.3949     1.7012 C.ar    
  13 C13            7.2927     0.5410     4.4231 C.ar    
  14 C14            8.6630     1.0725     2.5230 C.ar    
  15 C15            8.4232     1.1514     3.8814 C.ar    
  16 H16            5.0838     0.7785     0.3860 H       
  17 C17            7.0321     0.6170     5.8818 C.ar    
  18 C18            8.0372     0.2895     6.7897 C.ar    
  19 C19            7.7895     0.3624     8.1455 C.ar    
  20 C20            6.5463     0.7598     8.6036 C.ar    
  21 C21            5.5448     1.0857     7.7068 C.ar    
  22 C22            5.7833     1.0218     6.3489 C.ar    
  23 Cl23           9.5306     2.0027     4.9123 Cl      
  24 O24           -1.1648    -0.7007     0.0099 O.3     
  25 C25           -2.3744     0.0601     0.0260 C.3     
  26 C26            6.2818     0.8375    10.0851 C.3     
  27 F27            6.6036     2.1173    10.5498 F       
  28 F28            4.9293     0.5784    10.3316 F       
  29 F29            7.0669    -0.1109    10.7494 F       
  30 C30            4.2699    -0.7226    -1.4626 C.3     
  31 H31           -0.9590     1.9110     0.0170 H       
  32 H32            1.1565     3.1689     0.0080 H       
  33 H33            1.2312    -1.7587    -0.0188 H       
  34 H34            3.3047     1.9675    -0.0197 H       
  35 H35            3.5672    -1.7231     0.3111 H       
  36 H36            5.2275    -1.7551     1.8854 H       
  37 H37            6.2449    -1.3545     0.4809 H       
  38 H38            5.5309    -0.6146     4.0034 H       
  39 H39            7.9726     0.3354     0.6399 H       
  40 H40            9.5405     1.5410     2.1023 H       
  41 H41            9.0081    -0.0213     6.4331 H       
  42 H42            8.5676     0.1084     8.8500 H       
  43 H43            4.5758     1.3950     8.0699 H       
  44 H44            5.0008     1.2768     5.6496 H       
  45 H45           -2.3995     0.6837     0.9196 H       
  46 H46           -2.4172     0.6932    -0.8603 H       
  47 H47           -3.2290    -0.6164     0.0308 H       
  48 H48            3.5636    -1.2307    -2.1192 H       
  49 H49            4.4185     0.2997    -1.8104 H       
  50 H50            5.2224    -1.2524    -1.4742 H       
@<TRIPOS>BOND
   1    1    2 ar
   2    1    3 ar
   3    1   31 1
   4    2    4 ar
   5    2   24 1
   6    3    5 ar
   7    3   32 1
   8    4    6 ar
   9    4   33 1
  10    5    6 ar
  11    5   34 1
  12    6    7 1
  13    7    8 1
  14    7   30 1
  15    7   35 1
  16    8    9 1
  17    8   16 1
  18    9   10 1
  19    9   36 1
  20    9   37 1
  21   10   11 ar
  22   10   12 ar
  23   11   13 ar
  24   11   38 1
  25   12   14 ar
  26   12   39 1
  27   13   17 1
  28   13   15 ar
  29   14   15 ar
  30   14   40 1
  31   15   23 1
  32   17   18 ar
  33   17   22 ar
  34   18   19 ar
  35   18   41 1
  36   19   20 ar
  37   19   42 1
  38   20   21 ar
  39   20   26 1
  40   21   22 ar
  41   21   43 1
  42   22   44 1
  43   24   25 1
  44   25   45 1
  45   25   46 1
  46   25   47 1
  47   26   27 1
  48   26   28 1
  49   26   29 1
  50   30   48 1
  51   30   49 1
  52   30   50 1

#	End of record

