#	Name: ASD01230021
#	Creating user name:	WinNT
#	Creation time:	15. 06. 2019 19:11

#	Modifying user name:	WinNT
#	Modification time:	15. 06. 2019 19:11

#	Program:	/corina/corina34_cracker 3.40 0067  02.08.2006

@<TRIPOS>MOLECULE
ASD01230021
  42   44    0    0    0
SMALL
NO_CHARGES


@<TRIPOS>ATOM
   1 C1            -1.6005     1.7638     0.9177 C.3     
   2 C2            -1.7331     0.2654     1.1975 C.3     
   3 C3            -3.1964    -0.0709     1.4918 C.3     
   4 S4            -1.1771    -0.6720    -0.2526 S.o2    
   5 O5            -2.0665    -0.4769    -1.3435 O.2     
   6 O6             0.2280    -0.5432    -0.4209 O.2     
   7 N7            -1.3938    -2.2577     0.1725 N.am    
   8 C8            -1.5152    -3.4671     2.3307 C.3     
   9 C9            -0.6003    -2.8403     1.2574 C.3     
  10 C10            0.2046    -4.0578     0.7557 C.3     
  11 C11            0.2197    -5.0288     1.9172 C.ar    
  12 C12            1.0337    -6.1201     2.1596 C.ar    
  13 C13            0.8600    -6.8784     3.3140 C.ar    
  14 C14           -0.1377    -6.5321     4.2234 C.ar    
  15 C15           -0.9445    -5.4424     3.9736 C.ar    
  16 C16           -0.7691    -4.6893     2.8230 C.ar    
  17 C17            1.7330    -8.0492     3.5753 C.ar    
  18 C18            2.3699    -8.1984     4.8092 C.ar    
  19 C19            3.1745    -9.3086     5.0037 C.ar    
  20 C20            3.3214   -10.2265     3.9805 C.ar    
  21 N21            2.7082   -10.0607     2.8241 N.ar    
  22 C22            1.9269    -9.0230     2.5937 C.ar    
  23 F23            1.3141    -8.8984     1.3961 F       
  24 H24           -1.9346     2.3271     1.7890 H       
  25 H25           -0.5581     2.0034     0.7080 H       
  26 H26           -2.2144     2.0283     0.0567 H       
  27 H27           -1.1192     0.0009     2.0584 H       
  28 H28           -3.8201     0.2649     0.6634 H       
  29 H29           -3.3040    -1.1487     1.6140 H       
  30 H30           -3.5075     0.4315     2.4077 H       
  31 H31           -2.0462    -2.8009    -0.2969 H       
  32 H32           -1.6733    -2.7653     3.1496 H       
  33 H33           -2.4693    -3.7581     1.8913 H       
  34 H34            0.0581    -2.0920     1.6986 H       
  35 H35           -0.2877    -4.5073    -0.1067 H       
  36 H36            1.2210    -3.7595     0.4989 H       
  37 H37            1.8053    -6.3848     1.4518 H       
  38 H38           -0.2786    -7.1158     5.1211 H       
  39 H39           -1.7179    -5.1742     4.6781 H       
  40 H40            2.2386    -7.4661     5.5921 H       
  41 H41            3.6826    -9.4557     5.9454 H       
  42 H42            3.9484   -11.0930     4.1300 H       
@<TRIPOS>BOND
   1    1    2 1
   2    1   24 1
   3    1   25 1
   4    1   26 1
   5    2    3 1
   6    2    4 1
   7    2   27 1
   8    3   28 1
   9    3   29 1
  10    3   30 1
  11    4    5 2
  12    4    6 2
  13    4    7 am
  14    7    9 1
  15    7   31 1
  16    8    9 1
  17    8   16 1
  18    8   32 1
  19    8   33 1
  20    9   10 1
  21    9   34 1
  22   10   11 1
  23   10   35 1
  24   10   36 1
  25   11   12 ar
  26   11   16 ar
  27   12   13 ar
  28   12   37 1
  29   13   14 ar
  30   13   17 1
  31   14   15 ar
  32   14   38 1
  33   15   16 ar
  34   15   39 1
  35   17   18 ar
  36   17   22 ar
  37   18   19 ar
  38   18   40 1
  39   19   20 ar
  40   19   41 1
  41   20   21 ar
  42   20   42 1
  43   21   22 ar
  44   22   23 1

#	End of record

