#	Name: ASD01152497
#	Creating user name:	WinNT
#	Creation time:	15. 06. 2019 19:05

#	Modifying user name:	WinNT
#	Modification time:	15. 06. 2019 19:05

#	Program:	/corina/corina34_cracker 3.40 0067  02.08.2006

@<TRIPOS>MOLECULE
ASD01152497
  50   52    0    0    0
SMALL
NO_CHARGES


@<TRIPOS>ATOM
   1 C1             0.1107     1.1569    -0.6966 C.2     
   2 N2             0.0185    -0.1438    -0.6179 N.2     
   3 N3            -1.1208    -0.7663    -0.1082 N.am    
   4 C4            -2.2617    -0.0995     0.1332 C.2     
   5 C5            -2.3931     1.3532    -0.2596 C.3     
   6 C6            -1.0091     1.9734    -0.2041 C.2     
   7 C7            -2.9569     1.4574    -1.6781 C.3     
   8 O8            -0.8366     3.0970     0.2213 O.2     
   9 C9            -1.0736    -2.1392     0.1619 C.ar    
  10 O10           -3.1905    -0.6664     0.6685 O.2     
  11 C11           -3.2001     2.9055    -2.0168 C.ar    
  12 C12           -0.0101    -2.6697     0.8787 C.ar    
  13 C13           -2.0943    -2.9704    -0.2825 C.ar    
  14 C14           -2.0494    -4.3253    -0.0164 C.ar    
  15 C15           -0.9885    -4.8585     0.6937 C.ar    
  16 C16            0.0336    -4.0301     1.1451 C.ar    
  17 C17           -4.4531     3.4570    -1.8327 C.ar    
  18 C18           -4.6781     4.7852    -2.1434 C.ar    
  19 C19           -3.6480     5.5661    -2.6400 C.ar    
  20 C20           -2.3913     5.0173    -2.8259 C.ar    
  21 C21           -2.1638     3.6867    -2.5085 C.ar    
  22 F22           -3.8700     6.8637    -2.9434 F       
  23 F23           -0.9475    -6.1838     0.9529 F       
  24 N24            1.1054    -4.5690     1.8677 N.am    
  25 C25            1.7698    -3.8055     2.7576 C.2     
  26 O26            1.5003    -2.6279     2.8670 O.2     
  27 C27            2.8477    -4.4147     3.6167 C.3     
  28 O28            1.2204     1.7434    -1.2173 O.3     
  29 C29            2.2629     0.8753    -1.6664 C.3     
  30 O30           -0.9307     3.1452    -2.6900 O.3     
  31 C31            0.0849     4.0045    -3.2117 C.3     
  32 H32           -3.0535     1.8663     0.4395 H       
  33 H33           -2.2432     1.0339    -2.3847 H       
  34 H34           -3.8963     0.9077    -1.7370 H       
  35 H35            0.7823    -2.0243     1.2281 H       
  36 H36           -2.9241    -2.5568    -0.8365 H       
  37 H37           -2.8440    -4.9694    -0.3629 H       
  38 H38           -5.2581     2.8497    -1.4458 H       
  39 H39           -5.6587     5.2142    -1.9989 H       
  40 H40           -1.5876     5.6257    -3.2135 H       
  41 H41            1.3695    -5.4918     1.7277 H       
  42 H42            3.8076    -4.3348     3.1065 H       
  43 H43            2.8967    -3.8851     4.5681 H       
  44 H44            2.6183    -5.4650     3.7969 H       
  45 H45            2.6160     0.2695    -0.8318 H       
  46 H46            1.8800     0.2237    -2.4519 H       
  47 H47            3.0879     1.4704    -2.0580 H       
  48 H48           -0.2197     4.3742    -4.1908 H       
  49 H49            0.2314     4.8464    -2.5350 H       
  50 H50            1.0175     3.4486    -3.3073 H       
@<TRIPOS>BOND
   1    1    2 2
   2    1   28 1
   3    1    6 1
   4    2    3 1
   5    3    4 am
   6    3    9 1
   7    4    5 1
   8    4   10 2
   9    5    6 1
  10    5    7 1
  11    5   32 1
  12    6    8 2
  13    7   11 1
  14    7   33 1
  15    7   34 1
  16    9   12 ar
  17    9   13 ar
  18   11   17 ar
  19   11   21 ar
  20   12   16 ar
  21   12   35 1
  22   13   14 ar
  23   13   36 1
  24   14   15 ar
  25   14   37 1
  26   15   16 ar
  27   15   23 1
  28   16   24 1
  29   17   18 ar
  30   17   38 1
  31   18   19 ar
  32   18   39 1
  33   19   20 ar
  34   19   22 1
  35   20   21 ar
  36   20   40 1
  37   21   30 1
  38   24   25 am
  39   24   41 1
  40   25   26 2
  41   25   27 1
  42   27   42 1
  43   27   43 1
  44   27   44 1
  45   28   29 1
  46   29   45 1
  47   29   46 1
  48   29   47 1
  49   30   31 1
  50   31   48 1
  51   31   49 1
  52   31   50 1

#	End of record

