#	Name: ASD02560290
#	Creating user name:	WinNT
#	Creation time:	15. 06. 2019 20:25

#	Modifying user name:	WinNT
#	Modification time:	15. 06. 2019 20:25

#	Program:	/corina/corina34_cracker 3.40 0067  02.08.2006

@<TRIPOS>MOLECULE
ASD02560290
  48   50    0    0    0
SMALL
NO_CHARGES


@<TRIPOS>ATOM
   1 N1             0.4643     1.3221    -0.0981 N.ar    
   2 C2             0.4528    -0.0062    -0.0970 C.ar    
   3 C3             1.6473    -0.6916     0.1173 C.ar    
   4 C4             2.7993     0.0450     0.3208 C.ar    
   5 N5             2.7311     1.3680     0.3055 N.ar    
   6 C6             1.5852     1.9856     0.0999 C.ar    
   7 O7            -0.7027    -0.6845    -0.3008 O.3     
   8 C8            -1.8364     0.0343    -0.5039 C.ar    
   9 C9            -4.1501     1.5017    -0.9186 C.ar    
  10 C10           -3.7740     1.1377     0.3773 C.ar    
  11 C11           -2.6228     0.4088     0.5790 C.ar    
  12 C12           -2.2042     0.3983    -1.7937 C.ar    
  13 C13           -3.3533     1.1279    -2.0042 C.ar    
  14 C14           -2.2157     0.0165     1.9759 C.3     
  15 C15           -1.3443    -0.0053    -2.9636 C.3     
  16 C16           -5.3461     2.2595    -1.1329 C.1     
  17 N17           -6.2949     2.8606    -1.3029 N.1     
  18 S18            1.5513     3.7473     0.0891 S.o2    
  19 C19            1.2343     4.2045     1.8157 C.3     
  20 C20            1.1823     5.7058     1.9364 C.2     
  21 N21            0.9569     6.2780     3.1356 N.am    
  22 C22            1.0053     7.6706     3.2666 C.ar    
  23 O23            1.3432     6.3990     0.9543 O.2     
  24 C24            1.5552     9.6175     4.5541 C.ar    
  25 C25            1.5086     8.2430     4.4274 C.ar    
  26 C26            0.5553     8.4826     2.2338 C.ar    
  27 C27            0.6042     9.8564     2.3658 C.ar    
  28 C28            1.1013    10.4240     3.5256 C.ar    
  29 O29            2.8684     4.1208    -0.2918 O.2     
  30 O30            0.4333     4.0713    -0.7259 O.2     
  31 Br31           1.1655    12.3056     3.7031 Br      
  32 H32            1.6723    -1.7713     0.1247 H       
  33 H33            3.7431    -0.4519     0.4904 H       
  34 H34           -4.3868     1.4245     1.2190 H       
  35 H35           -3.6404     1.4073    -3.0072 H       
  36 H36           -2.6541    -0.9501     2.2241 H       
  37 H37           -1.1293    -0.0522     2.0320 H       
  38 H38           -2.5692     0.7679     2.6819 H       
  39 H39           -1.6731    -0.9744    -3.3389 H       
  40 H40           -1.4335     0.7397    -3.7542 H       
  41 H41           -0.3045    -0.0732    -2.6439 H       
  42 H42            0.2818     3.7811     2.1347 H       
  43 H43            2.0338     3.8167     2.4469 H       
  44 H44            0.7611     5.7247     3.9079 H       
  45 H45            1.9466    10.0631     5.4567 H       
  46 H46            1.8630     7.6139     5.2306 H       
  47 H47            0.1678     8.0400     1.3281 H       
  48 H48            0.2544    10.4884     1.5629 H       
@<TRIPOS>BOND
   1    1    2 ar
   2    1    6 ar
   3    2    3 ar
   4    2    7 1
   5    3    4 ar
   6    3   32 1
   7    4    5 ar
   8    4   33 1
   9    5    6 ar
  10    6   18 1
  11    7    8 1
  12    8   12 ar
  13    8   11 ar
  14    9   10 ar
  15    9   13 ar
  16    9   16 1
  17   10   11 ar
  18   10   34 1
  19   11   14 1
  20   12   13 ar
  21   12   15 1
  22   13   35 1
  23   14   36 1
  24   14   37 1
  25   14   38 1
  26   15   39 1
  27   15   40 1
  28   15   41 1
  29   16   17 3
  30   18   19 1
  31   18   29 2
  32   18   30 2
  33   19   20 1
  34   19   42 1
  35   19   43 1
  36   20   21 am
  37   20   23 2
  38   21   22 1
  39   21   44 1
  40   22   26 ar
  41   22   25 ar
  42   24   25 ar
  43   24   28 ar
  44   24   45 1
  45   25   46 1
  46   26   27 ar
  47   26   47 1
  48   27   28 ar
  49   27   48 1
  50   28   31 1

#	End of record

