#	Name: ASD03731090
#	Creating user name:	WinNT
#	Creation time:	15. 06. 2019 20:45

#	Modifying user name:	WinNT
#	Modification time:	15. 06. 2019 20:45

#	Program:	/corina/corina34_cracker 3.40 0067  02.08.2006

@<TRIPOS>MOLECULE
ASD03731090
  45   50    0    0    0
SMALL
NO_CHARGES


@<TRIPOS>ATOM
   1 O1             0.1057     1.3425     0.6582 O.3     
   2 C2             0.1407    -0.0847     0.8453 C.3     
   3 O3             1.4316    -0.4656     0.3344 O.3     
   4 C4             2.2257     0.6344     0.4905 C.ar    
   5 C5             1.4099     1.7459     0.6885 C.ar    
   6 C6             3.6014     0.7791     0.4804 C.ar    
   7 C7             4.1800     2.0311     0.6653 C.ar    
   8 C8             3.3545     3.1354     0.8539 C.ar    
   9 C9             1.9826     2.9934     0.8708 C.ar    
  10 O10            5.4963     2.3855     0.7071 O.3     
  11 C11            4.2607     4.3293     0.9935 C.3     
  12 C12            5.6132     3.8052     0.4918 C.3     
  13 N13            3.6136     6.5205     1.0578 N.am    
  14 C14            3.7820     5.5034     0.1892 C.2     
  15 C15            4.3412     4.8222     2.4079 C.ar    
  16 C16            4.7088     4.2378     3.5994 C.ar    
  17 C17            4.6779     4.9737     4.7705 C.ar    
  18 C18            4.2770     6.2970     4.7414 C.ar    
  19 C19            3.9070     6.8866     3.5507 C.ar    
  20 C20            3.9353     6.1536     2.3667 C.ar    
  21 O21            3.5858     5.5313    -1.0073 O.2     
  22 C22            3.1483     7.8554     0.6736 C.3     
  23 C23            4.3344     8.7650     0.4819 C.ar    
  24 C24            5.0074     8.7784    -0.7272 C.ar    
  25 C25            6.0959     9.6130    -0.9035 C.ar    
  26 C26            6.5117    10.4348     0.1303 C.ar    
  27 C27            5.8372    10.4202     1.3393 C.ar    
  28 C28            4.7460     9.5895     1.5119 C.ar    
  29 F29            7.5752    11.2503    -0.0405 F       
  30 Cl30           4.4855     7.7471    -2.0225 Cl      
  31 H31            0.0586    -0.3344     1.9031 H       
  32 H32           -0.6540    -0.5653     0.2746 H       
  33 H33            4.2306    -0.0855     0.3283 H       
  34 H34            1.3535     3.8575     1.0260 H       
  35 H35            6.4316     4.2199     1.0803 H       
  36 H36            5.7454     4.0266    -0.5673 H       
  37 H37            5.0211     3.2042     3.6197 H       
  38 H38            4.9658     4.5157     5.7053 H       
  39 H39            4.2532     6.8714     5.6557 H       
  40 H40            3.5943     7.9203     3.5363 H       
  41 H41            2.5862     7.7900    -0.2580 H       
  42 H42            2.5061     8.2560     1.4580 H       
  43 H43            6.6215     9.6234    -1.8469 H       
  44 H44            6.1612    11.0608     2.1462 H       
  45 H45            4.2171     9.5818     2.4535 H       
@<TRIPOS>BOND
   1    1    2 1
   2    1    5 1
   3    2    3 1
   4    2   31 1
   5    2   32 1
   6    3    4 1
   7    4    5 ar
   8    4    6 ar
   9    5    9 ar
  10    6    7 ar
  11    6   33 1
  12    7    8 ar
  13    7   10 1
  14    8    9 ar
  15    8   11 1
  16    9   34 1
  17   10   12 1
  18   11   12 1
  19   11   14 1
  20   11   15 1
  21   12   35 1
  22   12   36 1
  23   13   14 am
  24   13   20 1
  25   13   22 1
  26   14   21 2
  27   15   16 ar
  28   15   20 ar
  29   16   17 ar
  30   16   37 1
  31   17   18 ar
  32   17   38 1
  33   18   19 ar
  34   18   39 1
  35   19   20 ar
  36   19   40 1
  37   22   23 1
  38   22   41 1
  39   22   42 1
  40   23   24 ar
  41   23   28 ar
  42   24   25 ar
  43   24   30 1
  44   25   26 ar
  45   25   43 1
  46   26   27 ar
  47   26   29 1
  48   27   28 ar
  49   27   44 1
  50   28   45 1

#	End of record

