#	Name: ASD02320068
#	Creating user name:	WinNT
#	Creation time:	15. 06. 2019 20:20

#	Modifying user name:	WinNT
#	Modification time:	15. 06. 2019 20:20

#	Program:	/corina/corina34_cracker 3.40 0067  02.08.2006

@<TRIPOS>MOLECULE
ASD02320068
  94   92    0    0    0
SMALL
NO_CHARGES


@<TRIPOS>ATOM
   1 C1            -0.0164     1.3560     0.0095 C.2     
   2 C2             0.0021    -0.0041     0.0020 C.2     
   3 O3             1.1438    -0.7103    -0.0122 O.3     
   4 C4             2.3572    -0.1189    -0.0208 C.ar    
   5 C5             1.2051     2.0703     0.0017 C.2     
   6 C6            -1.2815    -0.7309     0.0104 C.ar    
   7 C7            -1.2955    -2.1285     0.0030 C.ar    
   8 C8            -2.4962    -2.8031     0.0113 C.ar    
   9 C9            -3.6926    -2.0962     0.0270 C.ar    
  10 C10           -3.6833    -0.7066     0.0344 C.ar    
  11 C11           -2.4871    -0.0240     0.0315 C.ar    
  12 C12            3.5166    -0.8781    -0.0361 C.ar    
  13 C13            4.7548    -0.2541    -0.0452 C.ar    
  14 C14            4.8494     1.1330    -0.0384 C.ar    
  15 C15            3.7038     1.9073    -0.0232 C.ar    
  16 C16            2.4501     1.2838    -0.0145 C.ar    
  17 O17           -4.8740    -2.7652     0.0347 O.3     
  18 S18           -5.3991    -3.0781     1.4285 S.o2    
  19 O19           -6.4411    -4.0806     1.2689 O.co2   
  20 O20           -4.2717    -3.5804     2.1985 O.co2   
  21 O21           -5.9187    -1.8322     1.9705 O.co2   
  22 O22            1.2260     3.2906     0.0081 O.2     
  23 O23            3.7939     3.2614    -0.0161 O.3     
  24 O24            5.8857    -1.0049    -0.0602 O.3     
  25 S25            6.3877    -1.3401    -1.4574 S.o2    
  26 O26            7.3559    -2.4154    -1.3085 O.co2   
  27 O27            5.2277    -1.7533    -2.2319 O.co2   
  28 O28            6.9943    -0.1287    -1.9870 O.co2   
  29 O29            3.3568     9.9781     0.0218 O.3     
  30 C30            3.0916    11.3090     0.0314 C.ar    
  31 C31            1.7676    11.7643     0.0473 C.ar    
  32 C32            4.1271    12.2257     0.0312 C.ar    
  33 C33            3.8532    13.5887     0.0420 C.ar    
  34 C34            2.5444    14.0465     0.0525 C.ar    
  35 C35            1.4935    13.1431     0.0577 C.ar    
  36 C36           -0.6686    11.3725     0.0689 C.2     
  37 C37            0.6352    10.8228     0.0532 C.2     
  38 O38            0.2135    13.5719     0.0721 O.3     
  39 C39           -0.8268    12.7234     0.0770 C.2     
  40 C40           -2.1938    13.2774     0.0929 C.ar    
  41 C41           -2.3891    14.6614     0.1014 C.ar    
  42 C42           -3.6672    15.1744     0.1158 C.ar    
  43 C43           -4.7618    14.3181     0.1218 C.ar    
  44 C44           -4.5722    12.9414     0.1133 C.ar    
  45 C45           -3.2976    12.4199     0.0936 C.ar    
  46 O46            0.8143     9.6156     0.0443 O.2     
  47 O47            4.8771    14.4801     0.0426 O.3     
  48 O48           -6.0199    14.8279     0.1364 O.3     
  49 S49           -6.6069    15.0676    -1.2473 S.o2    
  50 S50            5.3366    14.8960    -1.3474 S.o2    
  51 O51           -7.7671    15.9265    -1.0677 O.co2   
  52 O52           -5.5687    15.7106    -2.0377 O.co2   
  53 O53           -6.9702    13.7638    -1.7804 O.co2   
  54 O54            6.6299    15.5421    -1.1858 O.co2   
  55 O55            5.4292    13.6798    -2.1400 O.co2   
  56 O56            4.3307    15.8102    -1.8657 O.co2   
  57 C57            5.1074     3.8243    -0.0252 C.3     
  58 C58            5.0096     5.3281    -0.0155 C.ar    
  59 C59            4.7322     9.5907     0.0119 C.3     
  60 C60            4.8305     8.0869     0.0022 C.ar    
  61 C61            4.9760     6.0108     1.1860 C.ar    
  62 C62            4.8862     7.3902     1.1949 C.ar    
  63 C63            4.8690     7.4045    -1.1993 C.ar    
  64 C64            4.9591     6.0251    -1.2082 C.ar    
  65 H65           -0.9568     1.8870     0.0168 H       
  66 H66           -0.3662    -2.6786    -0.0096 H       
  67 H67           -2.5080    -3.8831     0.0053 H       
  68 H68           -4.6153    -0.1611     0.0462 H       
  69 H69           -2.4806     1.0560     0.0418 H       
  70 H70            3.4555    -1.9563    -0.0408 H       
  71 H71            5.8199     1.6068    -0.0448 H       
  72 H72            5.1509    11.8819     0.0231 H       
  73 H73            2.3439    15.1077     0.0612 H       
  74 H74           -1.5321    10.7238     0.0734 H       
  75 H75           -1.5391    15.3276     0.0971 H       
  76 H76           -3.8190    16.2436     0.1227 H       
  77 H77           -5.4256    12.2795     0.1184 H       
  78 H78           -3.1512    11.3499     0.0825 H       
  79 H79            5.6520     3.4899     0.8577 H       
  80 H80            5.6353     3.5003    -0.9221 H       
  81 H81            5.2164     9.9921    -0.8784 H       
  82 H82            5.2262     9.9813     0.9015 H       
  83 H83            5.0195     5.4665     2.1178 H       
  84 H84            4.8600     7.9236     2.1336 H       
  85 H85            4.8286     7.9490    -2.1312 H       
  86 H86            4.9888     5.4919    -2.1470 H       
  87 Na87          12.3559    21.2436     7.1985 Du      
  88 Na88          17.3559    26.2436    12.1985 Du      
  89 Na89          22.3559    31.2436    17.1985 Du      
  90 Na90          27.3559    36.2436    22.1985 Du      
  91 Na91          32.3559    41.2436    27.1985 Du      
  92 Na92          37.3559    46.2436    32.1985 Du      
  93 Na93          42.3559    51.2436    37.1985 Du      
  94 Na94          47.3559    56.2436    42.1985 Du      
@<TRIPOS>BOND
   1    1    2 2
   2    1    5 1
   3    1   65 1
   4    2    3 1
   5    2    6 1
   6    3    4 1
   7    4   12 ar
   8    4   16 ar
   9    5   22 2
  10    5   16 1
  11    6    7 ar
  12    6   11 ar
  13    7    8 ar
  14    7   66 1
  15    8    9 ar
  16    8   67 1
  17    9   10 ar
  18    9   17 1
  19   10   11 ar
  20   10   68 1
  21   11   69 1
  22   12   13 ar
  23   12   70 1
  24   13   14 ar
  25   13   24 1
  26   14   15 ar
  27   14   71 1
  28   15   16 ar
  29   15   23 1
  30   17   18 1
  31   18   19 ar
  32   18   20 ar
  33   18   21 ar
  34   23   57 1
  35   24   25 1
  36   25   26 ar
  37   25   27 ar
  38   25   28 ar
  39   29   30 1
  40   29   59 1
  41   30   32 ar
  42   30   31 ar
  43   31   35 ar
  44   31   37 1
  45   32   33 ar
  46   32   72 1
  47   33   34 ar
  48   33   47 1
  49   34   35 ar
  50   34   73 1
  51   35   38 1
  52   36   37 1
  53   36   39 2
  54   36   74 1
  55   37   46 2
  56   38   39 1
  57   39   40 1
  58   40   41 ar
  59   40   45 ar
  60   41   42 ar
  61   41   75 1
  62   42   43 ar
  63   42   76 1
  64   43   44 ar
  65   43   48 1
  66   44   45 ar
  67   44   77 1
  68   45   78 1
  69   47   50 1
  70   48   49 1
  71   49   51 ar
  72   49   52 ar
  73   49   53 ar
  74   50   54 ar
  75   50   55 ar
  76   50   56 ar
  77   57   58 1
  78   57   79 1
  79   57   80 1
  80   58   61 ar
  81   58   64 ar
  82   59   60 1
  83   59   81 1
  84   59   82 1
  85   60   63 ar
  86   60   62 ar
  87   61   62 ar
  88   61   83 1
  89   62   84 1
  90   63   64 ar
  91   63   85 1
  92   64   86 1

#	End of record

