#	Name: ASD05740168
#	Creating user name:	WinNT
#	Creation time:	15. 06. 2019 21:02

#	Modifying user name:	WinNT
#	Modification time:	15. 06. 2019 21:02

#	Program:	/corina/corina34_cracker 3.40 0067  02.08.2006

@<TRIPOS>MOLECULE
ASD05740168
  62   67    0    0    0
SMALL
NO_CHARGES


@<TRIPOS>ATOM
   1 C1             0.9746    -0.8974     0.4106 C.3     
   2 N2             0.0250    -0.2064     1.2940 N.3     
   3 C3            -1.2766    -0.6828     1.1019 C.ar    
   4 C4            -2.3255    -0.1563     1.8444 C.ar    
   5 C5            -3.6097    -0.6265     1.6549 C.ar    
   6 C6            -3.8526    -1.6262     0.7222 C.ar    
   7 C7            -2.8037    -2.1531    -0.0200 C.ar    
   8 C8            -1.5204    -1.6784     0.1648 C.ar    
   9 N9            -5.1554    -2.1036     0.5303 N.pl3   
  10 C10           -6.2307    -1.2460     0.6569 C.ar    
  11 N11           -5.9973     0.0476     0.8497 N.ar    
  12 N12           -7.4559    -1.7439     0.5763 N.ar    
  13 C13           -8.5120    -0.9495     0.6934 C.ar    
  14 C14           -8.3023     0.4312     0.9048 C.ar    
  15 C15           -6.9895     0.9103     0.9772 C.ar    
  16 N16           -9.7918    -1.4348     0.6140 N.am    
  17 C17          -10.8510    -0.6150     0.7346 C.2     
  18 C18          -10.6983     0.7702     0.9459 C.2     
  19 C19           -9.4567     1.3150     1.0352 C.2     
  20 C20          -10.0085    -2.8669     0.3943 C.3     
  21 O21          -11.9740    -1.0826     0.6585 O.2     
  22 C22            0.4304    -0.3340     2.7008 C.3     
  23 C23            1.8251     0.2692     2.8838 C.3     
  24 N24            2.7746    -0.4219     2.0004 N.3     
  25 C25            2.3693    -0.2943     0.5936 C.3     
  26 C26          -10.6410    -3.5112     1.6462 C.3     
  27 C27          -12.1508    -3.4183     1.3394 C.3     
  28 C28          -12.2477    -3.3983    -0.1711 C.ar    
  29 C29          -11.0169    -3.0816    -0.7140 C.ar    
  30 C30          -13.3278    -3.6381    -1.0043 C.ar    
  31 C31          -13.1792    -3.5616    -2.3753 C.ar    
  32 C32          -11.9486    -3.2448    -2.9194 C.ar    
  33 C33          -10.8690    -3.0056    -2.0901 C.ar    
  34 Cl34          -9.3239    -2.6072    -2.7739 Cl      
  35 C35            4.1410     0.0783     2.2020 C.3     
  36 H36            1.0008    -1.9575     0.6631 H       
  37 H37            0.6599    -0.7779    -0.6261 H       
  38 H38           -2.1365     0.6208     2.5703 H       
  39 H39           -4.4254    -0.2170     2.2323 H       
  40 H40           -2.9925    -2.9312    -0.7448 H       
  41 H41           -0.7048    -2.0881    -0.4124 H       
  42 H42           -5.3025    -3.0363     0.3084 H       
  43 H43           -6.7922     1.9599     1.1382 H       
  44 H44          -11.5706     1.4003     1.0376 H       
  45 H45           -9.3272     2.3749     1.1973 H       
  46 H46           -9.0665    -3.3584     0.1509 H       
  47 H47           -0.2811     0.1963     3.3337 H       
  48 H48            0.4504    -1.3876     2.9793 H       
  49 H49            1.7988     1.3292     2.6313 H       
  50 H50            2.1398     0.1496     3.9205 H       
  51 H51            3.0807    -0.8246    -0.0394 H       
  52 H52            2.3492     0.7593     0.3151 H       
  53 H53          -10.3292    -4.5508     1.7464 H       
  54 H54          -10.3920    -2.9427     2.5422 H       
  55 H55          -12.6724    -4.2874     1.7404 H       
  56 H56          -12.5659    -2.5011     1.7572 H       
  57 H57          -14.2897    -3.8860    -0.5804 H       
  58 H58          -14.0239    -3.7489    -3.0217 H       
  59 H59          -11.8308    -3.1846    -3.9913 H       
  60 H60            4.4404    -0.0896     3.2365 H       
  61 H61            4.8233    -0.4500     1.5360 H       
  62 H62            4.1732     1.1456     1.9831 H       
@<TRIPOS>BOND
   1    1    2 1
   2    1   25 1
   3    1   36 1
   4    1   37 1
   5    2    3 1
   6    2   22 1
   7    3    4 ar
   8    3    8 ar
   9    4    5 ar
  10    4   38 1
  11    5    6 ar
  12    5   39 1
  13    6    7 ar
  14    6    9 1
  15    7    8 ar
  16    7   40 1
  17    8   41 1
  18    9   10 1
  19    9   42 1
  20   10   11 ar
  21   10   12 ar
  22   11   15 ar
  23   12   13 ar
  24   13   14 ar
  25   13   16 1
  26   14   15 ar
  27   14   19 1
  28   15   43 1
  29   16   17 am
  30   16   20 1
  31   17   18 1
  32   17   21 2
  33   18   19 2
  34   18   44 1
  35   19   45 1
  36   20   26 1
  37   20   29 1
  38   20   46 1
  39   22   23 1
  40   22   47 1
  41   22   48 1
  42   23   24 1
  43   23   49 1
  44   23   50 1
  45   24   25 1
  46   24   35 1
  47   25   51 1
  48   25   52 1
  49   26   27 1
  50   26   53 1
  51   26   54 1
  52   27   28 1
  53   27   55 1
  54   27   56 1
  55   28   29 ar
  56   28   30 ar
  57   29   33 ar
  58   30   31 ar
  59   30   57 1
  60   31   32 ar
  61   31   58 1
  62   32   33 ar
  63   32   59 1
  64   33   34 1
  65   35   60 1
  66   35   61 1
  67   35   62 1

#	End of record

