#	Name: ASD01820178
#	Creating user name:	WinNT
#	Creation time:	15. 06. 2019 19:36

#	Modifying user name:	WinNT
#	Modification time:	15. 06. 2019 19:36

#	Program:	/corina/corina34_cracker 3.40 0067  02.08.2006

@<TRIPOS>MOLECULE
ASD01820178
  96  101    0    0    0
SMALL
NO_CHARGES


@<TRIPOS>ATOM
   1 C1            -0.0178     1.4633     0.0101 C.ar    
   2 C2             0.0021    -0.0041     0.0020 C.ar    
   3 C3            -1.4172    -0.4065     0.0129 C.2     
   4 N4            -2.1803     0.6999     0.0259 N.am    
   5 C5            -1.4476     1.8268     0.0198 C.2     
   6 C6            -3.6451     0.6800     0.0392 C.3     
   7 C7            -4.1418     0.6652     1.4863 C.3     
   8 C8            -5.6716     0.6444     1.5002 C.3     
   9 N9            -6.1485     0.6302     2.8896 N.4     
  10 C10           -7.6173     0.6102     2.9030 C.3     
  11 C11           -8.1140     0.5954     4.3500 C.3     
  12 C12           -9.6438     0.5746     4.3639 C.3     
  13 C13          -10.1405     0.5598     5.8110 C.3     
  14 C14          -11.6703     0.5390     5.8249 C.3     
  15 C15          -12.1670     0.5242     7.2720 C.3     
  16 N16          -13.6358     0.5042     7.2854 N.4     
  17 C17          -14.1126     0.4901     8.6748 C.3     
  18 C18          -15.6424     0.4692     8.6887 C.3     
  19 N19          -17.6039     0.4345    10.1491 N.am    
  20 O20           -1.8899     2.9585     0.0291 O.2     
  21 O21           -1.8286    -1.5498     0.0102 O.2     
  22 C22          -16.1391     0.4545    10.1357 C.3     
  23 C23          -18.3367    -0.6924    10.1497 C.2     
  24 C24          -19.7664    -0.3289    10.1648 C.ar    
  25 C25          -19.7863     1.1385    10.1729 C.ar    
  26 C26          -18.3670     1.5409    10.1678 C.2     
  27 C27          -20.9459    -1.0322    10.1711 C.ar    
  28 C28          -22.1715    -0.3365    10.1854 C.ar    
  29 C29          -22.1906     1.0808    10.1933 C.ar    
  30 C30          -20.9843     1.8095    10.1871 C.ar    
  31 O31          -17.8944    -1.8240    10.1390 O.2     
  32 O32          -17.9556     2.6842    10.1723 O.2     
  33 C33          -14.1480     1.7006     6.6040 C.3     
  34 C34          -14.1154    -0.6980     6.5908 C.3     
  35 C35           -5.6362    -0.5662     3.5710 C.3     
  36 C36           -5.6688     1.8325     3.5842 C.3     
  37 C37            1.1616     2.1667     0.0026 C.ar    
  38 C38            2.3872     1.4709    -0.0129 C.ar    
  39 C39            2.4063     0.0537    -0.0206 C.ar    
  40 C40            1.2001    -0.6751    -0.0122 C.ar    
  41 C41            3.6034     2.1746    -0.0213 C.ar    
  42 C42            4.7818     1.4903    -0.0366 C.ar    
  43 C43            4.8005     0.0987    -0.0441 C.ar    
  44 C44            3.6409    -0.6171    -0.0364 C.ar    
  45 C45          -23.3877    -1.0401    10.1915 C.ar    
  46 C46          -24.5661    -0.3557    10.2049 C.ar    
  47 C47          -24.5848     1.0359    10.2127 C.ar    
  48 C48          -23.4252     1.7516    10.2071 C.ar    
  49 H49           -4.0252     1.5677    -0.4664 H       
  50 H50           -4.0010    -0.2121    -0.4762 H       
  51 H51           -3.7617    -0.2225     1.9919 H       
  52 H52           -3.7859     1.5573     2.0017 H       
  53 H53           -6.0517     1.5321     0.9946 H       
  54 H54           -6.0275    -0.2477     0.9848 H       
  55 H55           -7.9974     1.4979     2.3974 H       
  56 H56           -7.9732    -0.2819     2.3875 H       
  57 H57           -7.7339    -0.2923     4.8556 H       
  58 H58           -7.7581     1.4875     4.8654 H       
  59 H59          -10.0239     1.4623     3.8584 H       
  60 H60           -9.9997    -0.3175     3.8485 H       
  61 H61           -9.7604    -0.3279     6.3166 H       
  62 H62           -9.7846     1.4519     6.3264 H       
  63 H63          -12.0504     1.4267     5.3194 H       
  64 H64          -12.0262    -0.3531     5.3095 H       
  65 H65          -11.7869    -0.3635     7.7776 H       
  66 H66          -11.8110     1.4163     7.7874 H       
  67 H67          -13.7325    -0.3976     9.1803 H       
  68 H68          -13.7567     1.3821     9.1902 H       
  69 H69          -16.0225     1.3569     8.1831 H       
  70 H70          -15.9983    -0.4229     8.1733 H       
  71 H71          -15.7590    -0.4332    10.6413 H       
  72 H72          -15.7832     1.3465    10.6511 H       
  73 H73          -20.9344    -2.1121    10.1649 H       
  74 H74          -21.0020     2.8894    10.1925 H       
  75 H75          -13.7942     1.7111     5.5731 H       
  76 H76          -15.2379     1.6857     6.6139 H       
  77 H77          -13.7921     2.5926     7.1194 H       
  78 H78          -13.7353    -1.5857     7.0964 H       
  79 H79          -15.2053    -0.7129     6.6007 H       
  80 H80          -13.7616    -0.6875     5.5599 H       
  81 H81           -4.5464    -0.5513     3.5610 H       
  82 H82           -5.9901    -0.5766     4.6019 H       
  83 H83           -5.9922    -1.4582     3.0555 H       
  84 H84           -6.0489     2.7202     3.0786 H       
  85 H85           -6.0227     1.8220     4.6151 H       
  86 H86           -4.5790     1.8473     3.5743 H       
  87 H87            1.1501     3.2466     0.0082 H       
  88 H88            1.2178    -1.7549    -0.0183 H       
  89 H89            3.6043     3.2546    -0.0159 H       
  90 H90            5.7141     2.0354    -0.0434 H       
  91 H91            5.7471    -0.4211    -0.0566 H       
  92 H92            3.6707    -1.6967    -0.0427 H       
  93 H93          -23.3887    -2.1201    10.1852 H       
  94 H94          -25.4984    -0.9008    10.2091 H       
  95 H95          -25.5314     1.5557    10.2229 H       
  96 H96          -23.4550     2.8312    10.2129 H       
@<TRIPOS>BOND
   1    1    2 ar
   2    1   37 ar
   3    1    5 1
   4    2    3 1
   5    2   40 ar
   6    3    4 am
   7    3   21 2
   8    4    5 am
   9    4    6 1
  10    5   20 2
  11    6    7 1
  12    6   49 1
  13    6   50 1
  14    7    8 1
  15    7   51 1
  16    7   52 1
  17    8    9 1
  18    8   53 1
  19    8   54 1
  20    9   10 1
  21    9   35 1
  22    9   36 1
  23   10   11 1
  24   10   55 1
  25   10   56 1
  26   11   12 1
  27   11   57 1
  28   11   58 1
  29   12   13 1
  30   12   59 1
  31   12   60 1
  32   13   14 1
  33   13   61 1
  34   13   62 1
  35   14   15 1
  36   14   63 1
  37   14   64 1
  38   15   16 1
  39   15   65 1
  40   15   66 1
  41   16   17 1
  42   16   33 1
  43   16   34 1
  44   17   18 1
  45   17   67 1
  46   17   68 1
  47   18   22 1
  48   18   69 1
  49   18   70 1
  50   19   23 am
  51   19   22 1
  52   19   26 am
  53   22   71 1
  54   22   72 1
  55   23   24 1
  56   23   31 2
  57   24   25 ar
  58   24   27 ar
  59   25   26 1
  60   25   30 ar
  61   26   32 2
  62   27   28 ar
  63   27   73 1
  64   28   29 ar
  65   28   45 ar
  66   29   30 ar
  67   29   48 ar
  68   30   74 1
  69   33   75 1
  70   33   76 1
  71   33   77 1
  72   34   78 1
  73   34   79 1
  74   34   80 1
  75   35   81 1
  76   35   82 1
  77   35   83 1
  78   36   84 1
  79   36   85 1
  80   36   86 1
  81   37   38 ar
  82   37   87 1
  83   38   39 ar
  84   38   41 ar
  85   39   40 ar
  86   39   44 ar
  87   40   88 1
  88   41   42 ar
  89   41   89 1
  90   42   43 ar
  91   42   90 1
  92   43   44 ar
  93   43   91 1
  94   44   92 1
  95   45   46 ar
  96   45   93 1
  97   46   47 ar
  98   46   94 1
  99   47   48 ar
 100   47   95 1
 101   48   96 1

#	End of record

