#	Name: ASD06610077
#	Creating user name:	WinNT
#	Creation time:	15. 06. 2019 21:07

#	Modifying user name:	WinNT
#	Modification time:	15. 06. 2019 21:07

#	Program:	/corina/corina34_cracker 3.40 0067  02.08.2006

@<TRIPOS>MOLECULE
ASD06610077
 469  471    0    0    0
SMALL
NO_CHARGES


@<TRIPOS>ATOM
   1 C1            -3.6347    15.2970     3.9441 C.2     
   2 O2            -3.3496    14.1447     4.1927 O.2     
   3 N3            -1.3521    15.8590     4.5596 N.3     
   4 C4            -2.5503    16.3399     3.8589 C.3     
   5 C5            -2.2108    16.6039     2.3905 C.3     
   6 C6            -1.2009    17.7495     2.2985 C.3     
   7 C7            -0.8665    18.0095     0.8523 C.2     
   8 O8            -1.3848    17.3443    -0.0187 O.2     
   9 N9             0.0086    18.9815     0.5271 N.am    
  10 C10           -7.1560    15.0675     2.9895 C.2     
  11 O11           -7.1214    16.1241     2.3951 O.2     
  12 N12           -4.9208    15.6437     3.7387 N.am    
  13 C13           -5.9744    14.6286     3.8156 C.3     
  14 C14           -6.4077    14.4527     5.2723 C.3     
  15 C15           -5.1846    14.1289     6.1327 C.3     
  16 O16           -7.0118    15.6608     5.7388 O.3     
  17 C17          -10.6510    14.0570     2.6336 C.2     
  18 O18          -10.5894    13.3074     3.5850 O.2     
  19 N19           -8.2511    14.2858     2.9113 N.am    
  20 C20           -9.3997    14.7124     2.1083 C.3     
  21 C21           -9.1830    14.3026     0.6502 C.3     
  22 C22           -9.0370    12.7821     0.5641 C.3     
  23 C23           -8.9452    12.3609    -0.9040 C.3     
  24 C24           -7.9126    14.9680     0.1169 C.3     
  25 C25          -14.0778    13.5802     1.4533 C.2     
  26 O26          -13.8164    14.0084     0.3491 O.2     
  27 N27          -11.8386    14.3039     2.0461 N.am    
  28 C28          -13.0550    13.6669     2.5567 C.3     
  29 C29          -13.6194    14.4971     3.7112 C.3     
  30 C30          -17.5285    12.2872     1.1462 C.2     
  31 O31          -17.5843    11.9261     2.3027 O.2     
  32 N32          -15.2830    13.0268     1.6936 N.am    
  33 C33          -16.2772    12.9426     0.6209 C.3     
  34 C34          -20.5525    10.8285    -0.2997 C.2     
  35 O35          -20.1144    10.8998    -1.4284 O.2     
  36 N36          -18.5856    12.1024     0.3308 N.am    
  37 C37          -19.8020    11.4654     0.8415 C.3     
  38 C38          -20.6877    12.5191     1.5094 C.3     
  39 C39          -19.9854    13.0687     2.7242 C.2     
  40 C40          -19.7285    14.3676     2.9697 C.2     
  41 N41          -19.0806    14.4224     4.1743 N.pl3   
  42 C42          -18.9641    13.1541     4.6232 C.2     
  43 N43          -19.5119    12.3504     3.7532 N.2     
  44 C44          -23.9011     9.4578    -0.8204 C.2     
  45 O45          -24.2942     9.8619     0.2534 O.2     
  46 N46          -21.7105    10.1798    -0.0660 N.am    
  47 C47          -22.4401     9.5606    -1.1753 C.3     
  48 C48          -21.8791     8.1615    -1.4369 C.3     
  49 C49          -20.4528     8.2726    -1.9105 C.ar    
  50 C50          -19.4177     8.2644    -0.9943 C.ar    
  51 C51          -18.1093     8.3664    -1.4287 C.ar    
  52 C52          -17.8360     8.4761    -2.7793 C.ar    
  53 C53          -18.8711     8.4834    -3.6956 C.ar    
  54 C54          -20.1792     8.3771    -3.2615 C.ar    
  55 C55          -26.8207     7.6942    -2.1353 C.2     
  56 O56          -26.1491     7.0418    -2.9062 O.2     
  57 N57          -24.7709     8.9168    -1.6964 N.am    
  58 C58          -26.1912     8.8168    -1.3514 C.3     
  59 C59          -26.8927    10.1330    -1.6925 C.3     
  60 C60          -26.3387    11.2507    -0.8067 C.3     
  61 C61          -27.0403    12.5669    -1.1478 C.3     
  62 N62          -26.5098    13.6372    -0.2996 N.pl3   
  63 C63          -26.9924    14.9182    -0.4269 C.2     
  64 N64          -27.9219    15.1805    -1.3022 N.2     
  65 N65          -26.4946    15.9225     0.3691 N.pl3   
  66 C66          -30.2201     6.5793    -2.8863 C.2     
  67 O67          -30.7137     7.5750    -2.4007 O.2     
  68 N68          -28.1300     7.4151    -1.9796 N.am    
  69 C69          -28.7420     6.3238    -2.7416 C.3     
  70 C70          -28.5228     5.0013    -2.0041 C.3     
  71 C71          -27.0274     4.6799    -1.9667 C.3     
  72 C72          -26.8083     3.3575    -1.2291 C.3     
  73 C73          -25.3129     3.0361    -1.1917 C.3     
  74 N74          -25.1025     1.7664    -0.4836 N.3     
  75 C75          -33.1488     4.6409    -3.9004 C.2     
  76 O76          -32.5222     3.6028    -3.9262 O.2     
  77 N77          -30.9935     5.7014    -3.5553 N.am    
  78 C78          -32.4304     5.9498    -3.6960 C.3     
  79 C79          -32.6751     6.8596    -4.9015 C.3     
  80 C80          -32.0508     8.2317    -4.6399 C.3     
  81 C81          -32.2918     9.1279    -5.8272 C.2     
  82 O82          -32.9004     8.7118    -6.7845 O.2     
  83 O83          -31.8303    10.3884    -5.8214 O.3     
  84 C84          -36.4803     3.5979    -4.9850 C.2     
  85 O85          -36.7890     4.7253    -5.3085 O.2     
  86 N86          -34.4876     4.6240    -4.0547 N.am    
  87 C87          -35.1860     3.3516    -4.2535 C.3     
  88 C88          -35.4817     2.7144    -2.8943 C.3     
  89 C89          -34.1654     2.3502    -2.2046 C.3     
  90 C90          -34.4611     1.7129    -0.8455 C.3     
  91 N91          -33.2007     1.3642    -0.1851 N.pl3   
  92 C92          -33.2155     0.7748     1.0569 C.2     
  93 N93          -32.0942     0.4645     1.6445 N.2     
  94 N94          -34.4131     0.5126     1.6792 N.pl3   
  95 C95          -39.5979     1.8073    -5.3807 C.2     
  96 O96          -39.2470     0.9538    -4.5937 O.2     
  97 N97          -37.2948     2.5654    -5.2798 N.am    
  98 C98          -38.6017     2.8153    -5.8930 C.3     
  99 C99          -38.4842     2.6889    -7.4133 C.3     
 100 C100         -37.8496     1.3421    -7.7656 C.3     
 101 C101         -38.8137     0.2123    -7.3980 C.3     
 102 C102         -37.6089     3.8218    -7.9530 C.3     
 103 C103         -42.9366     0.7120    -6.3890 C.2     
 104 O104         -42.9400     1.4339    -7.3635 O.2     
 105 N105         -40.8789     1.8542    -5.7971 N.am    
 106 C106         -41.8238     0.8160    -5.3780 C.3     
 107 C107         -42.4084     1.1799    -4.0118 C.3     
 108 C108         -41.2967     1.1636    -2.9607 C.3     
 109 C109         -41.8725     1.5220    -1.6149 C.2     
 110 O110         -43.0510     1.7656    -1.5075 O.2     
 111 O111         -41.0760     1.5707    -0.5355 O.3     
 112 C112         -45.9818    -1.3524    -6.7617 C.2     
 113 O113         -45.7898    -1.9683    -5.7347 O.2     
 114 N114         -43.9280    -0.1833    -6.2101 N.am    
 115 C115         -45.0098    -0.2845    -7.1928 C.3     
 116 C116         -48.7170    -3.1790    -8.3760 C.2     
 117 O117         -48.7666    -2.4659    -9.3557 O.2     
 118 N118         -47.0644    -1.6230    -7.5175 N.am    
 119 C119         -47.9498    -2.7333    -7.1578 C.3     
 120 C120         -48.9308    -2.2740    -6.0772 C.3     
 121 C121         -49.8537    -3.4344    -5.6997 C.3     
 122 C122         -49.0407    -4.5264    -5.0016 C.3     
 123 C123         -50.9469    -2.9302    -4.7555 C.3     
 124 C124         -51.1934    -5.7670    -9.1057 C.2     
 125 O125         -51.2710    -6.0994    -7.9419 O.2     
 126 N126         -49.3479    -4.3699    -8.3766 N.am    
 127 C127         -50.1425    -4.7773    -9.5381 C.3     
 128 C128         -49.2282    -5.4264   -10.5791 C.3     
 129 C129         -48.2400    -4.3858   -11.1096 C.3     
 130 C130         -47.3257    -5.0349   -12.1507 C.3     
 131 N131         -46.3795    -4.0385   -12.6586 N.pl3   
 132 C132         -45.4528    -4.3930   -13.6103 C.2     
 133 N133         -45.4161    -5.6157   -14.0606 N.2     
 134 N134         -44.5647    -3.4580   -14.0870 N.pl3   
 135 C135         -53.4597    -8.1069   -10.7644 C.2     
 136 O136         -52.9366    -7.9345   -11.8450 O.2     
 137 N137         -52.0470    -6.2828   -10.0122 N.am    
 138 C138         -53.0686    -7.2450    -9.5918 C.3     
 139 C139         -54.2982    -6.4922    -9.0796 C.3     
 140 C140         -53.9297    -5.7144    -7.8146 C.3     
 141 C141         -55.1592    -4.9616    -7.3025 C.3     
 142 C142         -54.7907    -4.1838    -6.0375 C.3     
 143 N143         -55.9713    -3.4610    -5.5457 N.3     
 144 C144         -56.1658   -10.4382   -11.5426 C.2     
 145 O145         -56.7816   -10.1454   -10.5395 O.2     
 146 N146         -54.3909    -9.0694   -10.6124 N.am    
 147 C147         -54.7711    -9.9073   -11.7524 C.3     
 148 C148         -53.7929   -11.0775   -11.8740 C.3     
 149 C149         -52.3990   -10.5441   -12.2108 C.3     
 150 C150         -51.4208   -11.7143   -12.3324 C.3     
 151 N151         -50.0862   -11.2035   -12.6549 N.pl3   
 152 C152         -49.0360   -12.0765   -12.8139 C.2     
 153 N153         -49.2279   -13.3585   -12.6777 N.2     
 154 N154         -47.7835   -11.5972   -13.1165 N.pl3   
 155 C155         -58.2574   -13.0338   -13.0429 C.2     
 156 O156         -57.3385   -13.4715   -13.7024 O.2     
 157 N157         -56.7289   -11.2383   -12.4695 N.am    
 158 C158         -58.0847   -11.7544   -12.2655 C.3     
 159 C159         -59.1024   -10.7207   -12.7520 C.3     
 160 C160         -59.0115    -9.4663   -11.8808 C.3     
 161 C161         -60.0292    -8.4326   -12.3673 C.3     
 162 N162         -59.9421    -7.2314   -11.5331 N.pl3   
 163 C163         -60.7663    -6.1598   -11.7829 C.2     
 164 N164         -60.6888    -5.0911   -11.0407 N.2     
 165 N165         -61.6722    -6.2153   -12.8156 N.pl3   
 166 C166         -61.0615   -15.1424   -14.0697 C.2     
 167 O167         -61.8813   -14.3308   -13.6954 O.2     
 168 N168         -59.4331   -13.6917   -13.0052 N.am    
 169 C169         -59.6010   -14.9355   -13.7609 C.3     
 170 C170         -59.0840   -16.1112   -12.9294 C.3     
 171 C171         -57.5753   -15.9644   -12.7216 C.3     
 172 C172         -57.0583   -17.1401   -11.8901 C.3     
 173 N173         -55.6137   -16.9996   -11.6910 N.pl3   
 174 C174         -54.9243   -17.9444   -10.9685 C.2     
 175 N175         -55.5558   -18.9652   -10.4606 N.2     
 176 N176         -53.5686   -17.8125   -10.7817 N.pl3   
 177 C177         -63.2009   -17.8399   -15.2639 C.2     
 178 O178         -62.3214   -18.6564   -15.4392 O.2     
 179 N179         -61.4565   -16.2293   -14.7618 N.am    
 180 C180         -62.8596   -16.3760   -15.1570 C.3     
 181 C181         -63.0811   -15.7004   -16.5118 C.3     
 182 C182         -64.5702   -15.7351   -16.8615 C.3     
 183 C183         -65.3478   -14.8699   -15.8677 C.3     
 184 C184         -64.7742   -15.1934   -18.2778 C.3     
 185 C185         -66.2638   -19.7586   -15.8121 C.2     
 186 O186         -66.9342   -18.7566   -15.9442 O.2     
 187 N187         -64.4835   -18.2418   -15.1647 N.am    
 188 C188         -64.8274   -19.6511   -15.3689 C.3     
 189 C189         -64.6395   -20.4172   -14.0579 C.3     
 190 C190         -63.1588   -20.4136   -13.6729 C.3     
 191 C191         -62.9867   -21.0702   -12.3017 C.3     
 192 C192         -62.3585   -21.1952   -14.7167 C.3     
 193 C193         -69.0992   -21.0811   -15.2831 C.2     
 194 O194         -68.6227   -21.0074   -14.1752 O.2     
 195 N195         -66.8034   -20.9682   -16.0615 N.am    
 196 C196         -68.1997   -21.0726   -16.4922 C.3     
 197 C197         -68.3943   -22.3687   -17.2817 C.3     
 198 C198         -67.5882   -22.3080   -18.5535 C.ar    
 199 C199         -66.2844   -22.7669   -18.5680 C.ar    
 200 C200         -65.5449   -22.7112   -19.7346 C.ar    
 201 C201         -66.1095   -22.1970   -20.8869 C.ar    
 202 C202         -67.4137   -21.7389   -20.8727 C.ar    
 203 C203         -68.1545   -21.7986   -19.7071 C.ar    
 204 O204         -70.4296   -21.1704   -15.4369 O.3     
 205 C205           0.3076    19.2140    -0.7663 C.2     
 206 O206          -0.2106    18.5489    -1.6373 O.2     
 207 C207           9.3600    28.4069   -14.3580 C.3     
 208 C208           8.3665    27.3034   -13.9889 C.3     
 209 C209           8.2066    27.2489   -12.4682 C.3     
 210 C210           7.2131    26.1454   -12.0992 C.3     
 211 C211           7.0532    26.0909   -10.5785 C.3     
 212 C212           6.0597    24.9874   -10.2094 C.3     
 213 C213           5.8998    24.9329    -8.6888 C.3     
 214 C214           4.9063    23.8294    -8.3197 C.3     
 215 C215           4.7464    23.7749    -6.7990 C.3     
 216 C216           3.7529    22.6714    -6.4300 C.3     
 217 C217           3.5930    22.6169    -4.9093 C.3     
 218 C218           2.5995    21.5135    -4.5402 C.3     
 219 C219           2.4396    21.4589    -3.0196 C.3     
 220 C220           1.4461    20.3555    -2.6505 C.3     
 221 C221           1.2862    20.3009    -1.1298 C.3     
 222 H222          -1.0112    15.0034     4.1475 H       
 223 H223          -0.6324    16.5660     4.5724 H       
 224 H224          -2.8968    17.2632     4.3233 H       
 225 H225          -1.7811    15.7044     1.9496 H       
 226 H226          -3.1182    16.8752     1.8510 H       
 227 H227          -1.6306    18.6490     2.7395 H       
 228 H228          -0.2935    17.4782     2.8381 H       
 229 H229           0.4233    19.5138     1.2241 H       
 230 H230          -5.1488    16.5653     3.5398 H       
 231 H231          -5.5949    13.6814     3.4324 H       
 232 H232          -7.1269    13.6366     5.3414 H       
 233 H233          -4.4654    14.9450     6.0635 H       
 234 H234          -5.4933    14.0036     7.1705 H       
 235 H235          -4.7238    13.2074     5.7768 H       
 236 H236          -6.4278    16.4308     5.7058 H       
 237 H237          -8.2787    13.4407     3.3868 H       
 238 H238          -9.5037    15.7957     2.1697 H       
 239 H239         -10.0376    14.6200     0.0528 H       
 240 H240          -8.1322    12.4737     1.0878 H       
 241 H241          -9.9033    12.3072     1.0248 H       
 242 H242          -9.8501    12.6693    -1.4277 H       
 243 H243          -8.0790    12.8358    -1.3647 H       
 244 H244          -8.8412    11.2776    -0.9654 H       
 245 H245          -7.7582    14.6761    -0.9218 H       
 246 H246          -8.0166    16.0513     0.1783 H       
 247 H247          -7.0580    14.6506     0.7144 H       
 248 H248         -11.8879    14.9034     1.2851 H       
 249 H249         -12.8181    12.6640     2.9122 H       
 250 H250         -13.8562    15.5000     3.3558 H       
 251 H251         -14.5244    14.0231     4.0912 H       
 252 H252         -12.8796    14.5598     4.5093 H       
 253 H253         -15.4920    12.6843     2.5767 H       
 254 H254         -15.8751    12.3510    -0.2016 H       
 255 H255         -16.5141    13.9454     0.2655 H       
 256 H256         -18.5410    12.3912    -0.5941 H       
 257 H257         -19.5332    10.7013     1.5709 H       
 258 H258         -20.8834    13.3282     0.8058 H       
 259 H259         -21.6309    12.0631     1.8103 H       
 260 H260         -19.9842    15.2051     2.3376 H       
 261 H261         -18.7643    15.2228     4.6218 H       
 262 H262         -18.4984    12.8550     5.5506 H       
 263 H263         -22.0609    10.1228     0.8367 H       
 264 H264         -22.3259    10.1712    -2.0710 H       
 265 H265         -21.9119     7.5789    -0.5163 H       
 266 H266         -22.4783     7.6669    -2.2014 H       
 267 H267         -19.6312     8.1787     0.0609 H       
 268 H268         -17.3006     8.3607    -0.7129 H       
 269 H269         -16.8139     8.5565    -3.1187 H       
 270 H270         -18.6576     8.5695    -4.7508 H       
 271 H271         -20.9877     8.3790    -3.9776 H       
 272 H272         -24.4565     8.5936    -2.5552 H       
 273 H273         -26.2928     8.6168    -0.2848 H       
 274 H274         -26.7161    10.3781    -2.7398 H       
 275 H275         -27.9639    10.0293    -1.5193 H       
 276 H276         -26.5154    11.0056     0.2406 H       
 277 H277         -25.2676    11.3544    -0.9799 H       
 278 H278         -26.8636    12.8120    -2.1951 H       
 279 H279         -28.1114    12.4632    -0.9746 H       
 280 H280         -25.8181    13.4419     0.3518 H       
 281 H281         -28.2624    16.0843    -1.3920 H       
 282 H282         -25.8029    15.7273     1.0205 H       
 283 H283         -26.8351    16.8264     0.2793 H       
 284 H284         -28.6672     7.9369    -1.3631 H       
 285 H285         -28.2843     6.2691    -3.7294 H       
 286 H286         -28.9019     5.0861    -0.9857 H       
 287 H287         -29.0531     4.2033    -2.5238 H       
 288 H288         -26.6484     4.5951    -2.9851 H       
 289 H289         -26.4972     5.4780    -1.4470 H       
 290 H290         -27.1873     3.4423    -0.2107 H       
 291 H291         -27.3385     2.5594    -1.7488 H       
 292 H292         -24.9339     2.9513    -2.2101 H       
 293 H293         -24.7827     3.8342    -0.6720 H       
 294 H294         -24.1219     1.5319    -0.4454 H       
 295 H295         -25.5031     1.7978     0.4420 H       
 296 H296         -30.5986     4.9050    -3.9437 H       
 297 H297         -32.8055     6.4331    -2.7939 H       
 298 H298         -32.2216     6.4173    -5.7885 H       
 299 H299         -33.7476     6.9726    -5.0596 H       
 300 H300         -32.5042     8.6741    -3.7528 H       
 301 H301         -30.9782     8.1188    -4.4817 H       
 302 H302         -32.0095    10.9251    -6.6055 H       
 303 H303         -34.9887     5.4543    -4.0342 H       
 304 H304         -34.5588     2.6807    -4.8406 H       
 305 H305         -36.0335     3.4208    -2.2742 H       
 306 H306         -36.0783     1.8134    -3.0375 H       
 307 H307         -33.6136     1.6437    -2.8248 H       
 308 H308         -33.5688     3.2511    -2.0615 H       
 309 H309         -35.0129     2.4193    -0.2253 H       
 310 H310         -35.0576     0.8120    -0.9886 H       
 311 H311         -32.3557     1.5491    -0.6241 H       
 312 H312         -32.1046     0.0486     2.5207 H       
 313 H313         -35.2476     0.7435     1.2419 H       
 314 H314         -34.4236     0.0968     2.5554 H       
 315 H315         -37.0158     1.6569    -5.0860 H       
 316 H316         -38.9371     3.8202    -5.6368 H       
 317 H317         -39.4761     2.7514    -7.8608 H       
 318 H318         -37.6403     1.3076    -8.8348 H       
 319 H319         -36.9200     1.2218    -7.2093 H       
 320 H320         -38.8753     0.1258    -6.3132 H       
 321 H321         -39.8020     0.4324    -7.8016 H       
 322 H322         -38.4507    -0.7260    -7.8173 H       
 323 H323         -36.5899     3.7003    -7.5856 H       
 324 H324         -37.6081     3.7928    -9.0427 H       
 325 H325         -38.0051     4.7795    -7.6154 H       
 326 H326         -41.1751     2.5753    -6.3743 H       
 327 H327         -41.3055    -0.1403    -5.3084 H       
 328 H328         -42.8493     2.1757    -4.0588 H       
 329 H329         -43.1759     0.4552    -3.7402 H       
 330 H330         -40.8558     0.1678    -2.9137 H       
 331 H331         -40.5292     1.8883    -3.2322 H       
 332 H332         -41.4908     1.8052     0.3059 H       
 333 H333         -43.9253    -0.7607    -5.4306 H       
 334 H334         -44.5933    -0.5438    -8.1662 H       
 335 H335         -45.5280     0.6719    -7.2624 H       
 336 H336         -47.2574    -1.0825    -8.2995 H       
 337 H337         -47.3549    -3.5644    -6.7790 H       
 338 H338         -48.3758    -1.9499    -5.1968 H       
 339 H339         -49.5270    -1.4442    -6.4567 H       
 340 H340         -50.3117    -3.8424    -6.6008 H       
 341 H341         -48.6394    -4.1383    -4.0654 H       
 342 H342         -49.6837    -5.3818    -4.7943 H       
 343 H343         -48.2196    -4.8372    -5.6476 H       
 344 H344         -51.5261    -2.1522    -5.2528 H       
 345 H345         -51.6045    -3.7569    -4.4865 H       
 346 H346         -50.4890    -2.5222    -3.8544 H       
 347 H347         -49.2759    -4.9574    -7.6081 H       
 348 H348         -50.6248    -3.9021    -9.9734 H       
 349 H349         -48.6789    -6.2476   -10.1187 H       
 350 H350         -49.8303    -5.8090   -11.4033 H       
 351 H351         -48.7893    -3.5646   -11.5701 H       
 352 H352         -47.6379    -4.0032   -10.2855 H       
 353 H353         -46.7764    -5.8561   -11.6902 H       
 354 H354         -47.9278    -5.4175   -12.9748 H       
 355 H355         -46.4068    -3.1286   -12.3235 H       
 356 H356         -44.7622    -5.8658   -14.7320 H       
 357 H357         -44.5920    -2.5481   -13.7518 H       
 358 H358         -43.9109    -3.7081   -14.7584 H       
 359 H359         -51.9849    -6.0170   -10.9430 H       
 360 H360         -52.6699    -7.8738    -8.7957 H       
 361 H361         -54.6440    -5.7977    -9.8453 H       
 362 H362         -55.0908    -7.2043    -8.8503 H       
 363 H363         -53.5838    -6.4089    -7.0490 H       
 364 H364         -53.1370    -5.0022    -8.0439 H       
 365 H365         -55.5051    -4.2671    -8.0681 H       
 366 H366         -55.9519    -5.6738    -7.0731 H       
 367 H367         -54.4449    -4.8783    -5.2718 H       
 368 H368         -53.9981    -3.4716    -6.2668 H       
 369 H369         -56.7419    -4.0927    -5.3870 H       
 370 H370         -55.7536    -2.9391    -4.7101 H       
 371 H371         -54.8093    -9.2073    -9.7482 H       
 372 H372         -54.7421    -9.3131   -12.6658 H       
 373 H373         -53.7559   -11.6198   -10.9292 H       
 374 H374         -54.1261   -11.7488   -12.6654 H       
 375 H375         -52.4360   -10.0018   -13.1556 H       
 376 H376         -52.0659    -9.8728   -11.4193 H       
 377 H377         -51.3838   -12.2565   -11.3876 H       
 378 H378         -51.7540   -12.3856   -13.1238 H       
 379 H379         -49.9434   -10.2495   -12.7562 H       
 380 H380         -48.4869   -13.9744   -12.7899 H       
 381 H381         -47.6407   -10.6431   -13.2179 H       
 382 H382         -47.0425   -12.2131   -13.2287 H       
 383 H383         -56.2364   -11.4724   -13.2718 H       
 384 H384         -58.2435   -11.9494   -11.2050 H       
 385 H385         -58.8881   -10.4596   -13.7884 H       
 386 H386         -60.1066   -11.1390   -12.6829 H       
 387 H387         -59.2258    -9.7273   -10.8445 H       
 388 H388         -58.0073    -9.0479   -11.9499 H       
 389 H389         -59.8149    -8.1715   -13.4036 H       
 390 H390         -61.0333    -8.8509   -12.2982 H       
 391 H391         -59.3030    -7.1923   -10.8045 H       
 392 H392         -61.2703    -4.3350   -11.2169 H       
 393 H393         -61.7299    -7.0106   -13.3679 H       
 394 H394         -62.2537    -5.4592   -12.9918 H       
 395 H395         -60.1681   -13.3417   -12.4778 H       
 396 H396         -59.0380   -14.8737   -14.6922 H       
 397 H397         -59.5850   -16.1197   -11.9614 H       
 398 H398         -59.2895   -17.0448   -13.4532 H       
 399 H399         -57.0743   -15.9558   -13.6895 H       
 400 H400         -57.3699   -15.0308   -12.1978 H       
 401 H401         -57.5593   -17.1486   -10.9221 H       
 402 H402         -57.2638   -18.0737   -12.4138 H       
 403 H403         -55.1437   -16.2399   -12.0690 H       
 404 H404         -55.0694   -19.6319    -9.9509 H       
 405 H405         -53.0985   -17.0528   -11.1597 H       
 406 H406         -53.0821   -18.4792   -10.2720 H       
 407 H407         -60.8119   -16.9144   -14.9983 H       
 408 H408         -63.4987   -15.9076   -14.4086 H       
 409 H409         -62.7438   -14.6652   -16.4610 H       
 410 H410         -62.5154   -16.2297   -17.2786 H       
 411 H411         -64.9318   -16.7621   -16.8097 H       
 412 H412         -66.4151   -14.9491   -16.0744 H       
 413 H413         -65.1478   -15.2135   -14.8528 H       
 414 H414         -65.0344   -13.8307   -15.9678 H       
 415 H415         -64.2202   -15.8097   -18.9859 H       
 416 H416         -65.8350   -15.2181   -18.5270 H       
 417 H417         -64.4126   -14.1664   -18.3296 H       
 418 H418         -65.1789   -17.5979   -14.9580 H       
 419 H419         -64.1783   -20.0763   -16.1344 H       
 420 H420         -65.2209   -19.9377   -13.2704 H       
 421 H421         -64.9792   -21.4450   -14.1857 H       
 422 H422         -62.7965   -19.3864   -13.6318 H       
 423 H423         -63.3490   -22.0974   -12.3428 H       
 424 H424         -61.9318   -21.0677   -12.0274 H       
 425 H425         -63.5569   -20.5134   -11.5581 H       
 426 H426         -62.4810   -20.7274   -15.6935 H       
 427 H427         -61.3036   -21.1927   -14.4424 H       
 428 H428         -62.7207   -22.2225   -14.7577 H       
 429 H429         -66.2672   -21.7696   -15.9558 H       
 430 H430         -68.4495   -20.2208   -17.1249 H       
 431 H431         -68.0607   -23.2141   -16.6801 H       
 432 H432         -69.4496   -22.4904   -17.5259 H       
 433 H433         -65.8433   -23.1687   -17.6678 H       
 434 H434         -64.5260   -23.0691   -19.7457 H       
 435 H435         -65.5316   -22.1529   -21.7982 H       
 436 H436         -67.8546   -21.3369   -21.7728 H       
 437 H437         -69.1746   -21.4441   -19.6969 H       
 438 H438         -70.9655   -21.1721   -14.6320 H       
 439 H439           9.4740    28.4457   -15.4413 H       
 440 H440           8.9884    29.3660   -13.9971 H       
 441 H441          10.3255    28.1951   -13.8985 H       
 442 H442           7.4011    27.5152   -14.4484 H       
 443 H443           8.7382    26.3444   -14.3498 H       
 444 H444           9.1721    27.0371   -12.0087 H       
 445 H445           7.8350    28.2080   -12.1074 H       
 446 H446           6.2477    26.3572   -12.5587 H       
 447 H447           7.5847    25.1864   -12.4600 H       
 448 H448           8.0187    25.8792   -10.1190 H       
 449 H449           6.6816    27.0500   -10.2176 H       
 450 H450           5.0943    25.1992   -10.6689 H       
 451 H451           6.4313    24.0284   -10.5703 H       
 452 H452           6.8653    24.7212    -8.2293 H       
 453 H453           5.5282    25.8920    -8.3279 H       
 454 H454           3.9409    24.0412    -8.7792 H       
 455 H455           5.2779    22.8704    -8.6806 H       
 456 H456           5.7119    23.5632    -6.3395 H       
 457 H457           4.3748    24.7340    -6.4382 H       
 458 H458           2.7875    22.8832    -6.8895 H       
 459 H459           4.1245    21.7124    -6.7908 H       
 460 H460           4.5585    22.4052    -4.4498 H       
 461 H461           3.2214    23.5760    -4.5484 H       
 462 H462           1.6340    21.7252    -4.9997 H       
 463 H463           2.9711    20.5544    -4.9011 H       
 464 H464           3.4050    21.2472    -2.5601 H       
 465 H465           2.0680    22.4180    -2.6587 H       
 466 H466           0.4806    20.5672    -3.1100 H       
 467 H467           1.8177    19.3964    -3.0114 H       
 468 H468           0.9146    21.2600    -0.7690 H       
 469 H469           2.2516    20.0892    -0.6703 H       
@<TRIPOS>BOND
   1    1    2 2
   2    1    4 1
   3    1   12 am
   4    3    4 1
   5    3  222 1
   6    3  223 1
   7    4    5 1
   8    4  224 1
   9    5    6 1
  10    5  225 1
  11    5  226 1
  12    6    7 1
  13    6  227 1
  14    6  228 1
  15    7    8 2
  16    7    9 am
  17    9  205 am
  18    9  229 1
  19   10   11 2
  20   10   13 1
  21   10   19 am
  22   12   13 1
  23   12  230 1
  24   13   14 1
  25   13  231 1
  26   14   15 1
  27   14   16 1
  28   14  232 1
  29   15  233 1
  30   15  234 1
  31   15  235 1
  32   16  236 1
  33   17   18 2
  34   17   20 1
  35   17   27 am
  36   19   20 1
  37   19  237 1
  38   20   21 1
  39   20  238 1
  40   21   22 1
  41   21   24 1
  42   21  239 1
  43   22   23 1
  44   22  240 1
  45   22  241 1
  46   23  242 1
  47   23  243 1
  48   23  244 1
  49   24  245 1
  50   24  246 1
  51   24  247 1
  52   25   26 2
  53   25   28 1
  54   25   32 am
  55   27   28 1
  56   27  248 1
  57   28   29 1
  58   28  249 1
  59   29  250 1
  60   29  251 1
  61   29  252 1
  62   30   31 2
  63   30   33 1
  64   30   36 am
  65   32   33 1
  66   32  253 1
  67   33  254 1
  68   33  255 1
  69   34   35 2
  70   34   37 1
  71   34   46 am
  72   36   37 1
  73   36  256 1
  74   37   38 1
  75   37  257 1
  76   38   39 1
  77   38  258 1
  78   38  259 1
  79   39   40 2
  80   39   43 1
  81   40   41 1
  82   40  260 1
  83   41   42 1
  84   41  261 1
  85   42   43 2
  86   42  262 1
  87   44   45 2
  88   44   47 1
  89   44   57 am
  90   46   47 1
  91   46  263 1
  92   47   48 1
  93   47  264 1
  94   48   49 1
  95   48  265 1
  96   48  266 1
  97   49   50 ar
  98   49   54 ar
  99   50   51 ar
 100   50  267 1
 101   51   52 ar
 102   51  268 1
 103   52   53 ar
 104   52  269 1
 105   53   54 ar
 106   53  270 1
 107   54  271 1
 108   55   56 2
 109   55   58 1
 110   55   68 am
 111   57   58 1
 112   57  272 1
 113   58   59 1
 114   58  273 1
 115   59   60 1
 116   59  274 1
 117   59  275 1
 118   60   61 1
 119   60  276 1
 120   60  277 1
 121   61   62 1
 122   61  278 1
 123   61  279 1
 124   62   63 1
 125   62  280 1
 126   63   64 2
 127   63   65 1
 128   64  281 1
 129   65  282 1
 130   65  283 1
 131   66   67 2
 132   66   69 1
 133   66   77 am
 134   68   69 1
 135   68  284 1
 136   69   70 1
 137   69  285 1
 138   70   71 1
 139   70  286 1
 140   70  287 1
 141   71   72 1
 142   71  288 1
 143   71  289 1
 144   72   73 1
 145   72  290 1
 146   72  291 1
 147   73   74 1
 148   73  292 1
 149   73  293 1
 150   74  294 1
 151   74  295 1
 152   75   76 2
 153   75   78 1
 154   75   86 am
 155   77   78 1
 156   77  296 1
 157   78   79 1
 158   78  297 1
 159   79   80 1
 160   79  298 1
 161   79  299 1
 162   80   81 1
 163   80  300 1
 164   80  301 1
 165   81   82 2
 166   81   83 1
 167   83  302 1
 168   84   85 2
 169   84   87 1
 170   84   97 am
 171   86   87 1
 172   86  303 1
 173   87   88 1
 174   87  304 1
 175   88   89 1
 176   88  305 1
 177   88  306 1
 178   89   90 1
 179   89  307 1
 180   89  308 1
 181   90   91 1
 182   90  309 1
 183   90  310 1
 184   91   92 1
 185   91  311 1
 186   92   93 2
 187   92   94 1
 188   93  312 1
 189   94  313 1
 190   94  314 1
 191   95   96 2
 192   95   98 1
 193   95  105 am
 194   97   98 1
 195   97  315 1
 196   98   99 1
 197   98  316 1
 198   99  100 1
 199   99  102 1
 200   99  317 1
 201  100  101 1
 202  100  318 1
 203  100  319 1
 204  101  320 1
 205  101  321 1
 206  101  322 1
 207  102  323 1
 208  102  324 1
 209  102  325 1
 210  103  104 2
 211  103  106 1
 212  103  114 am
 213  105  106 1
 214  105  326 1
 215  106  107 1
 216  106  327 1
 217  107  108 1
 218  107  328 1
 219  107  329 1
 220  108  109 1
 221  108  330 1
 222  108  331 1
 223  109  110 2
 224  109  111 1
 225  111  332 1
 226  112  113 2
 227  112  115 1
 228  112  118 am
 229  114  115 1
 230  114  333 1
 231  115  334 1
 232  115  335 1
 233  116  117 2
 234  116  119 1
 235  116  126 am
 236  118  119 1
 237  118  336 1
 238  119  120 1
 239  119  337 1
 240  120  121 1
 241  120  338 1
 242  120  339 1
 243  121  122 1
 244  121  123 1
 245  121  340 1
 246  122  341 1
 247  122  342 1
 248  122  343 1
 249  123  344 1
 250  123  345 1
 251  123  346 1
 252  124  125 2
 253  124  127 1
 254  124  137 am
 255  126  127 1
 256  126  347 1
 257  127  128 1
 258  127  348 1
 259  128  129 1
 260  128  349 1
 261  128  350 1
 262  129  130 1
 263  129  351 1
 264  129  352 1
 265  130  131 1
 266  130  353 1
 267  130  354 1
 268  131  132 1
 269  131  355 1
 270  132  133 2
 271  132  134 1
 272  133  356 1
 273  134  357 1
 274  134  358 1
 275  135  136 2
 276  135  138 1
 277  135  146 am
 278  137  138 1
 279  137  359 1
 280  138  139 1
 281  138  360 1
 282  139  140 1
 283  139  361 1
 284  139  362 1
 285  140  141 1
 286  140  363 1
 287  140  364 1
 288  141  142 1
 289  141  365 1
 290  141  366 1
 291  142  143 1
 292  142  367 1
 293  142  368 1
 294  143  369 1
 295  143  370 1
 296  144  145 2
 297  144  147 1
 298  144  157 am
 299  146  147 1
 300  146  371 1
 301  147  148 1
 302  147  372 1
 303  148  149 1
 304  148  373 1
 305  148  374 1
 306  149  150 1
 307  149  375 1
 308  149  376 1
 309  150  151 1
 310  150  377 1
 311  150  378 1
 312  151  152 1
 313  151  379 1
 314  152  153 2
 315  152  154 1
 316  153  380 1
 317  154  381 1
 318  154  382 1
 319  155  156 2
 320  155  158 1
 321  155  168 am
 322  157  158 1
 323  157  383 1
 324  158  159 1
 325  158  384 1
 326  159  160 1
 327  159  385 1
 328  159  386 1
 329  160  161 1
 330  160  387 1
 331  160  388 1
 332  161  162 1
 333  161  389 1
 334  161  390 1
 335  162  163 1
 336  162  391 1
 337  163  164 2
 338  163  165 1
 339  164  392 1
 340  165  393 1
 341  165  394 1
 342  166  167 2
 343  166  169 1
 344  166  179 am
 345  168  169 1
 346  168  395 1
 347  169  170 1
 348  169  396 1
 349  170  171 1
 350  170  397 1
 351  170  398 1
 352  171  172 1
 353  171  399 1
 354  171  400 1
 355  172  173 1
 356  172  401 1
 357  172  402 1
 358  173  174 1
 359  173  403 1
 360  174  175 2
 361  174  176 1
 362  175  404 1
 363  176  405 1
 364  176  406 1
 365  177  178 2
 366  177  180 1
 367  177  187 am
 368  179  180 1
 369  179  407 1
 370  180  181 1
 371  180  408 1
 372  181  182 1
 373  181  409 1
 374  181  410 1
 375  182  183 1
 376  182  184 1
 377  182  411 1
 378  183  412 1
 379  183  413 1
 380  183  414 1
 381  184  415 1
 382  184  416 1
 383  184  417 1
 384  185  186 2
 385  185  188 1
 386  185  195 am
 387  187  188 1
 388  187  418 1
 389  188  189 1
 390  188  419 1
 391  189  190 1
 392  189  420 1
 393  189  421 1
 394  190  191 1
 395  190  192 1
 396  190  422 1
 397  191  423 1
 398  191  424 1
 399  191  425 1
 400  192  426 1
 401  192  427 1
 402  192  428 1
 403  193  194 2
 404  193  196 1
 405  193  204 1
 406  195  196 1
 407  195  429 1
 408  196  197 1
 409  196  430 1
 410  197  198 1
 411  197  431 1
 412  197  432 1
 413  198  199 ar
 414  198  203 ar
 415  199  200 ar
 416  199  433 1
 417  200  201 ar
 418  200  434 1
 419  201  202 ar
 420  201  435 1
 421  202  203 ar
 422  202  436 1
 423  203  437 1
 424  204  438 1
 425  205  206 2
 426  205  221 1
 427  207  208 1
 428  207  439 1
 429  207  440 1
 430  207  441 1
 431  208  209 1
 432  208  442 1
 433  208  443 1
 434  209  210 1
 435  209  444 1
 436  209  445 1
 437  210  211 1
 438  210  446 1
 439  210  447 1
 440  211  212 1
 441  211  448 1
 442  211  449 1
 443  212  213 1
 444  212  450 1
 445  212  451 1
 446  213  214 1
 447  213  452 1
 448  213  453 1
 449  214  215 1
 450  214  454 1
 451  214  455 1
 452  215  216 1
 453  215  456 1
 454  215  457 1
 455  216  217 1
 456  216  458 1
 457  216  459 1
 458  217  218 1
 459  217  460 1
 460  217  461 1
 461  218  219 1
 462  218  462 1
 463  218  463 1
 464  219  220 1
 465  219  464 1
 466  219  465 1
 467  220  221 1
 468  220  466 1
 469  220  467 1
 470  221  468 1
 471  221  469 1

#	End of record

