#	Name: ASD03540204
#	Creating user name:	WinNT
#	Creation time:	15. 06. 2019 20:42

#	Modifying user name:	WinNT
#	Modification time:	15. 06. 2019 20:42

#	Program:	/corina/corina34_cracker 3.40 0067  02.08.2006

@<TRIPOS>MOLECULE
ASD03540204
  58   62    0    0    0
SMALL
NO_CHARGES


@<TRIPOS>ATOM
   1 C1            -0.0224     1.3853    -0.0307 C.2     
   2 N2            -0.0082     0.0449    -0.0512 N.am    
   3 C3             1.1808    -0.6619    -0.0720 C.2     
   4 C4             2.3825     0.0369    -0.0714 C.2     
   5 C5             2.3135     1.5155    -0.0475 C.2     
   6 N6             1.1069     2.1116    -0.0291 N.am    
   7 C7             3.5002    -0.7993    -0.0935 C.2     
   8 C8             3.2090    -2.1118    -0.1110 C.2     
   9 S9             1.4701    -2.3453    -0.1000 S.3     
  10 C10            4.1985    -3.1889    -0.1364 C.2     
  11 O11            5.3858    -2.9241    -0.1430 O.2     
  12 O12            3.7943    -4.4760    -0.1526 O.3     
  13 O13            3.3319     2.1816    -0.0458 O.2     
  14 O14           -1.0926     1.9620    -0.0182 O.2     
  15 C15           -1.2777    -0.6863    -0.0512 C.3     
  16 C16            1.0246     3.5741    -0.0061 C.3     
  17 N17            2.1447     4.3282     2.0386 N.ar    
  18 C18            1.0082     4.0539     1.4224 C.ar    
  19 N19           -0.1425     4.1996     2.0555 N.ar    
  20 C20           -0.1610     4.6232     3.3174 C.ar    
  21 N21            0.9793     4.8995     3.9402 N.ar    
  22 C22            2.1344     4.7518     3.3003 C.ar    
  23 N23            3.3228     5.0383     3.9434 N.pl3   
  24 C24            3.3072     5.5946     5.2262 C.ar    
  25 C25            4.2941     5.2568     6.1434 C.ar    
  26 C26            4.2757     5.8080     7.4096 C.ar    
  27 C27            3.2760     6.6949     7.7648 C.ar    
  28 C28            2.2917     7.0329     6.8542 C.ar    
  29 C29            2.3080     6.4905     5.5842 C.ar    
  30 N30           -1.3633     4.7754     3.9775 N.pl3   
  31 C31            4.8146    -5.4761    -0.1771 C.3     
  32 C32            4.1787    -6.8423    -0.1924 C.ar    
  33 C33            3.8763    -7.4505    -1.3963 C.ar    
  34 C34            3.2929    -8.7036    -1.4104 C.ar    
  35 C35            3.0123    -9.3487    -0.2204 C.ar    
  36 C36            3.3156    -8.7409     0.9835 C.ar    
  37 C37            3.9029    -7.4897     0.9975 C.ar    
  38 H38            4.5128    -0.4238    -0.0962 H       
  39 H39           -2.1054     0.0228    -0.0332 H       
  40 H40           -1.3440    -1.2993    -0.9501 H       
  41 H41           -1.3284    -1.3264     0.8296 H       
  42 H42            1.8884     3.9948    -0.5208 H       
  43 H43            0.1113     3.8945    -0.5074 H       
  44 H44            4.1682     4.8536     3.5051 H       
  45 H45            5.0747     4.5637     5.8668 H       
  46 H46            5.0428     5.5458     8.1232 H       
  47 H47            3.2637     7.1242     8.7557 H       
  48 H48            1.5119     7.7254     7.1350 H       
  49 H49            1.5419     6.7588     4.8718 H       
  50 H50           -2.1956     4.5738     3.5221 H       
  51 H51           -1.3760     5.0841     4.8970 H       
  52 H52            5.4258    -5.3498    -1.0708 H       
  53 H53            5.4418    -5.3772     0.7089 H       
  54 H54            4.0954    -6.9465    -2.3260 H       
  55 H55            3.0559    -9.1785    -2.3510 H       
  56 H56            2.5559   -10.3275    -0.2313 H       
  57 H57            3.0961    -9.2448     1.9132 H       
  58 H58            4.1432    -7.0164     1.9380 H       
@<TRIPOS>BOND
   1    1    2 am
   2    1    6 am
   3    1   14 2
   4    2    3 1
   5    2   15 1
   6    3    4 2
   7    3    9 1
   8    4    5 1
   9    4    7 1
  10    5    6 am
  11    5   13 2
  12    6   16 1
  13    7    8 2
  14    7   38 1
  15    8    9 1
  16    8   10 1
  17   10   11 2
  18   10   12 1
  19   12   31 1
  20   15   39 1
  21   15   40 1
  22   15   41 1
  23   16   18 1
  24   16   42 1
  25   16   43 1
  26   17   18 ar
  27   17   22 ar
  28   18   19 ar
  29   19   20 ar
  30   20   21 ar
  31   20   30 1
  32   21   22 ar
  33   22   23 1
  34   23   24 1
  35   23   44 1
  36   24   25 ar
  37   24   29 ar
  38   25   26 ar
  39   25   45 1
  40   26   27 ar
  41   26   46 1
  42   27   28 ar
  43   27   47 1
  44   28   29 ar
  45   28   48 1
  46   29   49 1
  47   30   50 1
  48   30   51 1
  49   31   32 1
  50   31   52 1
  51   31   53 1
  52   32   33 ar
  53   32   37 ar
  54   33   34 ar
  55   33   54 1
  56   34   35 ar
  57   34   55 1
  58   35   36 ar
  59   35   56 1
  60   36   37 ar
  61   36   57 1
  62   37   58 1

#	End of record

