#	Name: ASD02198756
#	Creating user name:	WinNT
#	Creation time:	15. 06. 2019 20:20

#	Modifying user name:	WinNT
#	Modification time:	15. 06. 2019 20:20

#	Program:	/corina/corina34_cracker 3.40 0067  02.08.2006

@<TRIPOS>MOLECULE
ASD02198756
  54   58    0    0    0
SMALL
NO_CHARGES


@<TRIPOS>ATOM
   1 C1             0.2721     1.4392     0.6037 C.2     
   2 C2             0.3112     0.1050     0.8481 C.2     
   3 N3             1.3372    -0.6521     0.3987 N.pl3   
   4 N4             2.3208    -0.1777    -0.2725 N.2     
   5 C5             2.4070     1.0993    -0.5788 C.2     
   6 C6             1.3378     2.0074    -0.1344 C.2     
   7 C7             1.3249    -2.0223     0.6810 C.ar    
   8 C8             2.4118    -2.6118     1.3255 C.ar    
   9 C9             2.3964    -3.9682     1.6038 C.ar    
  10 C10            1.2995    -4.7378     1.2408 C.ar    
  11 C11            0.2175    -4.1482     0.5981 C.ar    
  12 C12            0.2277    -2.7956     0.3246 C.ar    
  13 C13            3.5554     1.6114    -1.3536 C.2     
  14 N14            3.4966     2.3158    -2.5232 N.pl3   
  15 N15            4.8101     2.6032    -2.9147 N.2     
  16 C16            5.6329     2.1001    -2.0293 C.2     
  17 C17            4.8876     1.4741    -1.0302 C.2     
  18 C18            2.3314     2.6839    -3.2079 C.ar    
  19 C19            2.2397     3.9356    -3.8023 C.ar    
  20 C20            1.0896     4.2953    -4.4771 C.ar    
  21 C21            0.0301     3.4107    -4.5612 C.ar    
  22 C22            0.1182     2.1637    -3.9699 C.ar    
  23 C23            1.2677     1.7958    -3.2986 C.ar    
  24 O24            1.3687     3.2017    -0.3917 O.2     
  25 N25            1.2835    -6.1084     1.5219 N.am    
  26 C26            1.7876    -7.0379     0.5138 C.3     
  27 C27            2.1073    -8.3868     1.1617 C.3     
  28 O28            0.9860    -8.7910     1.9563 O.3     
  29 C29            0.7908    -7.9656     3.1072 C.3     
  30 C30            0.8118    -6.5169     2.7063 C.2     
  31 O31            0.3787    -5.6895     3.4801 O.2     
  32 O32            3.4847    -1.8565     1.6795 O.3     
  33 C33            4.5619    -2.5273     2.3366 C.3     
  34 H34           -0.5477     2.0469     0.9571 H       
  35 H35           -0.4872    -0.3579     1.4090 H       
  36 H36            3.2372    -4.4271     2.1027 H       
  37 H37           -0.6347    -4.7488     0.3162 H       
  38 H38           -0.6144    -2.3396    -0.1747 H       
  39 H39            6.7105     2.1626    -2.0647 H       
  40 H40            5.2837     0.9674    -0.1626 H       
  41 H41            3.0667     4.6270    -3.7367 H       
  42 H42            1.0176     5.2688    -4.9394 H       
  43 H43           -0.8681     3.6944    -5.0894 H       
  44 H44           -0.7112     1.4752    -4.0370 H       
  45 H45            1.3360     0.8217    -2.8373 H       
  46 H46            1.0323    -7.1777    -0.2596 H       
  47 H47            2.6924    -6.6287     0.0644 H       
  48 H48            2.2930    -9.1301     0.3864 H       
  49 H49            2.9883    -8.2883     1.7958 H       
  50 H50           -0.1693    -8.2035     3.5651 H       
  51 H51            1.5894    -8.1509     3.8256 H       
  52 H52            5.3516    -1.8110     2.5634 H       
  53 H53            4.2004    -2.9748     3.2624 H       
  54 H54            4.9553    -3.3077     1.6852 H       
@<TRIPOS>BOND
   1    1    2 2
   2    1    6 1
   3    1   34 1
   4    2    3 1
   5    2   35 1
   6    3    4 1
   7    3    7 1
   8    4    5 2
   9    5    6 1
  10    5   13 1
  11    6   24 2
  12    7    8 ar
  13    7   12 ar
  14    8    9 ar
  15    8   32 1
  16    9   10 ar
  17    9   36 1
  18   10   11 ar
  19   10   25 1
  20   11   12 ar
  21   11   37 1
  22   12   38 1
  23   13   14 1
  24   13   17 2
  25   14   15 1
  26   14   18 1
  27   15   16 2
  28   16   17 1
  29   16   39 1
  30   17   40 1
  31   18   19 ar
  32   18   23 ar
  33   19   20 ar
  34   19   41 1
  35   20   21 ar
  36   20   42 1
  37   21   22 ar
  38   21   43 1
  39   22   23 ar
  40   22   44 1
  41   23   45 1
  42   25   26 1
  43   25   30 am
  44   26   27 1
  45   26   46 1
  46   26   47 1
  47   27   28 1
  48   27   48 1
  49   27   49 1
  50   28   29 1
  51   29   30 1
  52   29   50 1
  53   29   51 1
  54   30   31 2
  55   32   33 1
  56   33   52 1
  57   33   53 1
  58   33   54 1

#	End of record

