#	Name: ASD00841429
#	Creating user name:	WinNT
#	Creation time:	15. 06. 2019 18:42

#	Modifying user name:	WinNT
#	Modification time:	15. 06. 2019 18:42

#	Program:	/corina/corina34_cracker 3.40 0067  02.08.2006

@<TRIPOS>MOLECULE
ASD00841429
  93   98    0    0    0
SMALL
NO_CHARGES


@<TRIPOS>ATOM
   1 C1            -0.0146     1.3805     0.0257 C.ar    
   2 C2             0.0031    -0.0065     0.0110 C.ar    
   3 C3             1.2147    -0.6823    -0.0066 C.ar    
   4 C4             2.3999     0.0270    -0.0095 C.ar    
   5 C5             2.3796     1.4097     0.0057 C.ar    
   6 C6             1.1737     2.0854     0.0228 C.ar    
   7 C7             1.2376    -2.1891    -0.0222 C.3     
   8 C8             0.4952    -2.7184    -1.2307 C.2     
   9 N9             2.6178    -2.6803    -0.0120 N.am    
  10 C10            3.4635    -2.3343    -1.0027 C.2     
  11 N11            4.7591    -2.7005    -0.9414 N.am    
  12 O12            3.0577    -1.6917    -1.9518 O.2     
  13 C13            5.6728    -2.4340    -2.0628 C.3     
  14 C14            6.9194    -1.7289    -1.5178 C.3     
  15 N15            7.4922    -2.5279    -0.4263 N.3     
  16 C16            6.5582    -2.6352     0.7024 C.3     
  17 C17            5.2982    -3.3719     0.2510 C.3     
  18 C18            8.7825    -1.9766     0.0087 C.3     
  19 C19            9.2884    -2.7568     1.2252 C.3     
  20 C20           10.6605    -2.2180     1.6361 C.3     
  21 N21           11.5993    -2.3603     0.5159 N.3     
  22 C22           11.1586    -1.5813    -0.6483 C.3     
  23 C23            9.8013    -2.1012    -1.1275 C.3     
  24 C24           12.9603    -1.9814     0.9182 C.3     
  25 O25            0.7747    -2.5160    -2.3934 O.2     
  26 N26           -0.5319    -3.4541    -0.7732 N.am    
  27 C27            0.4669    -2.7425     1.1544 C.ar    
  28 C28           -0.5771    -3.4887     0.6215 C.ar    
  29 C29            0.6299    -2.6286     2.5166 C.ar    
  30 C30           -0.2537    -3.2628     3.3737 C.ar    
  31 C31           -1.2992    -4.0101     2.8550 C.ar    
  32 C32           -1.4632    -4.1248     1.4878 C.ar    
  33 Cl33          -0.0521    -3.1227     5.0923 Cl      
  34 F34           -2.1620    -4.6294     3.6900 F       
  35 C35           -0.9826    -5.8440    -2.0615 C.ar    
  36 C36            0.1965    -5.9997    -2.7754 C.ar    
  37 C37           -1.6543    -6.9549    -1.5886 C.ar    
  38 C38           -1.1521    -8.2208    -1.8261 C.ar    
  39 C39            0.0231    -8.3787    -2.5375 C.ar    
  40 C40            0.6982    -7.2714    -3.0128 C.ar    
  41 H41            0.4135    -9.3687    -2.7217 H       
  42 O42            0.8589    -4.9086    -3.2419 O.3     
  43 C43            2.0664    -5.1444    -3.9688 C.3     
  44 C44            2.6654    -3.8075    -4.4101 C.3     
  45 C45           13.9460    -2.3746    -0.1839 C.3     
  46 O46           -1.1643    -0.7021     0.0143 O.3     
  47 C47           -3.5737    -0.8892     0.0342 C.3     
  48 C48           -2.3733     0.0595     0.0332 C.3     
  49 S49           -1.6192    -4.2305    -1.7516 S.o2    
  50 O50           -2.7993    -4.4061    -0.9799 O.2     
  51 O51           -1.5993    -3.5454    -2.9964 O.2     
  52 H52           -0.9565     1.9089     0.0350 H       
  53 H53            3.3433    -0.4986    -0.0232 H       
  54 H54            3.3074     1.9625     0.0042 H       
  55 H55            1.1604     3.1653     0.0346 H       
  56 H56            2.9230    -3.2545     0.7077 H       
  57 H57            5.9601    -3.3747    -2.5325 H       
  58 H58            5.1791    -1.7927    -2.7929 H       
  59 H59            7.6549    -1.6224    -2.3153 H       
  60 H60            6.6448    -0.7434    -1.1418 H       
  61 H61            7.0316    -3.1859     1.5153 H       
  62 H62            6.2885    -1.6370     1.0475 H       
  63 H63            4.5570    -3.3534     1.0500 H       
  64 H64            5.5467    -4.4036     0.0021 H       
  65 H65            8.6589    -0.9268     0.2749 H       
  66 H66            8.5878    -2.6368     2.0516 H       
  67 H67            9.3737    -3.8132     0.9702 H       
  68 H68           10.5719    -1.1652     1.9042 H       
  69 H69           11.0299    -2.7810     2.4933 H       
  70 H70           11.0676    -0.5315    -0.3696 H       
  71 H71           11.8898    -1.6819    -1.4504 H       
  72 H72            9.8947    -3.1472    -1.4195 H       
  73 H73            9.4673    -1.5126    -1.9820 H       
  74 H74           13.0053    -0.9042     1.0785 H       
  75 H75           13.2231    -2.4974     1.8417 H       
  76 H76            1.4463    -2.0455     2.9164 H       
  77 H77           -2.2803    -4.7084     1.0900 H       
  78 H78           -2.5724    -6.8341    -1.0327 H       
  79 H79           -1.6783    -9.0879    -1.4550 H       
  80 H80            1.6157    -7.3953    -3.5690 H       
  81 H81            2.7781    -5.6685    -3.3308 H       
  82 H82            1.8490    -5.7527    -4.8468 H       
  83 H83            1.9537    -3.2834    -5.0481 H       
  84 H84            2.8827    -3.1992    -3.5321 H       
  85 H85            3.5864    -3.9874    -4.9646 H       
  86 H86           14.9560    -2.0935     0.1146 H       
  87 H87           13.9011    -3.4518    -0.3442 H       
  88 H88           13.6832    -1.8586    -1.1074 H       
  89 H89           -3.5483    -1.5082    -0.8626 H       
  90 H90           -3.5322    -1.5269     0.9172 H       
  91 H91           -4.4959    -0.3082     0.0486 H       
  92 H92           -2.3988     0.6785     0.9300 H       
  93 H93           -2.4149     0.6972    -0.8497 H       
@<TRIPOS>BOND
   1    1    2 ar
   2    1    6 ar
   3    1   52 1
   4    2    3 ar
   5    2   46 1
   6    3    4 ar
   7    3    7 1
   8    4    5 ar
   9    4   53 1
  10    5    6 ar
  11    5   54 1
  12    6   55 1
  13    7    8 1
  14    7    9 1
  15    7   27 1
  16    8   25 2
  17    8   26 am
  18    9   10 am
  19    9   56 1
  20   10   11 am
  21   10   12 2
  22   11   13 1
  23   11   17 1
  24   13   14 1
  25   13   57 1
  26   13   58 1
  27   14   15 1
  28   14   59 1
  29   14   60 1
  30   15   16 1
  31   15   18 1
  32   16   17 1
  33   16   61 1
  34   16   62 1
  35   17   63 1
  36   17   64 1
  37   18   19 1
  38   18   23 1
  39   18   65 1
  40   19   20 1
  41   19   66 1
  42   19   67 1
  43   20   21 1
  44   20   68 1
  45   20   69 1
  46   21   22 1
  47   21   24 1
  48   22   23 1
  49   22   70 1
  50   22   71 1
  51   23   72 1
  52   23   73 1
  53   24   45 1
  54   24   74 1
  55   24   75 1
  56   26   49 am
  57   26   28 1
  58   27   28 ar
  59   27   29 ar
  60   28   32 ar
  61   29   30 ar
  62   29   76 1
  63   30   31 ar
  64   30   33 1
  65   31   32 ar
  66   31   34 1
  67   32   77 1
  68   35   36 ar
  69   35   37 ar
  70   35   49 1
  71   36   42 1
  72   36   40 ar
  73   37   38 ar
  74   37   78 1
  75   38   39 ar
  76   38   79 1
  77   39   40 ar
  78   39   41 1
  79   40   80 1
  80   42   43 1
  81   43   44 1
  82   43   81 1
  83   43   82 1
  84   44   83 1
  85   44   84 1
  86   44   85 1
  87   45   86 1
  88   45   87 1
  89   45   88 1
  90   46   48 1
  91   47   48 1
  92   47   89 1
  93   47   90 1
  94   47   91 1
  95   48   92 1
  96   48   93 1
  97   49   50 2
  98   49   51 2

#	End of record

