#	Name: ASD02508394
#	Creating user name:	WinNT
#	Creation time:	15. 06. 2019 20:24

#	Modifying user name:	WinNT
#	Modification time:	15. 06. 2019 20:24

#	Program:	/corina/corina34_cracker 3.40 0067  02.08.2006

@<TRIPOS>MOLECULE
ASD02508394
  33   35    0    0    0
SMALL
NO_CHARGES


@<TRIPOS>ATOM
   1 C1             0.6228     1.5297     0.6628 C.2     
   2 C2             0.4664     0.1282     0.6640 C.2     
   3 C3             1.6079    -0.4074     0.1885 C.2     
   4 N4             2.4675     0.6138    -0.1077 N.pl3   
   5 C5             1.8542     1.7998     0.1867 C.2     
   6 C6             3.7544     0.4698    -0.6233 C.ar    
   7 N7             4.4784     1.5513    -0.8633 N.ar    
   8 N8             4.2244    -0.7452    -0.8559 N.ar    
   9 C9             5.4413    -0.9177    -1.3449 C.ar    
  10 C10            6.2255     0.1933    -1.6134 C.ar    
  11 C11            5.7033     1.4506    -1.3525 C.ar    
  12 S12            1.9360    -2.1265    -0.0160 S.o2    
  13 O13            1.6572    -2.4291    -1.3761 O.2     
  14 O14            3.1975    -2.3692     0.5913 O.2     
  15 N15            0.8170    -2.9497     0.8852 N.am    
  16 C16            0.7726    -2.7776     2.2713 C.ar    
  17 C17           -0.4448    -2.5754     2.9087 C.ar    
  18 C18           -0.4857    -2.4055     4.2786 C.ar    
  19 C19            0.6848    -2.4366     5.0162 C.ar    
  20 C20            1.8991    -2.6374     4.3838 C.ar    
  21 C21            1.9452    -2.8140     3.0148 C.ar    
  22 Cl22           0.6297    -2.2226     6.7381 Cl      
  23 H23           -0.1120     2.2545     0.9810 H       
  24 H24           -0.4083    -0.4165     0.9874 H       
  25 H25            2.2824     2.7831     0.0593 H       
  26 H26            5.8194    -1.9119    -1.5322 H       
  27 H27            7.2226     0.0818    -2.0129 H       
  28 H28            6.2876     2.3371    -1.5502 H       
  29 H29            0.1922    -3.5515     0.4510 H       
  30 H30           -1.3585    -2.5506     2.3335 H       
  31 H31           -1.4319    -2.2478     4.7747 H       
  32 H32            2.8111    -2.6605     4.9618 H       
  33 H33            2.8932    -2.9711     2.5217 H       
@<TRIPOS>BOND
   1    1    2 1
   2    1    5 2
   3    1   23 1
   4    2    3 2
   5    2   24 1
   6    3    4 1
   7    3   12 1
   8    4    5 1
   9    4    6 1
  10    5   25 1
  11    6    7 ar
  12    6    8 ar
  13    7   11 ar
  14    8    9 ar
  15    9   10 ar
  16    9   26 1
  17   10   11 ar
  18   10   27 1
  19   11   28 1
  20   12   13 2
  21   12   14 2
  22   12   15 am
  23   15   16 1
  24   15   29 1
  25   16   17 ar
  26   16   21 ar
  27   17   18 ar
  28   17   30 1
  29   18   19 ar
  30   18   31 1
  31   19   20 ar
  32   19   22 1
  33   20   21 ar
  34   20   32 1
  35   21   33 1

#	End of record

