#	Name: ASD01890120
#	Creating user name:	WinNT
#	Creation time:	15. 06. 2019 19:50

#	Modifying user name:	WinNT
#	Modification time:	15. 06. 2019 19:50

#	Program:	/corina/corina34_cracker 3.40 0067  02.08.2006

@<TRIPOS>MOLECULE
ASD01890120
  63   66    0    0    0
SMALL
NO_CHARGES


@<TRIPOS>ATOM
   1 C1             0.0436     1.6083     0.2257 C.2     
   2 C2             0.0612     0.1083     0.0823 C.3     
   3 C3             1.4858    -0.3682    -0.0376 C.2     
   4 O4             0.9027     2.1639     0.8685 O.2     
   5 O5            -0.9234     2.3277    -0.3652 O.3     
   6 O6             1.9357    -1.1387     0.7772 O.2     
   7 O7             2.2550     0.0633    -1.0495 O.3     
   8 C8            -0.5881    -0.5293     1.3123 C.3     
   9 C9            -1.9851     0.0607     1.5151 C.3     
  10 C10           -2.5663    -0.4566     2.8057 C.2     
  11 C11           -0.6966    -2.0185     1.1079 C.ar    
  12 C12           -0.0648    -2.8838     1.9814 C.ar    
  13 C13           -0.1643    -4.2498     1.7939 C.ar    
  14 C14           -0.8959    -4.7504     0.7333 C.ar    
  15 C15           -1.5284    -3.8851    -0.1397 C.ar    
  16 C16           -1.4325    -2.5192     0.0503 C.ar    
  17 C17           -4.4436    -0.5133     4.4216 C.ar    
  18 C18           -3.9100    -0.0334     3.2290 C.ar    
  19 C19           -4.6484     0.8537     2.4277 C.ar    
  20 C20           -5.8933     1.2569     2.8044 C.ar    
  21 C21           -6.4505     0.7884     3.9980 C.ar    
  22 C22           -7.7882     1.2040     4.4294 C.ar    
  23 C23           -8.5534     2.0848     3.6603 C.ar    
  24 C24           -9.7968     2.4537     4.0878 C.ar    
  25 C25          -10.3115     1.9626     5.2814 C.ar    
  26 C26           -9.5886     1.1016     6.0540 C.ar    
  27 C27           -8.3079     0.7025     5.6437 C.ar    
  28 C28           -7.5464    -0.1897     6.4342 C.ar    
  29 C29           -6.3130    -0.5867     6.0600 C.ar    
  30 C30           -5.7208    -0.1056     4.8162 C.ar    
  31 O31           -1.9264    -1.2218     3.4952 O.2     
  32 C32           -0.8776     3.7677    -0.1844 C.3     
  33 C33           -2.0510     4.4122    -0.9251 C.3     
  34 C34            3.6170    -0.4372    -1.1021 C.3     
  35 C35            4.3336     0.1608    -2.3144 C.3     
  36 H36           -0.4940    -0.1778    -0.8110 H       
  37 H37            0.0231    -0.3269     2.1918 H       
  38 H38           -1.9177     1.1478     1.5570 H       
  39 H39           -2.6272    -0.2318     0.6844 H       
  40 H40            0.5068    -2.4927     2.8101 H       
  41 H41            0.3298    -4.9258     2.4759 H       
  42 H42           -0.9731    -5.8176     0.5864 H       
  43 H43           -2.0997    -4.2762    -0.9686 H       
  44 H44           -1.9297    -1.8432    -0.6296 H       
  45 H45           -3.8771    -1.1986     5.0347 H       
  46 H46           -4.2243     1.2197     1.5043 H       
  47 H47           -6.4508     1.9396     2.1804 H       
  48 H48           -8.1626     2.4726     2.7311 H       
  49 H49          -10.3863     3.1347     3.4919 H       
  50 H50          -11.2969     2.2669     5.6020 H       
  51 H51          -10.0016     0.7276     6.9792 H       
  52 H52           -7.9621    -0.5614     7.3591 H       
  53 H53           -5.7581    -1.2687     6.6871 H       
  54 H54           -0.9452     4.0028     0.8778 H       
  55 H55            0.0603     4.1543    -0.5831 H       
  56 H56           -2.0166     5.4932    -0.7894 H       
  57 H57           -1.9834     4.1771    -1.9873 H       
  58 H58           -2.9889     4.0256    -0.5264 H       
  59 H59            4.1441    -0.1526    -0.1915 H       
  60 H60            3.6017    -1.5237    -1.1886 H       
  61 H61            3.8064    -0.1238    -3.2250 H       
  62 H62            4.3489     1.2473    -2.2280 H       
  63 H63            5.3560    -0.2149    -2.3540 H       
@<TRIPOS>BOND
   1    1    2 1
   2    1    4 2
   3    1    5 1
   4    2    3 1
   5    2    8 1
   6    2   36 1
   7    3    6 2
   8    3    7 1
   9    5   32 1
  10    7   34 1
  11    8    9 1
  12    8   11 1
  13    8   37 1
  14    9   10 1
  15    9   38 1
  16    9   39 1
  17   10   18 1
  18   10   31 2
  19   11   12 ar
  20   11   16 ar
  21   12   13 ar
  22   12   40 1
  23   13   14 ar
  24   13   41 1
  25   14   15 ar
  26   14   42 1
  27   15   16 ar
  28   15   43 1
  29   16   44 1
  30   17   18 ar
  31   17   30 ar
  32   17   45 1
  33   18   19 ar
  34   19   20 ar
  35   19   46 1
  36   20   21 ar
  37   20   47 1
  38   21   22 ar
  39   21   30 ar
  40   22   23 ar
  41   22   27 ar
  42   23   24 ar
  43   23   48 1
  44   24   25 ar
  45   24   49 1
  46   25   26 ar
  47   25   50 1
  48   26   27 ar
  49   26   51 1
  50   27   28 ar
  51   28   29 ar
  52   28   52 1
  53   29   30 ar
  54   29   53 1
  55   32   33 1
  56   32   54 1
  57   32   55 1
  58   33   56 1
  59   33   57 1
  60   33   58 1
  61   34   35 1
  62   34   59 1
  63   34   60 1
  64   35   61 1
  65   35   62 1
  66   35   63 1

#	End of record

