#	Name: ASD01916352
#	Creating user name:	WinNT
#	Creation time:	15. 06. 2019 20:07

#	Modifying user name:	WinNT
#	Modification time:	15. 06. 2019 20:07

#	Program:	/corina/corina34_cracker 3.40 0067  02.08.2006

@<TRIPOS>MOLECULE
ASD01916352
  32   34    0    0    0
SMALL
NO_CHARGES


@<TRIPOS>ATOM
   1 C1            -0.0300     1.5471    -0.0173 C.3     
   2 C2            -0.0174     0.0129    -0.0301 C.3     
   3 C3             0.6147    -0.4804    -1.3295 C.3     
   4 C4             1.9760     0.1219    -1.5332 C.ar    
   5 C5             2.3511     1.3156    -0.9065 C.ar    
   6 C6             1.4121     2.0133    -0.0172 C.2     
   7 N7             2.8507    -0.4786    -2.3216 N.ar    
   8 C8             4.0569     0.0384    -2.5171 C.ar    
   9 N9             4.4453     1.1697    -1.9416 N.ar    
  10 C10            3.6329     1.8319    -1.1383 C.ar    
  11 N11            4.9378    -0.6225    -3.3477 N.pl3   
  12 C12            6.1699    -0.0419    -3.6641 C.ar    
  13 O13            1.7775     2.9284     0.6903 O.2     
  14 C14            7.2894    -0.8414    -3.8348 C.ar    
  15 C15            8.5165    -0.2569    -4.1504 C.ar    
  16 C16            8.6083     1.1292    -4.2922 C.ar    
  17 C17            7.4875     1.9161    -4.1202 C.ar    
  18 C18            6.2709     1.3366    -3.8131 C.ar    
  19 C19            9.6779    -1.0757    -4.3279 C.1     
  20 N20           10.5991    -1.7253    -4.4687 N.1     
  21 H21           -0.5399     1.9207    -0.9052 H       
  22 H22           -0.5352     1.9058     0.8795 H       
  23 H23            0.5621    -0.3528     0.8175 H       
  24 H24           -1.0394    -0.3593     0.0409 H       
  25 H25            0.7060    -1.5660    -1.2929 H       
  26 H26           -0.0270    -0.2047    -2.1664 H       
  27 H27            3.9494     2.7525    -0.6707 H       
  28 H28            4.7025    -1.4901    -3.7123 H       
  29 H29            7.2121    -1.9128    -3.7234 H       
  30 H30            9.5562     1.5856    -4.5362 H       
  31 H31            7.5605     2.9880    -4.2303 H       
  32 H32            5.3974     1.9577    -3.6801 H       
@<TRIPOS>BOND
   1    1    2 1
   2    1    6 1
   3    1   21 1
   4    1   22 1
   5    2    3 1
   6    2   23 1
   7    2   24 1
   8    3    4 1
   9    3   25 1
  10    3   26 1
  11    4    5 ar
  12    4    7 ar
  13    5    6 1
  14    5   10 ar
  15    6   13 2
  16    7    8 ar
  17    8    9 ar
  18    8   11 1
  19    9   10 ar
  20   10   27 1
  21   11   12 1
  22   11   28 1
  23   12   14 ar
  24   12   18 ar
  25   14   15 ar
  26   14   29 1
  27   15   16 ar
  28   15   19 1
  29   16   17 ar
  30   16   30 1
  31   17   18 ar
  32   17   31 1
  33   18   32 1
  34   19   20 3

#	End of record

