#	Name: ASD03092463
#	Creating user name:	WinNT
#	Creation time:	15. 06. 2019 20:32

#	Modifying user name:	WinNT
#	Modification time:	15. 06. 2019 20:32

#	Program:	/corina/corina34_cracker 3.40 0067  02.08.2006

@<TRIPOS>MOLECULE
ASD03092463
  62   65    0    0    0
SMALL
NO_CHARGES


@<TRIPOS>ATOM
   1 N1             0.4480     0.5647     0.3527 N.pl3   
   2 N2             0.6476    -0.8200     0.3253 N.2     
   3 C3             1.9264    -1.0609     0.2337 C.2     
   4 C4             2.6032     0.1789     0.1985 C.2     
   5 C5             1.6444     1.1690     0.2750 C.2     
   6 C6             4.0606     0.3778     0.0990 C.2     
   7 O7             4.8027    -0.5837     0.0383 O.2     
   8 N8             4.5705     1.6251     0.0755 N.am    
   9 C9             2.5691    -2.4227     0.1764 C.3     
  10 C10           -0.8483     1.2411     0.4443 C.3     
  11 C11            6.0187     1.8228    -0.0233 C.3     
  12 S12            6.8363     5.6751    -0.7227 S.3     
  13 C13            6.7092     5.2720     0.9337 C.2     
  14 N14            6.4433     4.0077     1.0707 N.2     
  15 C15            6.3250     3.2983    -0.0306 C.2     
  16 C16            6.5012     4.0036    -1.1675 C.2     
  17 C17            7.3132     3.2372    -4.7532 C.ar    
  18 C18            7.4234     3.7580    -3.4821 C.ar    
  19 C19            6.4259     3.4692    -2.5412 C.ar    
  20 C20            5.3552     2.6584    -2.9410 C.ar    
  21 C21            5.3256     2.1808    -4.2333 C.ar    
  22 N22            6.2870     2.4771    -5.0881 N.ar    
  23 C23            4.1801     1.3077    -4.6767 C.3     
  24 C24            8.3754     3.5448    -5.7769 C.3     
  25 N25            6.8673     6.1641     1.9785 N.3     
  26 C26            7.1605     7.5150     1.4781 C.3     
  27 C27            7.3866     8.4552     2.6651 C.3     
  28 O28            6.2350     8.4300     3.5128 O.3     
  29 C29            5.9208     7.1297     4.0186 C.3     
  30 C30            5.6799     6.1761     2.8453 C.3     
  31 C31            4.6592     7.2079     4.8807 C.3     
  32 C32            7.6130     9.8791     2.1531 C.3     
  33 H33            1.8237     2.2340     0.2728 H       
  34 H34            3.9785     2.3920     0.1239 H       
  35 H35            2.6528    -2.7415    -0.8626 H       
  36 H36            3.5624    -2.3747     0.6228 H       
  37 H37            1.9572    -3.1368     0.7274 H       
  38 H38           -1.1026     1.3986     1.4925 H       
  39 H39           -0.7928     2.2034    -0.0646 H       
  40 H40           -1.6139     0.6245    -0.0266 H       
  41 H41            6.5085     1.3542     0.8303 H       
  42 H42            6.3850     1.3711    -0.9453 H       
  43 H43            8.2659     4.3787    -3.2151 H       
  44 H44            4.5656     2.4113    -2.2469 H       
  45 H45            3.3826     1.9317    -5.0801 H       
  46 H46            4.5259     0.6176    -5.4463 H       
  47 H47            3.8031     0.7422    -3.8245 H       
  48 H48            9.1573     2.7869    -5.7283 H       
  49 H49            7.9314     3.5454    -6.7724 H       
  50 H50            8.8060     4.5247    -5.5706 H       
  51 H51            8.0577     7.4873     0.8597 H       
  52 H52            6.3196     7.8738     0.8846 H       
  53 H53            8.2603     8.1270     3.2281 H       
  54 H54            6.7519     6.7629     4.6210 H       
  55 H55            4.8154     6.5134     2.2737 H       
  56 H56            5.4964     5.1710     3.2250 H       
  57 H57            3.8285     7.5730     4.2767 H       
  58 H58            4.4203     6.2167     5.2659 H       
  59 H59            4.8301     7.8900     5.7136 H       
  60 H60            6.7379    10.2068     1.5919 H       
  61 H61            7.7738    10.5479     2.9985 H       
  62 H62            8.4885     9.8969     1.5040 H       
@<TRIPOS>BOND
   1    1    2 1
   2    1    5 1
   3    1   10 1
   4    2    3 2
   5    3    4 1
   6    3    9 1
   7    4    5 2
   8    4    6 1
   9    5   33 1
  10    6    7 2
  11    6    8 am
  12    8   11 1
  13    8   34 1
  14    9   35 1
  15    9   36 1
  16    9   37 1
  17   10   38 1
  18   10   39 1
  19   10   40 1
  20   11   15 1
  21   11   41 1
  22   11   42 1
  23   12   13 1
  24   12   16 1
  25   13   14 2
  26   13   25 1
  27   14   15 1
  28   15   16 2
  29   16   19 1
  30   17   18 ar
  31   17   22 ar
  32   17   24 1
  33   18   19 ar
  34   18   43 1
  35   19   20 ar
  36   20   21 ar
  37   20   44 1
  38   21   22 ar
  39   21   23 1
  40   23   45 1
  41   23   46 1
  42   23   47 1
  43   24   48 1
  44   24   49 1
  45   24   50 1
  46   25   26 1
  47   25   30 1
  48   26   27 1
  49   26   51 1
  50   26   52 1
  51   27   28 1
  52   27   32 1
  53   27   53 1
  54   28   29 1
  55   29   30 1
  56   29   31 1
  57   29   54 1
  58   30   55 1
  59   30   56 1
  60   31   57 1
  61   31   58 1
  62   31   59 1
  63   32   60 1
  64   32   61 1
  65   32   62 1

#	End of record

