#	Name: ASD01150348
#	Creating user name:	WinNT
#	Creation time:	15. 06. 2019 19:04

#	Modifying user name:	WinNT
#	Modification time:	15. 06. 2019 19:04

#	Program:	/corina/corina34_cracker 3.40 0067  02.08.2006

@<TRIPOS>MOLECULE
ASD01150348
  65   68    0    0    0
SMALL
NO_CHARGES


@<TRIPOS>ATOM
   1 N1            -0.0115     1.3882     0.0679 N.pl3   
   2 C2             0.0059    -0.0082     0.0433 C.2     
   3 C3            -1.3244    -0.4080     0.0498 C.2     
   4 N4            -2.0810     0.6925     0.0767 N.2     
   5 C5            -1.3175     1.7650     0.0929 C.2     
   6 C6             1.1421    -0.8421     0.0168 C.2     
   7 C7             1.1028     2.2372     0.0722 C.ar    
   8 C8             1.3381     3.0818    -1.0045 C.ar    
   9 C9             2.4376     3.9176    -0.9973 C.ar    
  10 C10            3.3037     3.9140     0.0807 C.ar    
  11 C11            3.0720     3.0740     1.1545 C.ar    
  12 C12            1.9712     2.2400     1.1558 C.ar    
  13 N13           -1.7705     3.0638     0.1218 N.3     
  14 C14           -3.2387     3.1092     0.1319 C.3     
  15 C15           -1.2134     3.7902     1.2706 C.3     
  16 O16            1.0089    -2.0524    -0.0030 O.2     
  17 O17            2.3785    -0.2988     0.0133 O.3     
  18 C18            3.4845    -1.2032    -0.0141 C.3     
  19 C19            3.4095    -2.0624    -1.2779 C.3     
  20 C20            4.7925    -0.4095    -0.0139 C.3     
  21 C21            3.4356    -2.1062     1.2201 C.3     
  22 N22           -1.7860    -1.7196     0.0310 N.am    
  23 C23           -3.1107    -1.9680     0.0401 C.2     
  24 O24           -3.9000    -1.0477     0.0647 O.2     
  25 C25           -3.6109    -3.3894     0.0199 C.3     
  26 N26           -5.0736    -3.3957     0.1556 N.3     
  27 C27           -5.7177    -2.7716    -1.0205 C.3     
  28 C28           -6.9984    -2.1521    -0.4153 C.3     
  29 C29           -6.6128    -1.9314     1.0339 C.ar    
  30 C30           -5.4750    -2.6856     1.2939 C.ar    
  31 C31           -7.1831    -1.1608     2.0254 C.ar    
  32 C32           -6.6215    -1.1301     3.2888 C.ar    
  33 C33           -5.4865    -1.8738     3.5566 C.ar    
  34 C34           -4.9135    -2.6474     2.5692 C.ar    
  35 H35            0.6623     3.0848    -1.8469 H       
  36 H36            2.6213     4.5745    -1.8347 H       
  37 H37            4.1629     4.5682     0.0839 H       
  38 H38            3.7504     3.0732     1.9949 H       
  39 H39            1.7906     1.5845     1.9949 H       
  40 H40           -3.6122     2.5891     1.0140 H       
  41 H41           -3.5700     4.1474     0.1548 H       
  42 H42           -3.6234     2.6247    -0.7655 H       
  43 H43           -0.1257     3.8009     1.2010 H       
  44 H44           -1.5876     4.8140     1.2694 H       
  45 H45           -1.5135     3.2948     2.1940 H       
  46 H46            3.4442    -1.4192    -2.1571 H       
  47 H47            4.2531    -2.7523    -1.2988 H       
  48 H48            2.4776    -2.6279    -1.2780 H       
  49 H49            4.8459     0.2026     0.8864 H       
  50 H50            5.6361    -1.0994    -0.0348 H       
  51 H51            4.8273     0.2337    -0.8932 H       
  52 H52            2.5038    -2.6716     1.2200 H       
  53 H53            4.2793    -2.7961     1.1992 H       
  54 H54            3.4891    -1.4941     2.1204 H       
  55 H55           -1.1546    -2.4558     0.0114 H       
  56 H56           -3.3315    -3.8595    -0.9230 H       
  57 H57           -3.1668    -3.9427     0.8474 H       
  58 H58           -5.0784    -1.9985    -1.4467 H       
  59 H59           -5.9683    -3.5236    -1.7686 H       
  60 H60           -7.2355    -1.2051    -0.9002 H       
  61 H61           -7.8357    -2.8459    -0.4907 H       
  62 H62           -8.0692    -0.5803     1.8148 H       
  63 H63           -7.0681    -0.5263     4.0649 H       
  64 H64           -5.0471    -1.8483     4.5429 H       
  65 H65           -4.0272    -3.2258     2.7848 H       
@<TRIPOS>BOND
   1    1    2 1
   2    1    7 1
   3    1    5 1
   4    2    3 2
   5    2    6 1
   6    3    4 1
   7    3   22 1
   8    4    5 2
   9    5   13 1
  10    6   16 2
  11    6   17 1
  12    7    8 ar
  13    7   12 ar
  14    8    9 ar
  15    8   35 1
  16    9   10 ar
  17    9   36 1
  18   10   11 ar
  19   10   37 1
  20   11   12 ar
  21   11   38 1
  22   12   39 1
  23   13   14 1
  24   13   15 1
  25   14   40 1
  26   14   41 1
  27   14   42 1
  28   15   43 1
  29   15   44 1
  30   15   45 1
  31   17   18 1
  32   18   19 1
  33   18   20 1
  34   18   21 1
  35   19   46 1
  36   19   47 1
  37   19   48 1
  38   20   49 1
  39   20   50 1
  40   20   51 1
  41   21   52 1
  42   21   53 1
  43   21   54 1
  44   22   23 am
  45   22   55 1
  46   23   24 2
  47   23   25 1
  48   25   26 1
  49   25   56 1
  50   25   57 1
  51   26   27 1
  52   26   30 1
  53   27   28 1
  54   27   58 1
  55   27   59 1
  56   28   29 1
  57   28   60 1
  58   28   61 1
  59   29   30 ar
  60   29   31 ar
  61   30   34 ar
  62   31   32 ar
  63   31   62 1
  64   32   33 ar
  65   32   63 1
  66   33   34 ar
  67   33   64 1
  68   34   65 1

#	End of record

