#	Name: ASD01840522
#	Creating user name:	WinNT
#	Creation time:	15. 06. 2019 19:37

#	Modifying user name:	WinNT
#	Modification time:	15. 06. 2019 19:37

#	Program:	/corina/corina34_cracker 3.40 0067  02.08.2006

@<TRIPOS>MOLECULE
ASD01840522
  48   51    0    0    0
SMALL
NO_CHARGES


@<TRIPOS>ATOM
   1 C1             1.2136    -1.1831     0.0060 C.3     
   2 O2             0.1205    -0.2627     0.0125 O.3     
   3 C3            -1.1301    -0.7910     0.0195 C.ar    
   4 C4            -2.2320     0.0537     0.0203 C.ar    
   5 C5            -3.5026    -0.4950     0.0276 C.ar    
   6 C6            -3.6259    -1.8813     0.0338 C.ar    
   7 O7            -4.8552    -2.4631     0.0406 O.3     
   8 C8            -5.9834    -1.5943     0.1602 C.3     
   9 C9            -6.3779    -1.0742    -1.2249 C.3     
  10 C10           -7.6230    -0.1934    -1.0982 C.3     
  11 N11           -8.7214    -0.9770    -0.5187 N.3     
  12 C12           -8.3839    -1.4472     0.8309 C.3     
  13 C13           -7.1616    -2.3654     0.7618 C.3     
  14 C14           -9.8990    -0.2496    -0.5105 C.ar    
  15 N15           -9.9809     0.8447     0.2335 N.ar    
  16 C16          -11.0850     1.5692     0.2715 C.ar    
  17 O17          -11.1659     2.6852     1.0320 O.3     
  18 C18          -12.2859     3.4213     1.0719 C.2     
  19 O19          -12.3033     4.4141     1.7720 O.2     
  20 N20          -13.3893     3.1104     0.3722 N.am    
  21 C21          -13.4164     2.0149    -0.4204 C.2     
  22 O22          -14.4110     1.7256    -1.0576 O.2     
  23 C23          -12.2039     1.1845    -0.4869 C.ar    
  24 C24          -12.1421     0.0346    -1.2792 C.ar    
  25 C25          -10.9732    -0.6801    -1.2896 C.ar    
  26 C26          -10.8509    -1.9243    -2.1310 C.3     
  27 C27           -2.4809    -2.6614     0.0326 C.ar    
  28 N28           -1.2849    -2.1041     0.0202 N.ar    
  29 H29            2.1534    -0.6310     0.0007 H       
  30 H30            1.1656    -1.8103     0.8962 H       
  31 H31            1.1554    -1.8100    -0.8838 H       
  32 H32           -2.0993     1.1255     0.0157 H       
  33 H33           -4.3779     0.1378     0.0287 H       
  34 H34           -5.7295    -0.7544     0.8070 H       
  35 H35           -5.5582    -0.4881    -1.6405 H       
  36 H36           -6.5934    -1.9166    -1.8821 H       
  37 H37           -7.4026     0.6562    -0.4519 H       
  38 H38           -7.9148     0.1669    -2.0846 H       
  39 H39           -8.1600    -0.5917     1.4681 H       
  40 H40           -9.2285    -1.9975     1.2455 H       
  41 H41           -7.3894    -3.2282     0.1358 H       
  42 H42           -6.9019    -2.7018     1.7655 H       
  43 H43          -14.1742     3.6767     0.4361 H       
  44 H44          -12.9903    -0.2793    -1.8696 H       
  45 H45          -11.2471    -2.7766    -1.5789 H       
  46 H46          -11.4154    -1.7954    -3.0544 H       
  47 H47           -9.8018    -2.1010    -2.3681 H       
  48 H48           -2.5683    -3.7378     0.0375 H       
@<TRIPOS>BOND
   1    1    2 1
   2    1   29 1
   3    1   30 1
   4    1   31 1
   5    2    3 1
   6    3   28 ar
   7    3    4 ar
   8    4    5 ar
   9    4   32 1
  10    5    6 ar
  11    5   33 1
  12    6    7 1
  13    6   27 ar
  14    7    8 1
  15    8   13 1
  16    8    9 1
  17    8   34 1
  18    9   10 1
  19    9   35 1
  20    9   36 1
  21   10   11 1
  22   10   37 1
  23   10   38 1
  24   11   12 1
  25   11   14 1
  26   12   13 1
  27   12   39 1
  28   12   40 1
  29   13   41 1
  30   13   42 1
  31   14   25 ar
  32   14   15 ar
  33   15   16 ar
  34   16   23 ar
  35   16   17 1
  36   17   18 1
  37   18   19 2
  38   18   20 am
  39   20   21 am
  40   20   43 1
  41   21   22 2
  42   21   23 1
  43   23   24 ar
  44   24   25 ar
  45   24   44 1
  46   25   26 1
  47   26   45 1
  48   26   46 1
  49   26   47 1
  50   27   28 ar
  51   27   48 1

#	End of record

