#	Name: ASD01410600
#	Creating user name:	WinNT
#	Creation time:	15. 06. 2019 19:18

#	Modifying user name:	WinNT
#	Modification time:	15. 06. 2019 19:18

#	Program:	/corina/corina34_cracker 3.40 0067  02.08.2006

@<TRIPOS>MOLECULE
ASD01410600
  67   69    0    0    0
SMALL
NO_CHARGES


@<TRIPOS>ATOM
   1 C1            -0.0360    -0.6760     2.4241 C.ar    
   2 C2             0.6738    -1.1535     3.5171 C.ar    
   3 C3             2.0323    -1.3713     3.3977 C.ar    
   4 N4             2.6583    -1.1315     2.2614 N.ar    
   5 C5             2.0165    -0.6761     1.1980 C.ar    
   6 C6             0.6496    -0.4342     1.2462 C.ar    
   7 O7             2.6999    -0.4431     0.0494 O.3     
   8 C8             4.0473    -0.6250     0.0603 C.ar    
   9 C9             4.5732    -1.9104     0.0079 C.ar    
  10 C10            5.9393    -2.1062     0.0184 C.ar    
  11 C11            6.7988    -1.0183     0.0820 C.ar    
  12 C12            6.2743     0.2821     0.1350 C.ar    
  13 C13            4.8901     0.4701     0.1177 C.ar    
  14 N14            8.1786    -1.2168     0.0934 N.am    
  15 C15            8.8574    -1.2985    -1.0680 C.2     
  16 C16            8.8908    -1.3367     1.3681 C.3     
  17 O17           10.0451    -1.5441    -1.0604 O.2     
  18 C18            8.1406    -1.0847    -2.3763 C.3     
  19 C19            8.8109    -1.9215    -3.4678 C.3     
  20 C20            8.0832    -1.7044    -4.7960 C.3     
  21 C21            8.1474    -0.2240    -5.1767 C.3     
  22 C22            7.4771     0.6128    -4.0852 C.3     
  23 C23            8.2048     0.3958    -2.7570 C.3     
  24 C24            7.4197    -0.0069    -6.5050 C.3     
  25 C25            8.9335    -2.8061     1.7922 C.3     
  26 O26            9.7116    -3.5507     0.8529 O.3     
  27 C27            9.8154    -4.9428     1.1581 C.3     
  28 C28           10.6655    -5.6367     0.0919 C.3     
  29 C29           10.7767    -7.1272     0.4187 C.3     
  30 C30           -0.0774     0.0845     0.0323 C.3     
  31 F31           -1.4340     0.2446     0.3342 F       
  32 F32            0.4652     1.3177    -0.3446 F       
  33 F33            0.0618    -0.8272    -1.0196 F       
  34 C34            7.1789     1.4438     0.2032 C.2     
  35 O35            8.3825     1.2768     0.2135 O.2     
  36 O36            6.6713     2.6910     0.2540 O.3     
  37 H37           -1.0997    -0.5014     2.4899 H       
  38 H38            0.1692    -1.3522     4.4510 H       
  39 H39            2.5893    -1.7425     4.2453 H       
  40 H40            3.9091    -2.7607    -0.0409 H       
  41 H41            6.3404    -3.1081    -0.0225 H       
  42 H42            4.4789     1.4679     0.1583 H       
  43 H43            9.9079    -0.9622     1.2526 H       
  44 H44            8.3732    -0.7536     2.1297 H       
  45 H45            7.0989    -1.3886    -2.2737 H       
  46 H46            9.8527    -1.6176    -3.5704 H       
  47 H47            8.7652    -2.9762    -3.1966 H       
  48 H48            8.5607    -2.3006    -5.5736 H       
  49 H49            7.0415    -2.0084    -4.6935 H       
  50 H50            9.1891     0.0800    -5.2793 H       
  51 H51            7.5228     1.6676    -4.3565 H       
  52 H52            6.4354     0.3089    -3.9827 H       
  53 H53            7.7273     0.9919    -1.9794 H       
  54 H54            9.2466     0.6997    -2.8596 H       
  55 H55            6.3780    -0.3108    -6.4024 H       
  56 H56            7.4654     1.0478    -6.7762 H       
  57 H57            7.8972    -0.6030    -7.2826 H       
  58 H58            9.3842    -2.8858     2.7815 H       
  59 H59            7.9197    -3.2054     1.8216 H       
  60 H60           10.2844    -5.0668     2.1342 H       
  61 H61            8.8198    -5.3864     1.1743 H       
  62 H62           10.1966    -5.5126    -0.8842 H       
  63 H63           11.6611    -5.1931     0.0757 H       
  64 H64            9.7811    -7.5708     0.4349 H       
  65 H65           11.3823    -7.6215    -0.3409 H       
  66 H66           11.2456    -7.2512     1.3948 H       
  67 H67            7.3040     3.4210     0.2978 H       
@<TRIPOS>BOND
   1    1    2 ar
   2    1    6 ar
   3    1   37 1
   4    2    3 ar
   5    2   38 1
   6    3    4 ar
   7    3   39 1
   8    4    5 ar
   9    5    6 ar
  10    5    7 1
  11    6   30 1
  12    7    8 1
  13    8    9 ar
  14    8   13 ar
  15    9   10 ar
  16    9   40 1
  17   10   11 ar
  18   10   41 1
  19   11   12 ar
  20   11   14 1
  21   12   13 ar
  22   12   34 1
  23   13   42 1
  24   14   15 am
  25   14   16 1
  26   15   17 2
  27   15   18 1
  28   16   25 1
  29   16   43 1
  30   16   44 1
  31   18   19 1
  32   18   23 1
  33   18   45 1
  34   19   20 1
  35   19   46 1
  36   19   47 1
  37   20   21 1
  38   20   48 1
  39   20   49 1
  40   21   22 1
  41   21   24 1
  42   21   50 1
  43   22   23 1
  44   22   51 1
  45   22   52 1
  46   23   53 1
  47   23   54 1
  48   24   55 1
  49   24   56 1
  50   24   57 1
  51   25   26 1
  52   25   58 1
  53   25   59 1
  54   26   27 1
  55   27   28 1
  56   27   60 1
  57   27   61 1
  58   28   29 1
  59   28   62 1
  60   28   63 1
  61   29   64 1
  62   29   65 1
  63   29   66 1
  64   30   31 1
  65   30   32 1
  66   30   33 1
  67   34   35 2
  68   34   36 1
  69   36   67 1

#	End of record

