#	Name: ASD01885888
#	Creating user name:	WinNT
#	Creation time:	15. 06. 2019 19:50

#	Modifying user name:	WinNT
#	Modification time:	15. 06. 2019 19:50

#	Program:	/corina/corina34_cracker 3.40 0067  02.08.2006

@<TRIPOS>MOLECULE
ASD01885888
  42   45    0    0    0
SMALL
NO_CHARGES


@<TRIPOS>ATOM
   1 C1            -0.0170     1.4033     0.0098 C.ar    
   2 C2             1.2132     2.1075     0.0018 C.ar    
   3 C3             1.1957     3.5260     0.0097 C.ar    
   4 C4            -0.0375     4.1606     0.0249 C.ar    
   5 C5            -1.2091     3.3920     0.0319 C.ar    
   6 N6            -1.1713     2.0720     0.0299 N.ar    
   7 C7             0.0021    -0.0041     0.0020 C.ar    
   8 C8             1.1927    -0.6632    -0.0129 C.ar    
   9 C9             2.3990     0.0332    -0.0203 C.ar    
  10 C10            2.4194     1.3961    -0.0132 C.ar    
  11 C11            1.2061    -2.1701    -0.0212 C.3     
  12 C12            2.4550     4.3050     0.0024 C.ar    
  13 C13            1.1968    -2.6723    -1.4664 C.3     
  14 C14            1.2103    -4.1792    -1.4746 C.ar    
  15 C15            2.6336     5.3379    -0.9182 C.ar    
  16 C16            3.8081     6.0608    -0.9207 C.ar    
  17 C17            4.8100     5.7627    -0.0107 C.ar    
  18 C18            4.6374     4.7375     0.9059 C.ar    
  19 C19            3.4644     4.0122     0.9198 C.ar    
  20 C20            0.0262    -4.8996    -1.4671 C.ar    
  21 N21            0.0772    -6.2219    -1.4746 N.ar    
  22 C22            1.2341    -6.8529    -1.4891 C.ar    
  23 N23            2.3797    -6.2012    -1.4966 N.ar    
  24 C24            2.4069    -4.8782    -1.4956 C.ar    
  25 F25            5.9589     6.4734    -0.0173 F       
  26 C26           -2.4787     4.0543     0.0480 C.1     
  27 N27           -3.4858     4.5796     0.0609 N.1     
  28 H28           -0.0943     5.2390     0.0317 H       
  29 H29           -0.9246    -0.5588     0.0083 H       
  30 H30            3.3302    -0.5138    -0.0315 H       
  31 H31            3.3612     1.9248    -0.0190 H       
  32 H32            2.1042    -2.5282     0.4822 H       
  33 H33            0.3244    -2.5441     0.4991 H       
  34 H34            0.2988    -2.3142    -1.9697 H       
  35 H35            2.0786    -2.2983    -1.9867 H       
  36 H36            1.8536     5.5708    -1.6280 H       
  37 H37            3.9475     6.8604    -1.6332 H       
  38 H38            5.4210     4.5089     1.6130 H       
  39 H39            3.3306     3.2137     1.6346 H       
  40 H40           -0.9252    -4.3886    -1.4549 H       
  41 H41            1.2438    -7.9329    -1.4946 H       
  42 H42            3.3491    -4.3502    -1.5017 H       
@<TRIPOS>BOND
   1    1    7 ar
   2    1    2 ar
   3    1    6 ar
   4    2    3 ar
   5    2   10 ar
   6    3    4 ar
   7    3   12 1
   8    4    5 ar
   9    4   28 1
  10    5    6 ar
  11    5   26 1
  12    7    8 ar
  13    7   29 1
  14    8   11 1
  15    8    9 ar
  16    9   10 ar
  17    9   30 1
  18   10   31 1
  19   11   13 1
  20   11   32 1
  21   11   33 1
  22   12   15 ar
  23   12   19 ar
  24   13   14 1
  25   13   34 1
  26   13   35 1
  27   14   20 ar
  28   14   24 ar
  29   15   16 ar
  30   15   36 1
  31   16   17 ar
  32   16   37 1
  33   17   18 ar
  34   17   25 1
  35   18   19 ar
  36   18   38 1
  37   19   39 1
  38   20   21 ar
  39   20   40 1
  40   21   22 ar
  41   22   23 ar
  42   22   41 1
  43   23   24 ar
  44   24   42 1
  45   26   27 3

#	End of record

