#	Name: ASD00170036
#	Creating user name:	WinNT
#	Creation time:	15. 06. 2019 18:31

#	Modifying user name:	WinNT
#	Modification time:	15. 06. 2019 18:31

#	Program:	/corina/corina34_cracker 3.40 0067  02.08.2006

@<TRIPOS>MOLECULE
ASD00170036
  39   42    0    0    0
SMALL
NO_CHARGES


@<TRIPOS>ATOM
   1 C1             0.5920     2.5479     1.2932 C.ar    
   2 C2             1.2003     2.2306     2.5319 C.ar    
   3 C3             0.5494     2.5760     3.7301 C.ar    
   4 C4            -0.6564     3.2102     3.7072 C.ar    
   5 C5            -1.2874     3.5395     2.5160 C.ar    
   6 C6            -0.7035     3.2241     1.2958 C.ar    
   7 C7             1.2359     2.2050     0.0983 C.ar    
   8 C8             2.4413     1.5696     0.1408 C.ar    
   9 C9             3.0419     1.2559     1.3576 C.ar    
  10 C10            2.4435     1.5758     2.5382 C.ar    
  11 C11           -1.3726     3.5733     0.0287 C.2     
  12 C12           -2.7190     4.1473     0.0460 C.2     
  13 O13           -0.8048     3.3839    -1.0323 O.2     
  14 C14           -2.9806     5.5664     0.2137 C.2     
  15 C15           -4.2871     5.8499     0.1958 C.2     
  16 S16           -5.2409     4.3923    -0.0259 S.3     
  17 C17           -3.8594     3.4004    -0.1002 C.2     
  18 N18           -3.8842     2.0312    -0.2757 N.pl3   
  19 C19           -1.8956     6.6166     0.3909 C.3     
  20 C20           -2.4946     7.9966     0.1105 C.3     
  21 C21           -3.7800     8.1622     0.9269 C.3     
  22 C22           -4.8609     7.2459     0.3470 C.3     
  23 Cl23           1.2892     2.1902     5.2524 Cl      
  24 H24           -1.1345     3.4632     4.6420 H       
  25 H25           -2.2432     4.0419     2.5378 H       
  26 H26            0.7802     2.4421    -0.8517 H       
  27 H27            2.9371     1.3056    -0.7816 H       
  28 H28            3.9970     0.7516     1.3649 H       
  29 H29            2.9208     1.3259     3.4742 H       
  30 H30           -4.7317     1.5598    -0.2934 H       
  31 H31           -3.0540     1.5407    -0.3812 H       
  32 H32           -1.5180     6.5830     1.4129 H       
  33 H33           -1.0818     6.4228    -0.3079 H       
  34 H34           -1.7800     8.7687     0.3956 H       
  35 H35           -2.7237     8.0853    -0.9515 H       
  36 H36           -3.5900     7.8906     1.9652 H       
  37 H37           -4.1140     9.1984     0.8749 H       
  38 H38           -5.1731     7.6205    -0.6279 H       
  39 H39           -5.7167     7.2180     1.0214 H       
@<TRIPOS>BOND
   1    1    2 ar
   2    1    7 ar
   3    1    6 ar
   4    2    3 ar
   5    2   10 ar
   6    3    4 ar
   7    3   23 1
   8    4    5 ar
   9    4   24 1
  10    5    6 ar
  11    5   25 1
  12    6   11 1
  13    7    8 ar
  14    7   26 1
  15    8    9 ar
  16    8   27 1
  17    9   10 ar
  18    9   28 1
  19   10   29 1
  20   11   12 1
  21   11   13 2
  22   12   14 1
  23   12   17 2
  24   14   15 2
  25   14   19 1
  26   15   16 1
  27   15   22 1
  28   16   17 1
  29   17   18 1
  30   18   30 1
  31   18   31 1
  32   19   20 1
  33   19   32 1
  34   19   33 1
  35   20   21 1
  36   20   34 1
  37   20   35 1
  38   21   22 1
  39   21   36 1
  40   21   37 1
  41   22   38 1
  42   22   39 1

#	End of record

