#	Name: ASD01812512
#	Creating user name:	WinNT
#	Creation time:	15. 06. 2019 19:28

#	Modifying user name:	WinNT
#	Modification time:	15. 06. 2019 19:28

#	Program:	/corina/corina34_cracker 3.40 0067  02.08.2006

@<TRIPOS>MOLECULE
ASD01812512
  58   62    0    0    0
SMALL
NO_CHARGES


@<TRIPOS>ATOM
   1 C1            -0.0599     1.4562     0.0245 C.ar    
   2 C2            -0.0520    -0.0037     0.0241 C.ar    
   3 C3            -1.2846    -0.6906    -0.0984 C.ar    
   4 C4            -2.4866     0.0383    -0.2162 C.ar    
   5 C5            -2.4874     1.3926    -0.2148 C.ar    
   6 C6            -1.2942     2.1217    -0.0916 C.ar    
   7 C7            -1.2874    -2.0939    -0.0997 C.ar    
   8 C8            -0.1111    -2.7728     0.0161 C.ar    
   9 C9             1.0978    -2.0949     0.1362 C.ar    
  10 C10            1.1368    -0.7311     0.1416 C.ar    
  11 N11            1.0701     2.1746     0.1373 N.2     
  12 C12            1.0569     3.4753     0.1374 C.2     
  13 N13           -0.0850     4.2057     0.0251 N.am    
  14 C14           -1.2845     3.5898    -0.0895 C.2     
  15 C15           -3.7922    -0.7029    -0.3465 C.3     
  16 C16           -4.3062    -1.0598     1.0245 C.ar    
  17 C17           -3.9484    -2.2559     1.6143 C.ar    
  18 C18           -5.1397    -0.1872     1.7101 C.ar    
  19 C19           -5.5892    -0.5541     2.9669 C.ar    
  20 C20           -5.1933    -1.7755     3.4961 C.ar    
  21 N21           -4.3932    -2.5781     2.8139 N.ar    
  22 O22           -2.3165     4.2289    -0.1864 O.2     
  23 O23           -5.6266    -2.1465     4.7271 O.3     
  24 C24           -5.1843    -3.4144     5.2158 C.3     
  25 C25           -0.0200     5.5925     0.0336 C.2     
  26 N26            0.1065     6.3940    -1.0421 N.pl3   
  27 N27            0.1329     7.7227    -0.6049 N.2     
  28 C28            0.0270     7.7482     0.6941 C.2     
  29 C29           -0.0793     6.4154     1.1539 C.2     
  30 C30            0.2004     5.9491    -2.4347 C.3     
  31 C31           -0.2220     5.9816     2.5499 C.2     
  32 O32           -0.3956     4.8059     2.8064 O.2     
  33 O33           -0.1604     6.8870     3.5468 O.3     
  34 C34           -0.3095     6.3869     4.9017 C.3     
  35 C35           -0.2124     7.5518     5.8889 C.3     
  36 H36           -3.4243     1.9218    -0.3067 H       
  37 H37           -2.2181    -2.6340    -0.1919 H       
  38 H38           -0.1177    -3.8528     0.0150 H       
  39 H39            2.0167    -2.6551     0.2267 H       
  40 H40            2.0812    -0.2156     0.2354 H       
  41 H41            1.9963     3.9997     0.2315 H       
  42 H42           -4.5202    -0.0700    -0.8540 H       
  43 H43           -3.6369    -1.6137    -0.9248 H       
  44 H44           -3.2964    -2.9365     1.0869 H       
  45 H45           -5.4307     0.7566     1.2732 H       
  46 H46           -6.2387     0.1009     3.5285 H       
  47 H47           -5.5173    -4.2010     4.5387 H       
  48 H48           -4.0958    -3.4218     5.2739 H       
  49 H49           -5.6022    -3.5876     6.2075 H       
  50 H50            0.0183     8.6341     1.3118 H       
  51 H51           -0.8014     5.7901    -2.8337 H       
  52 H52            0.7103     6.7100    -3.0256 H       
  53 H53            0.7622     5.0162    -2.4810 H       
  54 H54           -1.2805     5.9027     5.0055 H       
  55 H55            0.4804     5.6658     5.1118 H       
  56 H56           -0.3243     7.1763     6.9061 H       
  57 H57            0.7586     8.0360     5.7851 H       
  58 H58           -1.0023     8.2729     5.6788 H       
@<TRIPOS>BOND
   1    1    2 ar
   2    1   11 1
   3    1    6 ar
   4    2   10 ar
   5    2    3 ar
   6    3    4 ar
   7    3    7 ar
   8    4    5 ar
   9    4   15 1
  10    5    6 ar
  11    5   36 1
  12    6   14 1
  13    7    8 ar
  14    7   37 1
  15    8    9 ar
  16    8   38 1
  17    9   10 ar
  18    9   39 1
  19   10   40 1
  20   11   12 2
  21   12   13 1
  22   12   41 1
  23   13   14 am
  24   13   25 1
  25   14   22 2
  26   15   16 1
  27   15   42 1
  28   15   43 1
  29   16   18 ar
  30   16   17 ar
  31   17   21 ar
  32   17   44 1
  33   18   19 ar
  34   18   45 1
  35   19   20 ar
  36   19   46 1
  37   20   21 ar
  38   20   23 1
  39   23   24 1
  40   24   47 1
  41   24   48 1
  42   24   49 1
  43   25   26 1
  44   25   29 2
  45   26   30 1
  46   26   27 1
  47   27   28 2
  48   28   29 1
  49   28   50 1
  50   29   31 1
  51   30   51 1
  52   30   52 1
  53   30   53 1
  54   31   32 2
  55   31   33 1
  56   33   34 1
  57   34   35 1
  58   34   54 1
  59   34   55 1
  60   35   56 1
  61   35   57 1
  62   35   58 1

#	End of record

