#	Name: ASD01880460
#	Creating user name:	WinNT
#	Creation time:	15. 06. 2019 19:40

#	Modifying user name:	WinNT
#	Modification time:	15. 06. 2019 19:40

#	Program:	/corina/corina34_cracker 3.40 0067  02.08.2006

@<TRIPOS>MOLECULE
ASD01880460
  26   26    0    0    0
SMALL
NO_CHARGES


@<TRIPOS>ATOM
   1 O1            -0.1404     1.3513    -0.7696 O.3     
   2 C2            -0.1024     0.0109    -0.7073 C.2     
   3 O3             0.9458    -0.5712    -0.8563 O.2     
   4 C4            -1.3670    -0.7677    -0.4516 C.3     
   5 N5            -1.0624    -2.2005    -0.4300 N.pl3   
   6 C6            -2.0783    -3.1241    -0.2092 C.ar    
   7 C7            -3.3832    -2.6845    -0.0092 C.ar    
   8 C8            -4.3980    -3.5920     0.2105 C.ar    
   9 C9            -4.1211    -4.9583     0.2330 C.ar    
  10 C10           -2.8003    -5.4079     0.0302 C.ar    
  11 C11           -1.7870    -4.4851    -0.1950 C.ar    
  12 C12           -2.4962    -6.8549     0.0521 C.2     
  13 O13           -2.8070    -7.5262     1.0153 O.2     
  14 O14           -1.8745    -7.4284    -0.9962 O.3     
  15 C15           -5.2058    -5.9298     0.4684 C.2     
  16 O16           -4.9851    -7.1209     0.3761 O.2     
  17 O17           -6.4415    -5.4961     0.7859 O.3     
  18 H18            0.6961     1.8069    -0.9357 H       
  19 H19           -1.7882    -0.4713     0.5091 H       
  20 H20           -2.0872    -0.5612    -1.2433 H       
  21 H21           -0.1521    -2.5050    -0.5697 H       
  22 H22           -3.6024    -1.6271    -0.0257 H       
  23 H23           -5.4085    -3.2439     0.3658 H       
  24 H24           -0.7730    -4.8227    -0.3510 H       
  25 H25           -1.6969    -8.3770    -0.9359 H       
  26 H26           -7.1195    -6.1701     0.9309 H       
@<TRIPOS>BOND
   1    1    2 1
   2    1   18 1
   3    2    3 2
   4    2    4 1
   5    4    5 1
   6    4   19 1
   7    4   20 1
   8    5    6 1
   9    5   21 1
  10    6    7 ar
  11    6   11 ar
  12    7    8 ar
  13    7   22 1
  14    8    9 ar
  15    8   23 1
  16    9   10 ar
  17    9   15 1
  18   10   11 ar
  19   10   12 1
  20   11   24 1
  21   12   13 2
  22   12   14 1
  23   14   25 1
  24   15   16 2
  25   15   17 1
  26   17   26 1

#	End of record

