#	Name: ASD01100021
#	Creating user name:	WinNT
#	Creation time:	15. 06. 2019 18:58

#	Modifying user name:	WinNT
#	Modification time:	15. 06. 2019 18:58

#	Program:	/corina/corina34_cracker 3.40 0067  02.08.2006

@<TRIPOS>MOLECULE
ASD01100021
  37   38    0    0    0
SMALL
NO_CHARGES


@<TRIPOS>ATOM
   1 C1             0.6450     0.4793    -1.3279 C.ar    
   2 C2             0.9163    -0.8748    -1.2452 C.ar    
   3 C3             2.1382    -1.3066    -0.7608 C.ar    
   4 C4             3.0871    -0.3851    -0.3600 C.ar    
   5 C5             2.8155     0.9679    -0.4429 C.ar    
   6 C6             1.5947     1.3999    -0.9268 C.ar    
   7 C7             3.8503     1.9721    -0.0052 C.3     
   8 C8             3.2834     2.8267     1.1302 C.3     
   9 C9             2.9841     1.9364     2.3380 C.3     
  10 C10            4.3061     3.8942     1.5245 C.3     
  11 Cl11          -0.2762    -2.0317    -1.7483 Cl      
  12 C12            4.2132     2.8589    -1.1684 C.2     
  13 N13            5.2150     3.7524    -1.0478 N.am    
  14 O14            3.6037     2.7687    -2.2130 O.2     
  15 C15            5.4792     4.6474    -2.0834 C.ar    
  16 C16            4.5177     4.8718    -3.0607 C.ar    
  17 C17            4.7913     5.7634    -4.0844 C.ar    
  18 C18            6.0221     6.4021    -4.0949 C.ar    
  19 C19            6.9343     6.1315    -3.0890 C.ar    
  20 N20            6.6422     5.2795    -2.1230 N.ar    
  21 F21            8.1355     6.7498    -3.0931 F       
  22 H22           -0.3070     0.8170    -1.7101 H       
  23 H23            2.3505    -2.3635    -0.6956 H       
  24 H24            4.0409    -0.7220     0.0185 H       
  25 H25            1.3830     2.4570    -0.9914 H       
  26 H26            4.7402     1.4483     0.3437 H       
  27 H27            2.3643     3.3092     0.7978 H       
  28 H28            3.9032     1.4539     2.6704 H       
  29 H29            2.5803     2.5452     3.1469 H       
  30 H30            2.2556     1.1759     2.0571 H       
  31 H31            4.5509     4.5022     0.6535 H       
  32 H32            3.8860     4.5294     2.3044 H       
  33 H33            5.2099     3.4118     1.8965 H       
  34 H34            5.7521     3.7727    -0.2403 H       
  35 H35            3.5690     4.3571    -3.0228 H       
  36 H36            4.0624     5.9567    -4.8575 H       
  37 H37            6.2667     7.1029    -4.8795 H       
@<TRIPOS>BOND
   1    1    2 ar
   2    1    6 ar
   3    1   22 1
   4    2    3 ar
   5    2   11 1
   6    3    4 ar
   7    3   23 1
   8    4    5 ar
   9    4   24 1
  10    5    6 ar
  11    5    7 1
  12    6   25 1
  13    7    8 1
  14    7   12 1
  15    7   26 1
  16    8    9 1
  17    8   10 1
  18    8   27 1
  19    9   28 1
  20    9   29 1
  21    9   30 1
  22   10   31 1
  23   10   32 1
  24   10   33 1
  25   12   13 am
  26   12   14 2
  27   13   15 1
  28   13   34 1
  29   15   16 ar
  30   15   20 ar
  31   16   17 ar
  32   16   35 1
  33   17   18 ar
  34   17   36 1
  35   18   19 ar
  36   18   37 1
  37   19   20 ar
  38   19   21 1

#	End of record

