#	Name: ASD08178251
#	Creating user name:	WinNT
#	Creation time:	15. 06. 2019 21:18

#	Modifying user name:	WinNT
#	Modification time:	15. 06. 2019 21:18

#	Program:	/corina/corina34_cracker 3.40 0067  02.08.2006

@<TRIPOS>MOLECULE
ASD08178251
  72   76    0    0    0
SMALL
NO_CHARGES


@<TRIPOS>ATOM
   1 N1            -0.5022     0.3827    -0.4322 N.am    
   2 C2            -0.5351    -1.0106    -0.3870 C.ar    
   3 C3             0.6474    -1.7423    -0.4843 C.ar    
   4 N4            -1.6893    -1.6445    -0.2460 N.ar    
   5 N5            -1.7626    -2.9251    -0.1999 N.ar    
   6 C6            -0.6961    -3.6949    -0.2896 C.ar    
   7 C7             0.5609    -3.1249    -0.4340 C.ar    
   8 C8            -0.8414    -5.1937    -0.2289 C.3     
   9 C9            -1.5850    -5.5826     1.0504 C.3     
  10 C10           -1.7325    -7.1042     1.1120 C.3     
  11 C11           -2.4761    -7.4931     2.3913 C.3     
  12 C12           -2.6214    -8.9919     2.4520 C.2     
  13 N13           -1.7841    -9.8193     2.9923 N.2     
  14 N14           -2.0868   -11.0438     2.9402 N.2     
  15 C15           -3.2010   -11.3652     2.3551 C.2     
  16 S16           -3.9660    -9.9338     1.8068 S.3     
  17 N17           -3.6940   -12.6568     2.2038 N.am    
  18 C18           -2.9977   -13.7048     2.6870 C.2     
  19 C19           -3.5319   -15.1043     2.5230 C.3     
  20 O20           -1.9412   -13.5215     3.2537 O.2     
  21 C21           -2.5716   -16.0847     3.1457 C.ar    
  22 C22           -2.7089   -16.4360     4.4758 C.ar    
  23 C23           -1.8297   -17.3357     5.0502 C.ar    
  24 C24           -0.8118   -17.8857     4.2960 C.ar    
  25 C25           -0.6717   -17.5348     2.9606 C.ar    
  26 C26           -1.5583   -16.6360     2.3855 C.ar    
  27 C27           -1.6532     1.0837    -0.4488 C.2     
  28 O28           -2.7155     0.5035    -0.5243 O.2     
  29 C29           -1.6202     2.5884    -0.3735 C.3     
  30 C30           -3.0282     3.1243    -0.4095 C.ar    
  31 C31           -3.7269     3.3114     0.7685 C.ar    
  32 C32           -5.0185     3.8029     0.7354 C.ar    
  33 C33           -5.6113     4.1076    -0.4756 C.ar    
  34 C34           -4.9123     3.9214    -1.6536 C.ar    
  35 C35           -3.6191     3.4340    -1.6202 C.ar    
  36 O36            0.3289   -18.0746     2.2164 O.3     
  37 C37            1.2262   -18.8805     2.8425 C.ar    
  38 C38            0.8761   -20.1802     3.1796 C.ar    
  39 C39            1.7900   -20.9974     3.8160 C.ar    
  40 C40            3.0528   -20.5213     4.1172 C.ar    
  41 C41            3.4040   -19.2264     3.7827 C.ar    
  42 C42            2.4959   -18.4071     3.1407 C.ar    
  43 H43            0.3490     0.8475    -0.4477 H       
  44 H44            1.6009    -1.2476    -0.5956 H       
  45 H45            1.4452    -3.7403    -0.5090 H       
  46 H46           -1.4043    -5.5395    -1.0958 H       
  47 H47            0.1463    -5.6547    -0.2295 H       
  48 H48           -1.0221    -5.2367     1.9173 H       
  49 H49           -2.5727    -5.1215     1.0510 H       
  50 H50           -2.2954    -7.4501     0.2451 H       
  51 H51           -0.7448    -7.5653     1.1114 H       
  52 H52           -1.9132    -7.1472     3.2582 H       
  53 H53           -3.4638    -7.0320     2.3919 H       
  54 H54           -4.5390   -12.8034     1.7505 H       
  55 H55           -4.5015   -15.1831     3.0148 H       
  56 H56           -3.6433   -15.3288     1.4622 H       
  57 H57           -3.5040   -16.0067     5.0674 H       
  58 H58           -1.9389   -17.6082     6.0895 H       
  59 H59           -0.1252   -18.5881     4.7451 H       
  60 H60           -1.4515   -16.3613     1.3465 H       
  61 H61           -1.1383     2.8953     0.5549 H       
  62 H62           -1.0597     2.9824    -1.2212 H       
  63 H63           -3.2638     3.0733     1.7147 H       
  64 H64           -5.5647     3.9484     1.6557 H       
  65 H65           -6.6206     4.4909    -0.5015 H       
  66 H66           -5.3755     4.1592    -2.5998 H       
  67 H67           -3.0730     3.2885    -2.5405 H       
  68 H68           -0.1102   -20.5524     2.9449 H       
  69 H69            1.5179   -22.0089     4.0790 H       
  70 H70            3.7659   -21.1618     4.6148 H       
  71 H71            4.3907   -18.8568     4.0197 H       
  72 H72            2.7708   -17.3958     2.8797 H       
@<TRIPOS>BOND
   1    1    2 1
   2    1   27 am
   3    1   43 1
   4    2    3 ar
   5    2    4 ar
   6    3    7 ar
   7    3   44 1
   8    4    5 ar
   9    5    6 ar
  10    6    7 ar
  11    6    8 1
  12    7   45 1
  13    8    9 1
  14    8   46 1
  15    8   47 1
  16    9   10 1
  17    9   48 1
  18    9   49 1
  19   10   11 1
  20   10   50 1
  21   10   51 1
  22   11   12 1
  23   11   52 1
  24   11   53 1
  25   12   13 2
  26   12   16 1
  27   13   14 1
  28   14   15 2
  29   15   16 1
  30   15   17 1
  31   17   18 am
  32   17   54 1
  33   18   19 1
  34   18   20 2
  35   19   21 1
  36   19   55 1
  37   19   56 1
  38   21   22 ar
  39   21   26 ar
  40   22   23 ar
  41   22   57 1
  42   23   24 ar
  43   23   58 1
  44   24   25 ar
  45   24   59 1
  46   25   26 ar
  47   25   36 1
  48   26   60 1
  49   27   28 2
  50   27   29 1
  51   29   30 1
  52   29   61 1
  53   29   62 1
  54   30   31 ar
  55   30   35 ar
  56   31   32 ar
  57   31   63 1
  58   32   33 ar
  59   32   64 1
  60   33   34 ar
  61   33   65 1
  62   34   35 ar
  63   34   66 1
  64   35   67 1
  65   36   37 1
  66   37   38 ar
  67   37   42 ar
  68   38   39 ar
  69   38   68 1
  70   39   40 ar
  71   39   69 1
  72   40   41 ar
  73   40   70 1
  74   41   42 ar
  75   41   71 1
  76   42   72 1

#	End of record

