#	Name: ASD03240483
#	Creating user name:	WinNT
#	Creation time:	15. 06. 2019 20:35

#	Modifying user name:	WinNT
#	Modification time:	15. 06. 2019 20:35

#	Program:	/corina/corina34_cracker 3.40 0067  02.08.2006

@<TRIPOS>MOLECULE
ASD03240483
  42   45    0    0    0
SMALL
NO_CHARGES


@<TRIPOS>ATOM
   1 C1            -0.0688     1.4763     0.0646 C.ar    
   2 C2             2.2808     2.5225    -2.2606 C.ar    
   3 C3             1.3904     2.9289    -1.2833 C.ar    
   4 C4             1.2782     2.1491     0.0014 C.3     
   5 C5             2.3875     3.2331    -3.4390 C.ar    
   6 C6             1.5965     4.3614    -3.6432 C.ar    
   7 C7             0.7018     4.7666    -2.6554 C.ar    
   8 C8             0.6030     4.0488    -1.4806 C.ar    
   9 C9             1.7074     5.1300    -4.9087 C.2     
  10 C10            0.9973     6.2474    -5.2381 C.2     
  11 N11            1.3942     6.6354    -6.4668 N.pl3   
  12 N12            2.3735     5.7399    -6.9134 N.2     
  13 C13            2.5690     4.8415    -5.9848 C.2     
  14 C14           -0.1570     0.0985    -0.0065 C.ar    
  15 C15           -1.3921    -0.5191     0.0515 C.ar    
  16 C16            1.4295     3.1002     1.1902 C.3     
  17 N17            1.4400     2.3280     2.4352 N.pl3   
  18 C18            2.5271     1.8156     3.0511 C.2     
  19 C19           -2.5403     0.2418     0.1806 C.ar    
  20 C20           -2.4514     1.6207     0.2517 C.ar    
  21 C21           -1.2153     2.2368     0.1994 C.ar    
  22 Cl22          -4.0921    -0.5332     0.2529 Cl      
  23 C23            0.3505     1.9963     3.1944 C.2     
  24 C24            0.8083     1.2887     4.2448 C.2     
  25 N25            2.1415     1.1938     4.1317 N.2     
  26 H26            2.8968     1.6502    -2.0995 H       
  27 H27            2.0635     1.3941     0.0379 H       
  28 H28            3.0833     2.9151    -4.2014 H       
  29 H29            0.0862     5.6407    -2.8087 H       
  30 H30           -0.0907     4.3618    -0.7143 H       
  31 H31            0.2523     6.7333    -4.6256 H       
  32 H32            1.0590     7.4024    -6.9570 H       
  33 H33            3.2650     4.0173    -6.0365 H       
  34 H34            0.7394    -0.4953    -0.1076 H       
  35 H35           -1.4609    -1.5954    -0.0044 H       
  36 H36            2.3648     3.6522     1.0972 H       
  37 H37            0.5942     3.8003     1.2040 H       
  38 H38            3.5467     1.9052     2.7063 H       
  39 H39           -3.3474     2.2152     0.3525 H       
  40 H40           -1.1458     3.3131     0.2549 H       
  41 H41           -0.6786     2.2527     2.9903 H       
  42 H42            0.2077     0.8727     5.0401 H       
@<TRIPOS>BOND
   1    1   14 ar
   2    1    4 1
   3    1   21 ar
   4    2    3 ar
   5    2    5 ar
   6    2   26 1
   7    3    4 1
   8    3    8 ar
   9    4   16 1
  10    4   27 1
  11    5    6 ar
  12    5   28 1
  13    6    7 ar
  14    6    9 1
  15    7    8 ar
  16    7   29 1
  17    8   30 1
  18    9   10 2
  19    9   13 1
  20   10   11 1
  21   10   31 1
  22   11   12 1
  23   11   32 1
  24   12   13 2
  25   13   33 1
  26   14   15 ar
  27   14   34 1
  28   15   19 ar
  29   15   35 1
  30   16   17 1
  31   16   36 1
  32   16   37 1
  33   17   18 1
  34   17   23 1
  35   18   25 2
  36   18   38 1
  37   19   20 ar
  38   19   22 1
  39   20   21 ar
  40   20   39 1
  41   21   40 1
  42   23   24 2
  43   23   41 1
  44   24   25 1
  45   24   42 1

#	End of record

