#	Name: ASD01151055
#	Creating user name:	WinNT
#	Creation time:	15. 06. 2019 19:05

#	Modifying user name:	WinNT
#	Modification time:	15. 06. 2019 19:05

#	Program:	/corina/corina34_cracker 3.40 0067  02.08.2006

@<TRIPOS>MOLECULE
ASD01151055
  49   51    0    0    0
SMALL
NO_CHARGES


@<TRIPOS>ATOM
   1 O1             1.3656     1.2954     0.0345 O.2     
   2 C2             0.8891     2.2314     0.6466 C.2     
   3 C3             1.7169     3.4202     0.9410 C.ar    
   4 C4             1.1722     4.4963     1.6437 C.ar    
   5 C5             1.9472     5.6052     1.9172 C.ar    
   6 C6             3.2629     5.6553     1.4972 C.ar    
   7 C7             3.8148     4.5892     0.7963 C.ar    
   8 C8             3.0468     3.4681     0.5223 C.ar    
   9 N9             5.1466     4.6452     0.3725 N.am    
  10 C10            5.4994     4.1111    -0.8136 C.2     
  11 O11            4.6783     3.5086    -1.4772 O.2     
  12 C12            6.8849     4.2580    -1.3074 C.ar    
  13 C13            7.2536     3.7061    -2.5354 C.ar    
  14 C14            8.5482     3.8473    -2.9907 C.ar    
  15 C15            9.4802     4.5341    -2.2331 C.ar    
  16 C16            9.1213     5.0836    -1.0150 C.ar    
  17 C17            7.8288     4.9543    -0.5505 C.ar    
  18 N18           -0.3954     2.1875     1.0521 N.am    
  19 C19           -1.2108     1.1137     0.6781 C.ar    
  20 C20           -0.7981    -0.1910     0.9190 C.ar    
  21 Br21           0.8671    -0.5183     1.7531 Br      
  22 C22           -1.6063    -1.2491     0.5487 C.ar    
  23 C23           -2.8243    -1.0107    -0.0608 C.ar    
  24 C24           -3.2381     0.2864    -0.3026 C.ar    
  25 C25           -2.4377     1.3496     0.0702 C.ar    
  26 Br26          -3.0046     3.1230    -0.2609 Br      
  27 C27           -3.7027    -2.1672    -0.4631 C.3     
  28 C28           -5.0979    -1.6488    -0.8177 C.3     
  29 F29           -5.0240    -0.8646    -1.9739 F       
  30 F30           -5.9545    -2.7317    -1.0427 F       
  31 F31           -5.5907    -0.8761     0.2392 F       
  32 C32           -3.0955    -2.8700    -1.6790 C.3     
  33 F33           -1.8199    -3.3441    -1.3548 F       
  34 F34           -3.9110    -3.9437    -2.0525 F       
  35 F35           -3.0006    -1.9649    -2.7415 F       
  36 F36           -3.7977    -3.0724     0.5994 F       
  37 H37            0.1442     4.4614     1.9731 H       
  38 H38            1.5239     6.4368     2.4611 H       
  39 H39            3.8643     6.5258     1.7139 H       
  40 H40            3.4737     2.6388    -0.0220 H       
  41 H41            5.8163     5.0685     0.9322 H       
  42 H42            6.5271     3.1694    -3.1275 H       
  43 H43            8.8349     3.4204    -3.9404 H       
  44 H44           10.4925     4.6415    -2.5939 H       
  45 H45            9.8537     5.6182    -0.4284 H       
  46 H46            7.5498     5.3840     0.4002 H       
  47 H47           -0.7547     2.9003     1.6031 H       
  48 H48           -1.2859    -2.2635     0.7354 H       
  49 H49           -4.1897     0.4689    -0.7795 H       
@<TRIPOS>BOND
   1    1    2 2
   2    2    3 1
   3    2   18 am
   4    3    4 ar
   5    3    8 ar
   6    4    5 ar
   7    4   37 1
   8    5    6 ar
   9    5   38 1
  10    6    7 ar
  11    6   39 1
  12    7    8 ar
  13    7    9 1
  14    8   40 1
  15    9   10 am
  16    9   41 1
  17   10   11 2
  18   10   12 1
  19   12   13 ar
  20   12   17 ar
  21   13   14 ar
  22   13   42 1
  23   14   15 ar
  24   14   43 1
  25   15   16 ar
  26   15   44 1
  27   16   17 ar
  28   16   45 1
  29   17   46 1
  30   18   19 1
  31   18   47 1
  32   19   20 ar
  33   19   25 ar
  34   20   21 1
  35   20   22 ar
  36   22   23 ar
  37   22   48 1
  38   23   24 ar
  39   23   27 1
  40   24   25 ar
  41   24   49 1
  42   25   26 1
  43   27   28 1
  44   27   32 1
  45   27   36 1
  46   28   29 1
  47   28   30 1
  48   28   31 1
  49   32   33 1
  50   32   34 1
  51   32   35 1

#	End of record

