#	Name: ASD08150664
#	Creating user name:	WinNT
#	Creation time:	15. 06. 2019 21:16

#	Modifying user name:	WinNT
#	Modification time:	15. 06. 2019 21:16

#	Program:	/corina/corina34_cracker 3.40 0067  02.08.2006

@<TRIPOS>MOLECULE
ASD08150664
  64   69    0    0    0
SMALL
NO_CHARGES


@<TRIPOS>ATOM
   1 N1             0.2167     2.4623    -0.2740 N.am    
   2 C2             0.3635     1.2395    -0.8200 C.2     
   3 C3             1.6444     0.7149    -1.0865 C.2     
   4 C4             2.7540     1.4405    -0.7946 C.2     
   5 C5             2.6032     2.7274    -0.2205 C.ar    
   6 C6             3.7208     3.5212     0.1014 C.ar    
   7 N7             3.5787     4.7081     0.6309 N.ar    
   8 C8             2.3742     5.2359     0.8967 C.ar    
   9 C9             1.1943     4.5078     0.6056 C.ar    
  10 C10            1.3135     3.2199     0.0324 C.ar    
  11 C11           -0.0561     5.0664     0.8873 C.ar    
  12 C12           -0.1275     6.3304     1.4501 C.ar    
  13 C13            1.0444     7.0449     1.7354 C.ar    
  14 C14            2.2678     6.5152     1.4667 C.ar    
  15 O15           -0.6250     0.5775    -1.0870 O.2     
  16 C16           -1.4499     6.9306     1.7516 C.ar    
  17 C17           -1.0676     2.9635    -0.0239 C.ar    
  18 C18           -1.9467     3.1783    -1.0777 C.ar    
  19 C19           -3.2118     3.6715    -0.8315 C.ar    
  20 C20           -3.6062     3.9532     0.4707 C.ar    
  21 C21           -2.7271     3.7383     1.5244 C.ar    
  22 C22           -1.4635     3.2399     1.2782 C.ar    
  23 N23           -4.8876     4.4533     0.7203 N.3     
  24 C24           -1.5980     7.7797     2.8473 C.ar    
  25 C25           -2.8287     8.3366     3.1248 C.ar    
  26 C26           -3.9197     8.0520     2.3146 C.ar    
  27 C27           -3.7754     7.2063     1.2230 C.ar    
  28 C28           -2.5459     6.6513     0.9367 C.ar    
  29 C29           -5.8497     3.3605     0.9200 C.3     
  30 C30           -7.2195     3.9477     1.2683 C.3     
  31 N31           -7.6571     4.8394     0.1852 N.3     
  32 C32           -6.6950     5.9321    -0.0145 C.3     
  33 C33           -5.3252     5.3449    -0.3628 C.3     
  34 C34           -3.1547     4.0437     2.9368 C.3     
  35 F35           -2.1035     3.7576     3.8145 F       
  36 F36           -3.4925     5.3974     3.0394 F       
  37 F37           -4.2650     3.2596     3.2678 F       
  38 O38           -5.1311     8.6018     2.5908 O.3     
  39 C39           -6.2806     7.9383     2.0613 C.3     
  40 H40            1.7434    -0.2675    -1.5239 H       
  41 H41            3.7374     1.0425    -0.9966 H       
  42 H42            4.7134     3.1425    -0.0924 H       
  43 H43           -0.9595     4.5169     0.6675 H       
  44 H44            0.9747     8.0295     2.1738 H       
  45 H45            3.1603     7.0794     1.6933 H       
  46 H46           -1.6399     2.9597    -2.0899 H       
  47 H47           -3.8951     3.8389    -1.6509 H       
  48 H48           -0.7814     3.0686     2.0979 H       
  49 H49           -0.7499     8.0009     3.4783 H       
  50 H50           -2.9441     8.9945     3.9734 H       
  51 H51           -4.6260     6.9865     0.5948 H       
  52 H52           -2.4342     5.9938     0.0872 H       
  53 H53           -5.9278     2.7730     0.0053 H       
  54 H54           -5.5101     2.7215     1.7351 H       
  55 H55           -7.9415     3.1400     1.3885 H       
  56 H56           -7.1474     4.5127     2.1977 H       
  57 H57           -7.8025     4.3247    -0.6704 H       
  58 H58           -7.0346     6.5712    -0.8296 H       
  59 H59           -6.6169     6.5196     0.9003 H       
  60 H60           -4.6032     6.1526    -0.4829 H       
  61 H61           -5.3974     4.7800    -1.2922 H       
  62 H62           -6.1861     7.8563     0.9785 H       
  63 H63           -6.3572     6.9416     2.4959 H       
  64 H64           -7.1753     8.5109     2.3056 H       
@<TRIPOS>BOND
   1    1    2 am
   2    1   10 1
   3    1   17 1
   4    2    3 1
   5    2   15 2
   6    3    4 2
   7    3   40 1
   8    4    5 1
   9    4   41 1
  10    5    6 ar
  11    5   10 ar
  12    6    7 ar
  13    6   42 1
  14    7    8 ar
  15    8    9 ar
  16    8   14 ar
  17    9   10 ar
  18    9   11 ar
  19   11   12 ar
  20   11   43 1
  21   12   13 ar
  22   12   16 1
  23   13   14 ar
  24   13   44 1
  25   14   45 1
  26   16   24 ar
  27   16   28 ar
  28   17   18 ar
  29   17   22 ar
  30   18   19 ar
  31   18   46 1
  32   19   20 ar
  33   19   47 1
  34   20   21 ar
  35   20   23 1
  36   21   22 ar
  37   21   34 1
  38   22   48 1
  39   23   29 1
  40   23   33 1
  41   24   25 ar
  42   24   49 1
  43   25   26 ar
  44   25   50 1
  45   26   27 ar
  46   26   38 1
  47   27   28 ar
  48   27   51 1
  49   28   52 1
  50   29   30 1
  51   29   53 1
  52   29   54 1
  53   30   31 1
  54   30   55 1
  55   30   56 1
  56   31   32 1
  57   31   57 1
  58   32   33 1
  59   32   58 1
  60   32   59 1
  61   33   60 1
  62   33   61 1
  63   34   35 1
  64   34   36 1
  65   34   37 1
  66   38   39 1
  67   39   62 1
  68   39   63 1
  69   39   64 1

#	End of record

