#	Name: ASD01912217
#	Creating user name:	WinNT
#	Creation time:	15. 06. 2019 19:59

#	Modifying user name:	WinNT
#	Modification time:	15. 06. 2019 19:59

#	Program:	/corina/corina34_cracker 3.40 0067  02.08.2006

@<TRIPOS>MOLECULE
ASD01912217
  48   49    0    0    0
SMALL
NO_CHARGES


@<TRIPOS>ATOM
   1 N1            -0.0178     1.4645     0.0078 N.am    
   2 C2             0.0024    -0.0039     0.0064 C.3     
   3 C3             0.7696    -0.4859    -1.2314 C.3     
   4 C4             2.0827     0.2623    -1.3016 C.2     
   5 C5             2.0529     1.7740    -1.2478 C.3     
   6 C6             1.2536     2.1994    -0.0095 C.3     
   7 C7            -1.1897     2.1301     0.0193 C.2     
   8 O8            -2.2369     1.5187    -0.0688 O.2     
   9 N9            -1.2007     3.4734     0.1284 N.am    
  10 C10            3.2372    -0.3941    -1.4078 C.2     
  11 C11            4.4700     0.3315    -1.4729 C.1     
  12 C12            5.4807     0.9264    -1.5263 C.1     
  13 C13            6.7135     1.6521    -1.5914 C.ar    
  14 C14            7.9221     0.9584    -1.7027 C.ar    
  15 C15            9.1035     1.6743    -1.7644 C.ar    
  16 C16            9.0428     3.0608    -1.7131 C.ar    
  17 C17            7.8132     3.6839    -1.6026 C.ar    
  18 N18            6.7003     2.9813    -1.5509 N.ar    
  19 C19            7.7452     5.1883    -1.5467 C.3     
  20 C20           -2.4654     4.2061     0.0284 C.3     
  21 C21           -3.4148     3.7377     1.1331 C.3     
  22 C22           -2.2003     5.7048     0.1853 C.3     
  23 C23           -3.1018     3.9409    -1.3374 C.3     
  24 H24            0.4996    -0.3634     0.9073 H       
  25 H25           -1.0189    -0.3833    -0.0259 H       
  26 H26            0.9608    -1.5560    -1.1510 H       
  27 H27            0.1836    -0.2838    -2.1280 H       
  28 H28            3.0703     2.1588    -1.1778 H       
  29 H29            1.5735     2.1638    -2.1457 H       
  30 H30            1.0560     3.2705    -0.0524 H       
  31 H31            1.8226     1.9664     0.8905 H       
  32 H32           -0.3712     3.9551     0.2731 H       
  33 H33            3.2433    -1.4735    -1.4448 H       
  34 H34            7.9330    -0.1209    -1.7397 H       
  35 H35           10.0527     1.1663    -1.8503 H       
  36 H36            9.9484     3.6475    -1.7588 H       
  37 H37            7.6543     5.5857    -2.5576 H       
  38 H38            6.8793     5.4912    -0.9580 H       
  39 H39            8.6527     5.5761    -1.0841 H       
  40 H40           -2.9613     3.9266     2.1061 H       
  41 H41           -4.3557     4.2829     1.0587 H       
  42 H42           -3.6036     2.6700     1.0213 H       
  43 H43           -1.5239     6.0384    -0.6017 H       
  44 H44           -3.1413     6.2499     0.1109 H       
  45 H45           -1.7469     5.8937     1.1583 H       
  46 H46           -3.2907     2.8732    -1.4491 H       
  47 H47           -4.0428     4.4860    -1.4118 H       
  48 H48           -2.4254     4.2746    -2.1244 H       
@<TRIPOS>BOND
   1    1    2 1
   2    1    6 1
   3    1    7 am
   4    2    3 1
   5    2   24 1
   6    2   25 1
   7    3    4 1
   8    3   26 1
   9    3   27 1
  10    4    5 1
  11    4   10 2
  12    5    6 1
  13    5   28 1
  14    5   29 1
  15    6   30 1
  16    6   31 1
  17    7    8 2
  18    7    9 am
  19    9   20 1
  20    9   32 1
  21   10   11 1
  22   10   33 1
  23   11   12 3
  24   12   13 1
  25   13   14 ar
  26   13   18 ar
  27   14   15 ar
  28   14   34 1
  29   15   16 ar
  30   15   35 1
  31   16   17 ar
  32   16   36 1
  33   17   18 ar
  34   17   19 1
  35   19   37 1
  36   19   38 1
  37   19   39 1
  38   20   21 1
  39   20   23 1
  40   20   22 1
  41   21   40 1
  42   21   41 1
  43   21   42 1
  44   22   43 1
  45   22   44 1
  46   22   45 1
  47   23   46 1
  48   23   47 1
  49   23   48 1

#	End of record

