#	Name: ASD02408456
#	Creating user name:	WinNT
#	Creation time:	15. 06. 2019 20:21

#	Modifying user name:	WinNT
#	Modification time:	15. 06. 2019 20:21

#	Program:	/corina/corina34_cracker 3.40 0067  02.08.2006

@<TRIPOS>MOLECULE
ASD02408456
  43   45    0    0    0
SMALL
NO_CHARGES


@<TRIPOS>ATOM
   1 C1             0.2429     1.1258    -0.1917 C.2     
   2 C2             0.1561    -0.2738    -0.1255 C.2     
   3 N3            -1.1670    -0.5789    -0.0879 N.pl3   
   4 N4            -1.8956     0.6165    -0.1303 N.2     
   5 C5            -1.0724     1.6262    -0.1966 C.2     
   6 C6            -1.7346    -1.9275    -0.0163 C.3     
   7 C7            -2.5747    -2.0603     1.2555 C.3     
   8 C8            -1.6677    -1.9352     2.4813 C.3     
   9 C9            -1.7548    -2.1757    -2.5023 C.3     
  10 C10           -2.6193    -2.1742    -1.2400 C.3     
  11 C11            1.5731     1.7321    -0.2437 C.2     
  12 N12            2.6407     0.9001    -0.2245 N.am    
  13 N13            1.2852    -0.9995    -0.1119 N.2     
  14 O14            1.7149     2.9407    -0.3025 O.2     
  15 C15            2.4600    -0.4431    -0.1592 C.2     
  16 C16            3.6771    -1.3317    -0.1406 C.3     
  17 C17            3.2386    -2.7956    -0.0650 C.3     
  18 C18            2.5219    -3.1966    -1.3333 C.2     
  19 C19            2.9336    -4.3602    -1.7580 C.2     
  20 C20            3.9935    -4.9292    -0.8436 C.3     
  21 C21            4.4729    -3.7249    -0.0004 C.3     
  22 H22           -1.3523     2.6684    -0.2411 H       
  23 H23           -0.9282    -2.6606     0.0028 H       
  24 H24           -3.3269    -1.2718     1.2781 H       
  25 H25           -3.0673    -3.0327     1.2658 H       
  26 H26           -0.8607    -2.6646     2.4122 H       
  27 H27           -1.2469    -0.9305     2.5208 H       
  28 H28           -2.2493    -2.1213     3.3842 H       
  29 H29           -1.3311    -1.1829    -2.6537 H       
  30 H30           -0.9492    -2.9013    -2.3901 H       
  31 H31           -2.3682    -2.4439    -3.3625 H       
  32 H32           -3.1175    -3.1385    -1.1397 H       
  33 H33           -3.3672    -1.3846    -1.3127 H       
  34 H34            3.5386     1.2656    -0.2580 H       
  35 H35            4.2570    -1.1726    -1.0498 H       
  36 H36            4.2898    -1.0906     0.7280 H       
  37 H37            2.5958    -2.9544     0.8009 H       
  38 H38            1.7677    -2.5991    -1.8239 H       
  39 H39            2.5648    -4.8519    -2.6460 H       
  40 H40            3.5665    -5.6978    -0.1995 H       
  41 H41            4.8191    -5.3369    -1.4269 H       
  42 H42            5.3435    -3.2513    -0.4541 H       
  43 H43            4.6834    -4.0251     1.0261 H       
@<TRIPOS>BOND
   1    1    2 2
   2    1   11 1
   3    1    5 1
   4    2    3 1
   5    2   13 1
   6    3    4 1
   7    3    6 1
   8    4    5 2
   9    5   22 1
  10    6    7 1
  11    6   10 1
  12    6   23 1
  13    7    8 1
  14    7   24 1
  15    7   25 1
  16    8   26 1
  17    8   27 1
  18    8   28 1
  19    9   10 1
  20    9   29 1
  21    9   30 1
  22    9   31 1
  23   10   32 1
  24   10   33 1
  25   11   12 am
  26   11   14 2
  27   12   15 1
  28   12   34 1
  29   13   15 2
  30   15   16 1
  31   16   17 1
  32   16   35 1
  33   16   36 1
  34   17   18 1
  35   17   21 1
  36   17   37 1
  37   18   19 2
  38   18   38 1
  39   19   20 1
  40   19   39 1
  41   20   21 1
  42   20   40 1
  43   20   41 1
  44   21   42 1
  45   21   43 1

#	End of record

