#	Name: ASD08070139
#	Creating user name:	WinNT
#	Creation time:	15. 06. 2019 21:14

#	Modifying user name:	WinNT
#	Modification time:	15. 06. 2019 21:14

#	Program:	/corina/corina34_cracker 3.40 0067  02.08.2006

@<TRIPOS>MOLECULE
ASD08070139
  39   39    0    0    0
SMALL
NO_CHARGES


@<TRIPOS>ATOM
   1 C1            -0.0179     1.4658     0.0101 C.ar    
   2 C2             0.0021    -0.0041     0.0020 C.2     
   3 C3            -1.1575    -0.6948     0.0094 C.2     
   4 C4            -1.1377    -2.1572     0.0013 C.2     
   5 O5            -0.0755    -2.7514    -0.0120 O.2     
   6 C6            -2.2757    -4.3118     0.0006 C.3     
   7 N7            -2.2956    -2.8469     0.0087 N.am    
   8 C8            -3.5702    -4.8428     0.6198 C.3     
   9 C9            -3.6290    -4.4469     2.0965 C.3     
  10 C10           -2.1568    -4.8123    -1.4403 C.3     
  11 C11            1.1833     2.1844     0.0025 C.ar    
  12 C12            1.1591     3.5608     0.0102 C.ar    
  13 C13           -0.0554     4.2371     0.0254 C.ar    
  14 C14           -1.2512     3.5280     0.0330 C.ar    
  15 C15           -1.2381     2.1515     0.0196 C.ar    
  16 O16           -0.0738     5.5943     0.0334 O.3     
  17 C17           -1.3557     6.2256     0.0490 C.3     
  18 C18           -1.1758     7.7450     0.0561 C.3     
  19 H19            0.9446    -0.5313    -0.0098 H       
  20 H20           -2.1001    -0.1676     0.0212 H       
  21 H21           -1.4235    -4.6668     0.5801 H       
  22 H22           -3.1421    -2.3734     0.0193 H       
  23 H23           -4.4254    -4.4168     0.0951 H       
  24 H24           -3.5952    -5.9291     0.5336 H       
  25 H25           -4.5512    -4.8252     2.5376 H       
  26 H26           -2.7738    -4.8728     2.6212 H       
  27 H27           -3.6040    -3.3606     2.1827 H       
  28 H28           -1.2347    -4.4340    -1.8814 H       
  29 H29           -2.1421    -5.9022    -1.4463 H       
  30 H30           -3.0091    -4.4573    -2.0197 H       
  31 H31            2.1273     1.6600    -0.0090 H       
  32 H32            2.0853     4.1163     0.0047 H       
  33 H33           -2.1921     4.0580     0.0449 H       
  34 H34           -2.1676     1.6016     0.0255 H       
  35 H35           -1.9170     5.9303    -0.8374 H       
  36 H36           -1.9003     5.9201     0.9424 H       
  37 H37           -2.1536     8.2266     0.0680 H       
  38 H38           -0.6145     8.0403     0.9425 H       
  39 H39           -0.6312     8.0505    -0.8373 H       
@<TRIPOS>BOND
   1    1    2 1
   2    1   11 ar
   3    1   15 ar
   4    2    3 2
   5    2   19 1
   6    3    4 1
   7    3   20 1
   8    4    5 2
   9    4    7 am
  10    6    8 1
  11    6   10 1
  12    6    7 1
  13    6   21 1
  14    7   22 1
  15    8    9 1
  16    8   23 1
  17    8   24 1
  18    9   25 1
  19    9   26 1
  20    9   27 1
  21   10   28 1
  22   10   29 1
  23   10   30 1
  24   11   12 ar
  25   11   31 1
  26   12   13 ar
  27   12   32 1
  28   13   14 ar
  29   13   16 1
  30   14   15 ar
  31   14   33 1
  32   15   34 1
  33   16   17 1
  34   17   18 1
  35   17   35 1
  36   17   36 1
  37   18   37 1
  38   18   38 1
  39   18   39 1

#	End of record

