#	Name: ASD01815643
#	Creating user name:	WinNT
#	Creation time:	15. 06. 2019 19:33

#	Modifying user name:	WinNT
#	Modification time:	15. 06. 2019 19:33

#	Program:	/corina/corina34_cracker 3.40 0067  02.08.2006

@<TRIPOS>MOLECULE
ASD01815643
  34   36    0    0    0
SMALL
NO_CHARGES


@<TRIPOS>ATOM
   1 C1             0.7367     2.0118     0.0804 C.ar    
   2 C2             0.4876     0.6485     0.1064 C.ar    
   3 C3             1.5241    -0.2590     0.0559 C.ar    
   4 C4             2.8393     0.1892    -0.0223 C.ar    
   5 C5             3.0925     1.5716    -0.0488 C.ar    
   6 C6             2.0331     2.4809     0.0030 C.ar    
   7 N7             3.8832    -0.7095    -0.0729 N.pl3   
   8 C8             5.1652    -0.3290    -0.1481 C.2     
   9 C9             5.5372     0.9995    -0.1804 C.2     
  10 C10            4.4896     2.0328    -0.1318 C.2     
  11 O11            4.7662     3.2194    -0.1579 O.2     
  12 C12            6.9552     1.3766    -0.2628 C.2     
  13 O13            7.8119     0.5150    -0.3033 O.2     
  14 O14            7.3060     2.6778    -0.2937 O.3     
  15 C15            3.5775    -2.1419    -0.0425 C.3     
  16 C16            3.7065    -2.6532     1.3693 C.ar    
  17 C17            2.7006    -3.2405     3.4651 C.ar    
  18 C18            3.9434    -3.5922     3.9631 C.ar    
  19 C19            5.0686    -3.4687     3.1661 C.ar    
  20 F20            2.2754     3.8097    -0.0224 F       
  21 C21            4.9501    -2.9995     1.8692 C.ar    
  22 C22            2.5820    -2.7713     2.1681 C.ar    
  23 F23            1.3691    -2.4282     1.6821 F       
  24 F24            6.0481    -2.8798     1.0911 F       
  25 F25            4.0591    -4.0501     5.2288 F       
  26 H26           -0.0867     2.7099     0.1162 H       
  27 H27           -0.5304     0.2930     0.1674 H       
  28 H28            1.3153    -1.3184     0.0774 H       
  29 H29            5.9334    -1.0872    -0.1845 H       
  30 H30            8.2508     2.8766    -0.3482 H       
  31 H31            2.5592    -2.3037    -0.3959 H       
  32 H32            4.2751    -2.6761    -0.6875 H       
  33 H33            1.8227    -3.3372     4.0867 H       
  34 H34            6.0383    -3.7427     3.5548 H       
@<TRIPOS>BOND
   1    1    2 ar
   2    1    6 ar
   3    1   26 1
   4    2    3 ar
   5    2   27 1
   6    3    4 ar
   7    3   28 1
   8    4    5 ar
   9    4    7 1
  10    5    6 ar
  11    5   10 1
  12    6   20 1
  13    7    8 1
  14    7   15 1
  15    8    9 2
  16    8   29 1
  17    9   10 1
  18    9   12 1
  19   10   11 2
  20   12   13 2
  21   12   14 1
  22   14   30 1
  23   15   16 1
  24   15   31 1
  25   15   32 1
  26   16   22 ar
  27   16   21 ar
  28   17   18 ar
  29   17   22 ar
  30   17   33 1
  31   18   19 ar
  32   18   25 1
  33   19   21 ar
  34   19   34 1
  35   21   24 1
  36   22   23 1

#	End of record

