#	Name: ASD01903215
#	Creating user name:	WinNT
#	Creation time:	15. 06. 2019 19:54

#	Modifying user name:	WinNT
#	Modification time:	15. 06. 2019 19:54

#	Program:	/corina/corina34_cracker 3.40 0067  02.08.2006

@<TRIPOS>MOLECULE
ASD01903215
  26   28    0    0    0
SMALL
NO_CHARGES


@<TRIPOS>ATOM
   1 S1            -0.0237     1.7575    -0.0222 S.3     
   2 C2             0.0015    -0.0034    -0.0074 C.2     
   3 N3             1.2325    -0.4157    -0.0136 N.2     
   4 C4             2.1773     0.5141    -0.0289 C.2     
   5 C5             1.7382     1.7830    -0.0363 C.2     
   6 N6            -1.1173    -0.8208     0.0087 N.pl3   
   7 C7            -2.3976    -0.2563     0.1299 C.2     
   8 C8             3.6237     0.1753    -0.0369 C.2     
   9 C9             4.6924     1.0882     0.0470 C.2     
  10 N10            5.8097     0.4111     0.0087 N.2     
  11 N11            5.5011    -0.9502    -0.1002 N.pl3   
  12 C12            4.1573    -1.0770    -0.1209 C.2     
  13 C13           -3.5232    -0.9815     0.0453 C.2     
  14 S14           -4.8893     0.1118     0.2515 S.3     
  15 C15           -3.8189     1.4326     0.4308 C.2     
  16 N16           -2.5949     1.0319     0.3424 N.2     
  17 C17           -4.2433     2.8596     0.6644 C.3     
  18 H18            2.3582     2.6672    -0.0490 H       
  19 H19           -1.0163    -1.7827    -0.0637 H       
  20 H20            4.6041     2.1615     0.1287 H       
  21 H21            6.1419    -1.6768    -0.1486 H       
  22 H22            3.6049    -2.0018    -0.1974 H       
  23 H23           -3.5816    -2.0471    -0.1201 H       
  24 H24           -5.3313     2.9138     0.7007 H       
  25 H25           -3.8303     3.2114     1.6098 H       
  26 H26           -3.8752     3.4858    -0.1483 H       
@<TRIPOS>BOND
   1    1    2 1
   2    1    5 1
   3    2    3 2
   4    2    6 1
   5    3    4 1
   6    4    5 2
   7    4    8 1
   8    5   18 1
   9    6    7 1
  10    6   19 1
  11    7   13 2
  12    7   16 1
  13    8    9 1
  14    8   12 2
  15    9   10 2
  16    9   20 1
  17   10   11 1
  18   11   12 1
  19   11   21 1
  20   12   22 1
  21   13   14 1
  22   13   23 1
  23   14   15 1
  24   15   16 2
  25   15   17 1
  26   17   24 1
  27   17   25 1
  28   17   26 1

#	End of record

