#	Name: ASD01440119
#	Creating user name:	WinNT
#	Creation time:	15. 06. 2019 19:21

#	Modifying user name:	WinNT
#	Modification time:	15. 06. 2019 19:21

#	Program:	/corina/corina34_cracker 3.40 0067  02.08.2006

@<TRIPOS>MOLECULE
ASD01440119
  41   43    0    0    0
SMALL
NO_CHARGES


@<TRIPOS>ATOM
   1 C1             0.2295     1.1634    -0.2572 C.ar    
   2 C2             0.2525    -0.1903    -0.0089 C.ar    
   3 C3             1.3321    -0.7586     0.6581 C.ar    
   4 C4             2.3925     0.0371     1.0772 C.ar    
   5 C5             2.3779     1.3916     0.8327 C.ar    
   6 C6             1.2942     1.9674     0.1621 C.ar    
   7 C7             1.2741     3.4183    -0.1022 C.2     
   8 O8             0.5947     3.8620    -1.0077 O.2     
   9 C9             2.0794     4.3324     0.7333 C.ar    
  10 O10            1.3505    -2.0934     0.9012 O.3     
  11 C11            2.4898    -2.6115     1.5910 C.3     
  12 C12            2.3348    -4.0998     1.7697 C.2     
  13 N13            3.2949    -4.8067     2.3982 N.am    
  14 O14            1.3460    -4.6616     1.3479 O.2     
  15 C15            2.4579     5.5834     0.2399 C.ar    
  16 C16            3.2095     6.4319     1.0245 C.ar    
  17 C17            3.5894     6.0464     2.2999 C.ar    
  18 C18            3.2171     4.8072     2.7949 C.ar    
  19 C19            2.4607     3.9519     2.0223 C.ar    
  20 Cl20           4.5363     7.1204     3.2815 Cl      
  21 C21            3.1066    -6.1698     2.6534 C.ar    
  22 C22            4.1872    -7.0423     2.6548 C.ar    
  23 N23            4.0138    -8.3266     2.8942 N.ar    
  24 C24            2.8210    -8.8327     3.1402 C.ar    
  25 C25            1.6974    -8.0279     3.1559 C.ar    
  26 C26            1.8339    -6.6703     2.9152 C.ar    
  27 H27           -0.6075     1.6034    -0.7791 H       
  28 H28           -0.5693    -0.8119    -0.3324 H       
  29 H29            3.2288    -0.4083     1.5957 H       
  30 H30            3.2019     2.0090     1.1589 H       
  31 H31            3.3897    -2.4070     1.0109 H       
  32 H32            2.5709    -2.1348     2.5678 H       
  33 H33            4.1164    -4.3706     2.6737 H       
  34 H34            2.1628     5.8849    -0.7543 H       
  35 H35            3.5032     7.3991     0.6441 H       
  36 H36            3.5166     4.5122     3.7898 H       
  37 H37            2.1673     2.9879     2.4110 H       
  38 H38            5.1796    -6.6645     2.4575 H       
  39 H39            2.7208    -9.8909     3.3317 H       
  40 H40            0.7247    -8.4516     3.3580 H       
  41 H41            0.9739    -6.0171     2.9260 H       
@<TRIPOS>BOND
   1    1    2 ar
   2    1    6 ar
   3    1   27 1
   4    2    3 ar
   5    2   28 1
   6    3    4 ar
   7    3   10 1
   8    4    5 ar
   9    4   29 1
  10    5    6 ar
  11    5   30 1
  12    6    7 1
  13    7    8 2
  14    7    9 1
  15    9   15 ar
  16    9   19 ar
  17   10   11 1
  18   11   12 1
  19   11   31 1
  20   11   32 1
  21   12   13 am
  22   12   14 2
  23   13   21 1
  24   13   33 1
  25   15   16 ar
  26   15   34 1
  27   16   17 ar
  28   16   35 1
  29   17   18 ar
  30   17   20 1
  31   18   19 ar
  32   18   36 1
  33   19   37 1
  34   21   22 ar
  35   21   26 ar
  36   22   23 ar
  37   22   38 1
  38   23   24 ar
  39   24   25 ar
  40   24   39 1
  41   25   26 ar
  42   25   40 1
  43   26   41 1

#	End of record

