#	Name: ASD01890305
#	Creating user name:	WinNT
#	Creation time:	15. 06. 2019 19:50

#	Modifying user name:	WinNT
#	Modification time:	15. 06. 2019 19:50

#	Program:	/corina/corina34_cracker 3.40 0067  02.08.2006

@<TRIPOS>MOLECULE
ASD01890305
  45   47    0    0    0
SMALL
NO_CHARGES


@<TRIPOS>ATOM
   1 C1            -0.0301     1.4534    -0.0383 C.2     
   2 C2            -0.0044    -0.0086    -0.0479 C.2     
   3 C3             1.1740    -0.6622    -0.1145 C.2     
   4 C4             2.4493     0.1057    -0.3495 C.3     
   5 C5             3.0808     0.4693     0.9958 C.3     
   6 O6             1.0109     2.0796     0.0214 O.2     
   7 O7            -1.2082     2.1078    -0.1011 O.3     
   8 C8             1.2141    -2.1250     0.0422 C.ar    
   9 C9             0.5986    -2.9504    -0.9042 C.ar    
  10 C10            0.6409    -4.3201    -0.7506 C.ar    
  11 C11            1.2900    -4.8783     0.3369 C.ar    
  12 C12            1.9012    -4.0682     1.2780 C.ar    
  13 C13            1.8730    -2.6970     1.1352 C.ar    
  14 N14            6.5029     1.7282     0.4843 N.pl3   
  15 C15            5.5978     0.7290     0.7184 C.2     
  16 C16            4.3561     1.2372     0.7609 C.2     
  17 C17            4.4757     2.6797     0.5357 C.ar    
  18 C18            3.5590     3.7306     0.4669 C.ar    
  19 C19            4.0013     5.0025     0.2363 C.ar    
  20 C20            5.3555     5.2589     0.0697 C.ar    
  21 C21            6.2770     4.2371     0.1333 C.ar    
  22 C22            5.8490     2.9342     0.3676 C.ar    
  23 C23           -1.1586     3.5359    -0.0874 C.3     
  24 C24           -2.5801     4.0963    -0.1650 C.3     
  25 H25           -0.9287    -0.5653    -0.0017 H       
  26 H26            3.1434    -0.5093    -0.9223 H       
  27 H27            2.2276     1.0170    -0.9049 H       
  28 H28            2.3867     1.0842     1.5687 H       
  29 H29            3.3025    -0.4420     1.5513 H       
  30 H30            0.0911    -2.5162    -1.7529 H       
  31 H31            0.1660    -4.9588    -1.4805 H       
  32 H32            1.3194    -5.9518     0.4519 H       
  33 H33            2.4051    -4.5113     2.1243 H       
  34 H34            2.3542    -2.0663     1.8680 H       
  35 H35            7.4627     1.6057     0.4151 H       
  36 H36            5.8458    -0.3140     0.8492 H       
  37 H37            2.5039     3.5386     0.5951 H       
  38 H38            3.2917     5.8150     0.1828 H       
  39 H39            5.6898     6.2697    -0.1119 H       
  40 H40            7.3283     4.4466     0.0021 H       
  41 H41           -0.6845     3.8741     0.8339 H       
  42 H42           -0.5822     3.8877    -0.9430 H       
  43 H43           -3.0543     3.7580    -1.0864 H       
  44 H44           -3.1566     3.7445     0.6906 H       
  45 H45           -2.5423     5.1856    -0.1546 H       
@<TRIPOS>BOND
   1    1    2 1
   2    1    6 2
   3    1    7 1
   4    2    3 2
   5    2   25 1
   6    3    4 1
   7    3    8 1
   8    4    5 1
   9    4   26 1
  10    4   27 1
  11    5   16 1
  12    5   28 1
  13    5   29 1
  14    7   23 1
  15    8    9 ar
  16    8   13 ar
  17    9   10 ar
  18    9   30 1
  19   10   11 ar
  20   10   31 1
  21   11   12 ar
  22   11   32 1
  23   12   13 ar
  24   12   33 1
  25   13   34 1
  26   14   15 1
  27   14   22 1
  28   14   35 1
  29   15   16 2
  30   15   36 1
  31   16   17 1
  32   17   18 ar
  33   17   22 ar
  34   18   19 ar
  35   18   37 1
  36   19   20 ar
  37   19   38 1
  38   20   21 ar
  39   20   39 1
  40   21   22 ar
  41   21   40 1
  42   23   24 1
  43   23   41 1
  44   23   42 1
  45   24   43 1
  46   24   44 1
  47   24   45 1

#	End of record

