#	Name: ASD07931723
#	Creating user name:	WinNT
#	Creation time:	15. 06. 2019 21:13

#	Modifying user name:	WinNT
#	Modification time:	15. 06. 2019 21:13

#	Program:	/corina/corina34_cracker 3.40 0067  02.08.2006

@<TRIPOS>MOLECULE
ASD07931723
  60   64    0    0    0
SMALL
NO_CHARGES


@<TRIPOS>ATOM
   1 C1             1.9431    -2.0983    -1.0473 C.2     
   2 C2             0.8462    -1.3021    -1.2325 C.2     
   3 C3             1.0343     0.1470    -1.3354 C.2     
   4 N4             2.2749     0.6575    -1.2475 N.am    
   5 C5             3.3628    -0.1646    -1.0588 C.2     
   6 C6             3.2126    -1.5136    -0.9604 C.2     
   7 C7             2.4996     2.1056    -1.3527 C.3     
   8 C8             3.5672     2.4977    -0.3203 C.3     
   9 N9             4.7999     1.7550    -0.6188 N.am    
  10 C10            4.7061     0.4484    -0.9631 C.2     
  11 C11            6.1055     2.4155    -0.5453 C.3     
  12 O12            0.0758     0.8825    -1.4994 O.2     
  13 N13           -0.4315    -1.8616    -1.3226 N.pl3   
  14 C14           -1.1010    -2.5294    -0.3294 C.2     
  15 C15           -1.2477    -1.8414    -2.4090 C.2     
  16 N16           -2.3543    -2.4647    -2.1088 N.2     
  17 C17           -2.2914    -2.8968    -0.8404 C.2     
  18 C18           -3.3672    -3.6613    -0.1129 C.3     
  19 O19            5.7049    -0.2073    -1.1884 O.2     
  20 C20            6.3909     2.8215     0.9020 C.3     
  21 C21            6.2681     1.5985     1.8377 C.3     
  22 C22            5.6321     2.1721     3.1237 C.3     
  23 C23            5.4458     3.6737     2.8128 C.3     
  24 O24            5.3872     3.7477     1.3716 O.3     
  25 C25            4.1609     4.1791     3.4167 C.ar    
  26 C26            4.1293     4.5799     4.7412 C.ar    
  27 C27            3.0153     4.2476     2.6465 C.ar    
  28 C28            1.8358     4.7113     3.1989 C.ar    
  29 C29            1.7996     5.1070     4.5227 C.ar    
  30 C30            2.9463     5.0445     5.2953 C.ar    
  31 C31            6.0970     3.6621    -1.4324 C.3     
  32 F32            5.2499     4.5180     5.4933 F       
  33 F33            2.9117     5.4307     6.5895 F       
  34 C34            0.5131     5.6122     5.1233 C.3     
  35 F35           -0.4953     5.5878     4.1538 F       
  36 F36            0.1470     4.7941     6.1975 F       
  37 F37            0.6931     6.9236     5.5760 F       
  38 H38            1.8305    -3.1692    -0.9642 H       
  39 H39            4.0807    -2.1391    -0.8135 H       
  40 H40            2.8488     2.3521    -2.3554 H       
  41 H41            1.5720     2.6384    -1.1437 H       
  42 H42            3.7607     3.5686    -0.3824 H       
  43 H43            3.2195     2.2430     0.6808 H       
  44 H44            6.8795     1.7297    -0.8897 H       
  45 H45           -0.7424    -2.7235     0.6707 H       
  46 H46           -1.0190    -1.3857    -3.3611 H       
  47 H47           -3.2155    -4.7306    -0.2598 H       
  48 H48           -3.3205    -3.4305     0.9513 H       
  49 H49           -4.3436    -3.3757    -0.5042 H       
  50 H50            7.3843     3.2628     0.9827 H       
  51 H51            5.6194     0.8426     1.3952 H       
  52 H52            7.2520     1.1810     2.0517 H       
  53 H53            4.6689     1.6997     3.3169 H       
  54 H54            6.3015     2.0381     3.9734 H       
  55 H55            6.2936     4.2469     3.1880 H       
  56 H56            3.0416     3.9389     1.6119 H       
  57 H57            0.9418     4.7648     2.5953 H       
  58 H58            7.0684     4.1535    -1.3777 H       
  59 H59            5.8937     3.3729    -2.4635 H       
  60 H60            5.3230     4.3479    -1.0880 H       
@<TRIPOS>BOND
   1    1    2 2
   2    1    6 1
   3    1   38 1
   4    2    3 1
   5    2   13 1
   6    3    4 am
   7    3   12 2
   8    4    5 1
   9    4    7 1
  10    5    6 2
  11    5   10 1
  12    6   39 1
  13    7    8 1
  14    7   40 1
  15    7   41 1
  16    8    9 1
  17    8   42 1
  18    8   43 1
  19    9   10 am
  20    9   11 1
  21   10   19 2
  22   11   31 1
  23   11   20 1
  24   11   44 1
  25   13   14 1
  26   13   15 1
  27   14   17 2
  28   14   45 1
  29   15   16 2
  30   15   46 1
  31   16   17 1
  32   17   18 1
  33   18   47 1
  34   18   48 1
  35   18   49 1
  36   20   21 1
  37   20   24 1
  38   20   50 1
  39   21   22 1
  40   21   51 1
  41   21   52 1
  42   22   23 1
  43   22   53 1
  44   22   54 1
  45   23   24 1
  46   23   25 1
  47   23   55 1
  48   25   26 ar
  49   25   27 ar
  50   26   32 1
  51   26   30 ar
  52   27   28 ar
  53   27   56 1
  54   28   29 ar
  55   28   57 1
  56   29   30 ar
  57   29   34 1
  58   30   33 1
  59   31   58 1
  60   31   59 1
  61   31   60 1
  62   34   35 1
  63   34   36 1
  64   34   37 1

#	End of record

