#	Name: ASD01811773
#	Creating user name:	WinNT
#	Creation time:	15. 06. 2019 19:27

#	Modifying user name:	WinNT
#	Modification time:	15. 06. 2019 19:27

#	Program:	/corina/corina34_cracker 3.40 0067  02.08.2006

@<TRIPOS>MOLECULE
ASD01811773
  59   63    0    0    0
SMALL
NO_CHARGES


@<TRIPOS>ATOM
   1 C1            -0.0167     1.3805     0.0096 C.ar    
   2 C2             0.0021    -0.0041     0.0020 C.ar    
   3 C3             1.2075    -0.6836    -0.0127 C.ar    
   4 C4             2.3988     0.0118    -0.0203 C.ar    
   5 C5             2.3881     1.4079    -0.0132 C.ar    
   6 C6             1.1658     2.0836     0.0021 C.ar    
   7 C7            -1.2939    -0.7731     0.0103 C.3     
   8 C8             1.2188    -2.1905    -0.0199 C.3     
   9 C9             1.0853    -2.6871    -1.4364 C.ar    
  10 C10            2.2179    -2.9046    -2.2000 C.ar    
  11 C11            2.1015    -3.3598    -3.4977 C.ar    
  12 C12            0.8399    -3.6002    -4.0385 C.ar    
  13 C13           -0.2978    -3.3793    -3.2647 C.ar    
  14 C14           -0.1693    -2.9291    -1.9663 C.ar    
  15 C15            0.7084    -4.0891    -5.4331 C.ar    
  16 C16            1.8382    -4.3157    -6.2238 C.ar    
  17 C17            1.6708    -4.7710    -7.5157 C.ar    
  18 N18            0.4658    -4.9913    -8.0051 N.ar    
  19 C19           -0.6260    -4.7901    -7.2922 C.ar    
  20 C20           -0.5487    -4.3412    -5.9900 C.ar    
  21 C21           -1.9754    -5.0593    -7.9069 C.3     
  22 C22            3.4708     2.4102    -0.0183 C.2     
  23 N23            2.9565     3.6521    -0.0072 N.am    
  24 C24            1.4923     3.5561     0.0064 C.3     
  25 O25            4.6581     2.1501    -0.0300 O.2     
  26 C26            3.7301     4.8962    -0.0086 C.3     
  27 C27            3.9849     5.3366    -1.4515 C.3     
  28 O28            2.7472     5.6988    -2.0748 O.3     
  29 C29            2.7745     7.0847    -2.4514 C.3     
  30 C30            4.2764     7.4316    -2.6087 C.3     
  31 C31            4.8964     6.5826    -1.4655 C.3     
  32 H32           -0.9590     1.9081     0.0170 H       
  33 H33            3.3374    -0.5224    -0.0314 H       
  34 H34           -1.6162    -0.9530    -1.0154 H       
  35 H35           -1.1473    -1.7267     0.5176 H       
  36 H36           -2.0556    -0.1960     0.5345 H       
  37 H37            2.1570    -2.5488     0.4038 H       
  38 H38            0.3854    -2.5629     0.5758 H       
  39 H39            3.1952    -2.7176    -1.7800 H       
  40 H40            2.9865    -3.5290    -4.0931 H       
  41 H41           -1.2780    -3.5641    -3.6788 H       
  42 H42           -1.0504    -2.7575    -1.3657 H       
  43 H43            2.8277    -4.1368    -5.8297 H       
  44 H44            2.5379    -4.9491    -8.1344 H       
  45 H45           -1.4466    -4.1786    -5.4122 H       
  46 H46           -2.2602    -6.0945    -7.7191 H       
  47 H47           -2.7157    -4.3928    -7.4644 H       
  48 H48           -1.9262    -4.8852    -8.9818 H       
  49 H49            1.0774     4.0343    -0.8809 H       
  50 H50            1.0945     4.0255     0.9061 H       
  51 H51            3.1714     5.6720     0.5149 H       
  52 H52            4.6829     4.7321     0.4949 H       
  53 H53            4.4558     4.5261    -2.0077 H       
  54 H54            2.2516     7.2302    -3.3967 H       
  55 H55            2.3243     7.6979    -1.6708 H       
  56 H56            4.6530     7.1153    -3.5814 H       
  57 H57            4.4529     8.4952    -2.4481 H       
  58 H58            4.8424     7.1134    -0.5150 H       
  59 H59            5.9249     6.3083    -1.7000 H       
@<TRIPOS>BOND
   1    1    2 ar
   2    1    6 ar
   3    1   32 1
   4    2    3 ar
   5    2    7 1
   6    3    4 ar
   7    3    8 1
   8    4    5 ar
   9    4   33 1
  10    5    6 ar
  11    5   22 1
  12    6   24 1
  13    7   34 1
  14    7   35 1
  15    7   36 1
  16    8    9 1
  17    8   37 1
  18    8   38 1
  19    9   10 ar
  20    9   14 ar
  21   10   11 ar
  22   10   39 1
  23   11   12 ar
  24   11   40 1
  25   12   13 ar
  26   12   15 1
  27   13   14 ar
  28   13   41 1
  29   14   42 1
  30   15   16 ar
  31   15   20 ar
  32   16   17 ar
  33   16   43 1
  34   17   18 ar
  35   17   44 1
  36   18   19 ar
  37   19   20 ar
  38   19   21 1
  39   20   45 1
  40   21   46 1
  41   21   47 1
  42   21   48 1
  43   22   23 am
  44   22   25 2
  45   23   24 1
  46   23   26 1
  47   24   49 1
  48   24   50 1
  49   26   27 1
  50   26   51 1
  51   26   52 1
  52   27   28 1
  53   27   31 1
  54   27   53 1
  55   28   29 1
  56   29   30 1
  57   29   54 1
  58   29   55 1
  59   30   31 1
  60   30   56 1
  61   30   57 1
  62   31   58 1
  63   31   59 1

#	End of record

