#	Name: ASD00740014
#	Creating user name:	WinNT
#	Creation time:	15. 06. 2019 18:37

#	Modifying user name:	WinNT
#	Modification time:	15. 06. 2019 18:37

#	Program:	/corina/corina34_cracker 3.40 0067  02.08.2006

@<TRIPOS>MOLECULE
ASD00740014
  38   40    0    0    0
SMALL
NO_CHARGES


@<TRIPOS>ATOM
   1 C1             0.4804     1.3671     0.6060 C.ar    
   2 C2             0.3087    -0.0164     0.5050 C.ar    
   3 C3            -0.8841    -0.5481     0.1184 C.ar    
   4 C4            -1.9595     0.2984    -0.1836 C.ar    
   5 C5            -1.7924     1.7014    -0.0828 C.ar    
   6 C6            -0.5611     2.2268     0.3210 C.ar    
   7 N7            -3.1520    -0.1817    -0.5688 N.ar    
   8 C8            -4.1403     0.6349    -0.8454 C.ar    
   9 N9            -4.0311     1.9518    -0.7654 N.ar    
  10 C10           -2.8974     2.5313    -0.3949 C.ar    
  11 N11           -2.7967     3.9054    -0.3155 N.pl3   
  12 C12           -3.9284     4.7017    -0.5127 C.ar    
  13 N13            1.7178     1.8851     1.0054 N.am    
  14 C14            2.1711     3.0359     0.4699 C.2     
  15 C15            3.5491     3.5373     0.8175 C.3     
  16 C16            3.8141     4.8521     0.0813 C.3     
  17 O17            1.4700     3.6680    -0.2917 O.2     
  18 C18           -5.1777     4.2470    -0.1112 C.ar    
  19 C19           -6.2946     5.0370    -0.3077 C.ar    
  20 C20           -6.1687     6.2790    -0.9042 C.ar    
  21 C21           -4.9257     6.7340    -1.3050 C.ar    
  22 C22           -3.8051     5.9521    -1.1057 C.ar    
  23 Br23          -7.9965     4.4195     0.2384 Br      
  24 H24            1.1341    -0.6733     0.7365 H       
  25 H25           -1.0009    -1.6192     0.0444 H       
  26 H26           -0.4238     3.2950     0.4008 H       
  27 H27           -5.0861     0.2138    -1.1528 H       
  28 H28           -1.9405     4.3186    -0.1229 H       
  29 H29            2.2491     1.4159     1.6675 H       
  30 H30            3.6148     3.7033     1.8928 H       
  31 H31            4.2913     2.7972     0.5181 H       
  32 H32            4.8108     5.2147     0.3327 H       
  33 H33            3.7484     4.6860    -0.9940 H       
  34 H34            3.0720     5.5921     0.3807 H       
  35 H35           -5.2763     3.2772     0.3538 H       
  36 H36           -7.0429     6.8943    -1.0575 H       
  37 H37           -4.8307     7.7040    -1.7703 H       
  38 H38           -2.8348     6.3085    -1.4187 H       
@<TRIPOS>BOND
   1    1    2 ar
   2    1   13 1
   3    1    6 ar
   4    2    3 ar
   5    2   24 1
   6    3    4 ar
   7    3   25 1
   8    4    5 ar
   9    4    7 ar
  10    5    6 ar
  11    5   10 ar
  12    6   26 1
  13    7    8 ar
  14    8    9 ar
  15    8   27 1
  16    9   10 ar
  17   10   11 1
  18   11   12 1
  19   11   28 1
  20   12   18 ar
  21   12   22 ar
  22   13   14 am
  23   13   29 1
  24   14   15 1
  25   14   17 2
  26   15   16 1
  27   15   30 1
  28   15   31 1
  29   16   32 1
  30   16   33 1
  31   16   34 1
  32   18   19 ar
  33   18   35 1
  34   19   20 ar
  35   19   23 1
  36   20   21 ar
  37   20   36 1
  38   21   22 ar
  39   21   37 1
  40   22   38 1

#	End of record

