#	Name: ASD03540459
#	Creating user name:	WinNT
#	Creation time:	15. 06. 2019 20:43

#	Modifying user name:	WinNT
#	Modification time:	15. 06. 2019 20:43

#	Program:	/corina/corina34_cracker 3.40 0067  02.08.2006

@<TRIPOS>MOLECULE
ASD03540459
  62   65    0    0    0
SMALL
NO_CHARGES


@<TRIPOS>ATOM
   1 N1            -0.5978     1.1198     0.0903 N.am    
   2 C2            -0.3455    -0.2000     0.0739 C.2     
   3 N3             0.8953    -0.7035    -0.0168 N.am    
   4 C4             1.9746     0.1047    -0.0977 C.2     
   5 C5             1.7565     1.5630    -0.0845 C.ar    
   6 C6             2.8146     2.4596    -0.1635 C.ar    
   7 C7             2.5505     3.8285    -0.1464 C.ar    
   8 C8             1.2311     4.2878    -0.0503 C.ar    
   9 C9             0.1907     3.4056     0.0279 C.ar    
  10 C10            0.4346     2.0381     0.0122 C.ar    
  11 C11            3.6635     4.7952    -0.2290 C.2     
  12 O12            4.8093     4.3973    -0.3120 O.2     
  13 N13            3.4092     6.1187    -0.2125 N.am    
  14 C14            4.5135     7.0778    -0.2946 C.3     
  15 C15            3.9643     8.4807    -0.2566 C.ar    
  16 C16            3.8000     9.1249     0.9557 C.ar    
  17 C17            3.2967    10.4109     0.9931 C.ar    
  18 C18            2.9561    11.0559    -0.1870 C.ar    
  19 C19            3.1219    10.4072    -1.4021 C.ar    
  20 C20            3.6309     9.1234    -1.4345 C.ar    
  21 O21            2.4604    12.3208    -0.1528 O.3     
  22 C22            2.1313    12.9228    -1.4063 C.3     
  23 O23            3.0961    -0.3579    -0.1788 O.2     
  24 O24           -1.2822    -0.9717     0.1446 O.2     
  25 C25           -1.9815     1.5917     0.1859 C.3     
  26 C26            1.0826    -2.1564    -0.0278 C.3     
  27 C27            1.0422    -2.6574    -1.4485 C.ar    
  28 C28            2.2090    -2.7333    -2.1867 C.ar    
  29 C29            2.1753    -3.1920    -3.4890 C.ar    
  30 C30            0.9680    -3.5777    -4.0568 C.ar    
  31 C31           -0.2019    -3.5007    -3.3125 C.ar    
  32 C32           -0.1608    -3.0457    -2.0091 C.ar    
  33 N33            0.9304    -4.0425    -5.3760 N.am    
  34 C34            1.9503    -4.7783    -5.8606 C.2     
  35 O35            2.9381    -4.9665    -5.1825 O.2     
  36 C36            1.8634    -5.3671    -7.2451 C.3     
  37 H37            3.8304     2.1003    -0.2371 H       
  38 H38            1.0340     5.3496    -0.0376 H       
  39 H39           -0.8225     3.7719     0.1023 H       
  40 H40            2.4950     6.4361    -0.1463 H       
  41 H41            5.1877     6.9287     0.5488 H       
  42 H42            5.0582     6.9259    -1.2264 H       
  43 H43            4.0649     8.6223     1.8741 H       
  44 H44            3.1682    10.9136     1.9403 H       
  45 H45            2.8575    10.9072    -2.3221 H       
  46 H46            3.7646     8.6197    -2.3805 H       
  47 H47            1.7475    13.9288    -1.2366 H       
  48 H48            3.0238    12.9748    -2.0298 H       
  49 H49            1.3715    12.3240    -1.9086 H       
  50 H50           -2.6548     0.7358     0.2333 H       
  51 H51           -2.0980     2.1958     1.0856 H       
  52 H52           -2.2211     2.1944    -0.6901 H       
  53 H53            2.0472    -2.4018     0.4167 H       
  54 H54            0.2867    -2.6297     0.5472 H       
  55 H55            3.1475    -2.4332    -1.7447 H       
  56 H56            3.0868    -3.2504    -4.0654 H       
  57 H57           -1.1424    -3.7999    -3.7512 H       
  58 H58           -1.0696    -2.9894    -1.4285 H       
  59 H59            0.1703    -3.8351    -5.9418 H       
  60 H60            2.2709    -4.6595    -7.9671 H       
  61 H61            2.4355    -6.2941    -7.2822 H       
  62 H62            0.8209    -5.5736    -7.4873 H       
@<TRIPOS>BOND
   1    1    2 am
   2    1   10 1
   3    1   25 1
   4    2    3 am
   5    2   24 2
   6    3    4 am
   7    3   26 1
   8    4    5 1
   9    4   23 2
  10    5    6 ar
  11    5   10 ar
  12    6    7 ar
  13    6   37 1
  14    7    8 ar
  15    7   11 1
  16    8    9 ar
  17    8   38 1
  18    9   10 ar
  19    9   39 1
  20   11   12 2
  21   11   13 am
  22   13   14 1
  23   13   40 1
  24   14   15 1
  25   14   41 1
  26   14   42 1
  27   15   16 ar
  28   15   20 ar
  29   16   17 ar
  30   16   43 1
  31   17   18 ar
  32   17   44 1
  33   18   19 ar
  34   18   21 1
  35   19   20 ar
  36   19   45 1
  37   20   46 1
  38   21   22 1
  39   22   47 1
  40   22   48 1
  41   22   49 1
  42   25   50 1
  43   25   51 1
  44   25   52 1
  45   26   27 1
  46   26   53 1
  47   26   54 1
  48   27   28 ar
  49   27   32 ar
  50   28   29 ar
  51   28   55 1
  52   29   30 ar
  53   29   56 1
  54   30   31 ar
  55   30   33 1
  56   31   32 ar
  57   31   57 1
  58   32   58 1
  59   33   34 am
  60   33   59 1
  61   34   35 2
  62   34   36 1
  63   36   60 1
  64   36   61 1
  65   36   62 1

#	End of record

