#	Name: ASD01885032
#	Creating user name:	WinNT
#	Creation time:	15. 06. 2019 19:49

#	Modifying user name:	WinNT
#	Modification time:	15. 06. 2019 19:49

#	Program:	/corina/corina34_cracker 3.40 0067  02.08.2006

@<TRIPOS>MOLECULE
ASD01885032
  56   58    0    0    0
SMALL
NO_CHARGES


@<TRIPOS>ATOM
   1 C1             0.0825     1.2888    -0.1106 C.3     
   2 C2             0.2848    -0.2240    -0.2181 C.3     
   3 C3            -1.0776    -0.9190    -0.2603 C.3     
   4 O4             1.0213    -0.6878     0.9153 O.3     
   5 N5             1.3810     1.9622    -0.1925 N.pl3   
   6 N6             2.0568     2.3059    -1.3700 N.2     
   7 C7             3.1874     2.8946    -1.0415 C.2     
   8 C8             3.2647     2.9430     0.3631 C.2     
   9 C9             2.1380     2.3679     0.8610 C.2     
  10 C10            4.9900     3.8108    -4.2137 C.ar    
  11 C11            4.0195     3.3122    -3.3691 C.ar    
  12 C12            4.2042     3.4162    -1.9878 C.ar    
  13 C13            5.3729     4.0254    -1.5218 C.ar    
  14 C14            6.2920     4.4970    -2.4360 C.ar    
  15 N15            6.0792     4.3789    -3.7328 N.ar    
  16 C16            4.8061     3.6995    -5.7053 C.3     
  17 N17            1.8185     2.2182     2.2082 N.pl3   
  18 C18            0.6757     2.9389     2.7745 C.3     
  19 C19            2.5878     1.3806     3.0196 C.ar    
  20 C20            2.3353     1.3100     4.3832 C.ar    
  21 C21            3.1003     0.4777     5.1845 C.ar    
  22 C22            4.1166    -0.2831     4.6230 C.ar    
  23 C23            4.3670    -0.2114     3.2659 C.ar    
  24 C24            3.6030     0.6127     2.4624 C.ar    
  25 C25            4.9484    -1.1882     5.4947 C.3     
  26 F26            5.9008    -1.8461     4.7091 F       
  27 F27            5.5966    -0.4267     6.4731 F       
  28 F28            4.1200    -2.1321     6.1113 F       
  29 O29            2.8560     0.4066     6.5195 O.3     
  30 C30            1.7954     1.2174     7.0290 C.3     
  31 C31            1.6714     1.0051     8.5391 C.3     
  32 H32           -0.5553     1.6289    -0.9264 H       
  33 H33           -0.3900     1.5253     0.8428 H       
  34 H34            0.8378    -0.4527    -1.1291 H       
  35 H35           -1.6729    -0.5026    -1.0729 H       
  36 H36           -0.9356    -1.9872    -0.4243 H       
  37 H37           -1.5949    -0.7623     0.6863 H       
  38 H38            0.5540    -0.5873     1.7559 H       
  39 H39            4.0727     3.3657     0.9418 H       
  40 H40            3.1300     2.8486    -3.7696 H       
  41 H41            5.5534     4.1257    -0.4618 H       
  42 H42            7.1977     4.9695    -2.0856 H       
  43 H43            4.2857     4.5834    -6.0742 H       
  44 H44            5.7810     3.6244    -6.1870 H       
  45 H45            4.2186     2.8103    -5.9336 H       
  46 H46           -0.2219     2.3275     2.6815 H       
  47 H47            0.8644     3.1495     3.8272 H       
  48 H48            0.5342     3.8761     2.2361 H       
  49 H49            1.5444     1.9029     4.8184 H       
  50 H50            5.1588    -0.8039     2.8319 H       
  51 H51            3.7978     0.6636     1.4013 H       
  52 H52            2.0104     2.2666     6.8261 H       
  53 H53            0.8597     0.9381     6.5448 H       
  54 H54            1.4564    -0.0441     8.7421 H       
  55 H55            2.6071     1.2844     9.0233 H       
  56 H56            0.8624     1.6236     8.9278 H       
@<TRIPOS>BOND
   1    1    2 1
   2    1    5 1
   3    1   32 1
   4    1   33 1
   5    2    3 1
   6    2    4 1
   7    2   34 1
   8    3   35 1
   9    3   36 1
  10    3   37 1
  11    4   38 1
  12    5    6 1
  13    5    9 1
  14    6    7 2
  15    7    8 1
  16    7   12 1
  17    8    9 2
  18    8   39 1
  19    9   17 1
  20   10   11 ar
  21   10   15 ar
  22   10   16 1
  23   11   12 ar
  24   11   40 1
  25   12   13 ar
  26   13   14 ar
  27   13   41 1
  28   14   15 ar
  29   14   42 1
  30   16   43 1
  31   16   44 1
  32   16   45 1
  33   17   18 1
  34   17   19 1
  35   18   46 1
  36   18   47 1
  37   18   48 1
  38   19   20 ar
  39   19   24 ar
  40   20   21 ar
  41   20   49 1
  42   21   22 ar
  43   21   29 1
  44   22   23 ar
  45   22   25 1
  46   23   24 ar
  47   23   50 1
  48   24   51 1
  49   25   26 1
  50   25   27 1
  51   25   28 1
  52   29   30 1
  53   30   31 1
  54   30   52 1
  55   30   53 1
  56   31   54 1
  57   31   55 1
  58   31   56 1

#	End of record

