#	Name: ASD00843343
#	Creating user name:	WinNT
#	Creation time:	15. 06. 2019 18:46

#	Modifying user name:	WinNT
#	Modification time:	15. 06. 2019 18:46

#	Program:	/corina/corina34_cracker 3.40 0067  02.08.2006

@<TRIPOS>MOLECULE
ASD00843343
  84   89    0    0    0
SMALL
NO_CHARGES


@<TRIPOS>ATOM
   1 N1             0.9700     1.1323    -0.0417 N.ar    
   2 C2             1.1559    -0.1278    -0.3974 C.ar    
   3 C3             1.0458    -1.1505     0.5364 C.ar    
   4 C4             0.7384    -0.8343     1.8480 C.ar    
   5 C5             0.5509     0.5004     2.1808 C.ar    
   6 C6             0.6758     1.4648     1.2010 C.ar    
   7 C7             1.2580    -2.5850     0.1263 C.3     
   8 C8             0.9418    -3.5178     1.2759 C.2     
   9 C9             0.3985    -2.9256    -1.0927 C.3     
  10 C10           -1.0430    -2.5995    -0.7980 C.2     
  11 N11           -2.0026    -2.9229    -1.6874 N.am    
  12 O12           -1.3396    -2.0459     0.2396 O.2     
  13 C13           -3.3958    -2.5109    -1.4685 C.3     
  14 C14           -4.2948    -3.7485    -1.5517 C.3     
  15 C15           -4.0522    -4.4616    -2.8839 C.3     
  16 C16           -2.5936    -4.9182    -2.9618 C.3     
  17 C17           -1.6743    -3.6890    -2.8973 C.3     
  18 N18           -4.9367    -5.6304    -2.9815 N.3     
  19 C19           -4.8172    -6.2729    -4.2977 C.3     
  20 C20           -5.6919    -7.5284    -4.3310 C.3     
  21 N21           -7.0867    -7.1579    -4.0537 N.3     
  22 C22           -7.2063    -6.5154    -2.7375 C.3     
  23 C23           -6.3315    -5.2600    -2.7042 C.3     
  24 C24           -7.9712    -8.3267    -4.1513 C.3     
  25 O25           -0.1301    -3.6403     1.8299 O.2     
  26 N26            2.0707    -4.1852     1.5669 N.am    
  27 C27            2.7193    -2.8429    -0.1632 C.ar    
  28 C28            3.1314    -3.8155     0.7446 C.ar    
  29 C29            3.5924    -2.3180    -1.0820 C.ar    
  30 C30            4.9193    -2.7618    -1.1138 C.ar    
  31 C31            5.3407    -3.7393    -0.2043 C.ar    
  32 C32            4.4533    -4.2598     0.7133 C.ar    
  33 F33            6.6195    -4.1743    -0.2268 F       
  34 C34            1.7955    -6.8802     2.0521 C.ar    
  35 C35            2.7962    -7.6591     1.5018 C.ar    
  36 C36            0.4879    -7.3288     2.0455 C.ar    
  37 C37            0.1811    -8.5562     1.4887 C.ar    
  38 C38            1.1818    -9.3349     0.9380 C.ar    
  39 C39            2.4893    -8.8863     0.9445 C.ar    
  40 H40            0.9420   -10.2939     0.5029 H       
  41 H41            3.8177    -7.3086     1.5069 H       
  42 C42            5.8385    -2.2207    -2.0692 C.1     
  43 N43            6.5678    -1.7915    -2.8271 N.1     
  44 O44            1.4565    -0.4247    -1.6867 O.3     
  45 C45            1.5156     0.6669    -2.6070 C.3     
  46 C46            1.9589     0.1542    -3.9787 C.3     
  47 F47            3.1842    -0.5095    -3.8547 F       
  48 F48            0.9977    -0.7309    -4.4786 F       
  49 S49            2.1876    -5.3189     2.7684 S.o2    
  50 O50            3.5599    -5.3777     3.1324 O.2     
  51 O51            1.1495    -5.0303     3.6948 O.2     
  52 H52            0.6460    -1.6082     2.5956 H       
  53 H53            0.3095     0.7812     3.1954 H       
  54 H54            0.5313     2.5046     1.4548 H       
  55 H55            0.7353    -2.3418    -1.9493 H       
  56 H56            0.4919    -3.9880    -1.3178 H       
  57 H57           -3.4915    -2.0553    -0.4829 H       
  58 H58           -3.6895    -1.7937    -2.2349 H       
  59 H59           -4.0606    -4.4243    -0.7293 H       
  60 H60           -5.3395    -3.4442    -1.4869 H       
  61 H61           -4.2630    -3.7774    -3.7057 H       
  62 H62           -2.3753    -5.5830    -2.1261 H       
  63 H63           -2.4274    -5.4465    -3.9006 H       
  64 H64           -1.8289    -3.0703    -3.7813 H       
  65 H65           -0.6343    -4.0125    -2.8526 H       
  66 H66           -5.1462    -5.5798    -5.0719 H       
  67 H67           -3.7777    -6.5492    -4.4745 H       
  68 H68           -5.6273    -7.9906    -5.3160 H       
  69 H69           -5.3456    -8.2330    -3.5749 H       
  70 H70           -8.2458    -6.2392    -2.5607 H       
  71 H71           -6.8772    -7.2085    -1.9633 H       
  72 H72           -6.3961    -4.7977    -1.7192 H       
  73 H73           -6.6778    -4.5553    -3.4603 H       
  74 H74           -7.6592    -9.0799    -3.4278 H       
  75 H75           -8.9973    -8.0244    -3.9416 H       
  76 H76           -7.9135    -8.7431    -5.1570 H       
  77 H77            3.2566    -1.5647    -1.7791 H       
  78 H78            4.7837    -5.0137     1.4124 H       
  79 H79           -0.2939    -6.7204     2.4757 H       
  80 H80           -0.8403    -8.9070     1.4842 H       
  81 H81            3.2711    -9.4949     0.5146 H       
  82 H82            0.5300     1.1247    -2.6914 H       
  83 H83            2.2304     1.4070    -2.2473 H       
  84 H84            2.0689     0.9955    -4.6629 H       
@<TRIPOS>BOND
   1    1    2 ar
   2    1    6 ar
   3    2    3 ar
   4    2   44 1
   5    3    4 ar
   6    3    7 1
   7    4    5 ar
   8    4   52 1
   9    5    6 ar
  10    5   53 1
  11    6   54 1
  12    7    8 1
  13    7    9 1
  14    7   27 1
  15    8   25 2
  16    8   26 am
  17    9   10 1
  18    9   55 1
  19    9   56 1
  20   10   11 am
  21   10   12 2
  22   11   13 1
  23   11   17 1
  24   13   14 1
  25   13   57 1
  26   13   58 1
  27   14   15 1
  28   14   59 1
  29   14   60 1
  30   15   16 1
  31   15   18 1
  32   15   61 1
  33   16   17 1
  34   16   62 1
  35   16   63 1
  36   17   64 1
  37   17   65 1
  38   18   19 1
  39   18   23 1
  40   19   20 1
  41   19   66 1
  42   19   67 1
  43   20   21 1
  44   20   68 1
  45   20   69 1
  46   21   22 1
  47   21   24 1
  48   22   23 1
  49   22   70 1
  50   22   71 1
  51   23   72 1
  52   23   73 1
  53   24   74 1
  54   24   75 1
  55   24   76 1
  56   26   49 am
  57   26   28 1
  58   27   28 ar
  59   27   29 ar
  60   28   32 ar
  61   29   30 ar
  62   29   77 1
  63   30   31 ar
  64   30   42 1
  65   31   32 ar
  66   31   33 1
  67   32   78 1
  68   34   35 ar
  69   34   36 ar
  70   34   49 1
  71   35   41 1
  72   35   39 ar
  73   36   37 ar
  74   36   79 1
  75   37   38 ar
  76   37   80 1
  77   38   39 ar
  78   38   40 1
  79   39   81 1
  80   42   43 3
  81   44   45 1
  82   45   46 1
  83   45   82 1
  84   45   83 1
  85   46   47 1
  86   46   48 1
  87   46   84 1
  88   49   50 2
  89   49   51 2

#	End of record

