#	Name: ASD01209107
#	Creating user name:	WinNT
#	Creation time:	15. 06. 2019 19:10

#	Modifying user name:	WinNT
#	Modification time:	15. 06. 2019 19:10

#	Program:	/corina/corina34_cracker 3.40 0067  02.08.2006

@<TRIPOS>MOLECULE
ASD01209107
  72   75    0    0    0
SMALL
NO_CHARGES


@<TRIPOS>ATOM
   1 C1             3.2834     2.1576     1.0582 C.3     
   2 C2             0.7821     6.7309     0.2017 C.ar    
   3 S3             2.6442     2.6733    -0.5593 S.o2    
   4 O4             3.7138     2.9412    -1.4557 O.2     
   5 O5             1.5507     1.8533    -0.9478 O.2     
   6 N6             0.2067     7.9847     0.4366 N.am    
   7 C7            -0.2009     8.3172     1.6775 C.2     
   8 N8            -0.6602     9.5598     1.9255 N.am    
   9 O9            -0.1543     7.4963     2.5731 O.2     
  10 C10            0.0474     8.9357    -0.6662 C.3     
  11 C11           -1.3665     8.8199    -1.2393 C.3     
  12 C12           -1.5903     9.8995    -2.3127 C.3     
  13 C13           -1.8942     9.1554    -3.6295 C.3     
  14 C14           -2.4279     7.7754    -3.1715 C.3     
  15 C15           -1.5422     7.4575    -1.9412 C.3     
  16 C16            2.1191     6.6360    -0.1616 C.ar    
  17 C17            2.6840     5.3970    -0.3928 C.ar    
  18 C18            1.9199     4.2519    -0.2629 C.ar    
  19 C19            0.5883     4.3431     0.0988 C.ar    
  20 C20            0.0189     5.5787     0.3369 C.ar    
  21 C21           -0.9856     9.9355     3.2277 C.ar    
  22 N22           -0.7350     9.1147     4.2386 N.ar    
  23 P23           -0.5660    11.9777     7.8718 P.3     
  24 O24            0.6391    11.1226     7.7875 O.2     
  25 C25           -1.0446     9.4745     5.4727 C.ar    
  26 C26           -1.6292    10.7041     5.7100 C.ar    
  27 N27           -1.8813    11.5255     4.7046 N.ar    
  28 C28           -1.5695    11.1759     3.4710 C.ar    
  29 C29           -1.9809    11.1098     7.1181 C.3     
  30 C30            4.0869     0.8570     1.1184 C.3     
  31 C31            4.7984     2.2034     1.2664 C.3     
  32 O32           -0.8918    12.2951     9.4162 O.3     
  33 C33            0.0605    12.8765    10.3090 C.3     
  34 C34           -0.5720    13.0420    11.6922 C.3     
  35 O35           -0.3013    13.3570     7.0847 O.3     
  36 C36            0.8051    14.2155     7.3690 C.3     
  37 C37            0.7574    15.4326     6.4432 C.3     
  38 H38            2.6502     2.3980     1.9123 H       
  39 H39           -0.7642    10.1927     1.1978 H       
  40 H40            0.2084     9.9490    -0.2983 H       
  41 H41            0.7751     8.7126    -1.4465 H       
  42 H42           -2.1021     8.9277    -0.4423 H       
  43 H43           -2.4350    10.5307    -2.0370 H       
  44 H44           -0.6916    10.5059    -2.4254 H       
  45 H45           -2.6540     9.6876    -4.2017 H       
  46 H46           -0.9850     9.0363    -4.2189 H       
  47 H47           -3.4774     7.8430    -2.8848 H       
  48 H48           -2.2870     7.0282    -3.9524 H       
  49 H49           -0.5763     7.0642    -2.2580 H       
  50 H50           -2.0452     6.7505    -1.2815 H       
  51 H51            2.7163     7.5300    -0.2637 H       
  52 H52            3.7237     5.3226    -0.6758 H       
  53 H53           -0.0060     3.4469     0.1991 H       
  54 H54           -1.0210     5.6492     0.6197 H       
  55 H55           -0.8407     8.8065     6.2964 H       
  56 H56           -1.7755    11.8470     2.6503 H       
  57 H57           -2.2162    10.2214     7.7042 H       
  58 H58           -2.8460    11.7727     7.1000 H       
  59 H59            3.9827     0.2419     2.0121 H       
  60 H60            4.2315     0.3112     0.1860 H       
  61 H61            5.4112     2.5433     0.4315 H       
  62 H62            5.1623     2.4740     2.2576 H       
  63 H63            0.9324    12.2267    10.3836 H       
  64 H64            0.3657    13.8518     9.9299 H       
  65 H65           -0.8772    12.0666    12.0713 H       
  66 H66            0.1544    13.4854    12.3733 H       
  67 H67           -1.4440    13.6918    11.6176 H       
  68 H68            0.7515    14.5457     8.4064 H       
  69 H69            1.7367    13.6729     7.2081 H       
  70 H70            1.6014    16.0874     6.6601 H       
  71 H71            0.8110    15.1024     5.4058 H       
  72 H72           -0.1742    15.9752     6.6041 H       
@<TRIPOS>BOND
   1    1   30 1
   2    1    3 1
   3    1   31 1
   4    1   38 1
   5    2    6 1
   6    2   16 ar
   7    2   20 ar
   8    3    4 2
   9    3    5 2
  10    3   18 1
  11    6    7 am
  12    6   10 1
  13    7    8 am
  14    7    9 2
  15    8   21 1
  16    8   39 1
  17   10   11 1
  18   10   40 1
  19   10   41 1
  20   11   12 1
  21   11   15 1
  22   11   42 1
  23   12   13 1
  24   12   43 1
  25   12   44 1
  26   13   14 1
  27   13   45 1
  28   13   46 1
  29   14   15 1
  30   14   47 1
  31   14   48 1
  32   15   49 1
  33   15   50 1
  34   16   17 ar
  35   16   51 1
  36   17   18 ar
  37   17   52 1
  38   18   19 ar
  39   19   20 ar
  40   19   53 1
  41   20   54 1
  42   21   22 ar
  43   21   28 ar
  44   22   25 ar
  45   23   24 2
  46   23   32 1
  47   23   35 1
  48   23   29 1
  49   25   26 ar
  50   25   55 1
  51   26   27 ar
  52   26   29 1
  53   27   28 ar
  54   28   56 1
  55   29   57 1
  56   29   58 1
  57   30   31 1
  58   30   59 1
  59   30   60 1
  60   31   61 1
  61   31   62 1
  62   32   33 1
  63   33   34 1
  64   33   63 1
  65   33   64 1
  66   34   65 1
  67   34   66 1
  68   34   67 1
  69   35   36 1
  70   36   37 1
  71   36   68 1
  72   36   69 1
  73   37   70 1
  74   37   71 1
  75   37   72 1

#	End of record

