#	Name: ASD02500178
#	Creating user name:	WinNT
#	Creation time:	15. 06. 2019 20:22

#	Modifying user name:	WinNT
#	Modification time:	15. 06. 2019 20:22

#	Program:	/corina/corina34_cracker 3.40 0067  02.08.2006

@<TRIPOS>MOLECULE
ASD02500178
  62   66    0    0    0
SMALL
NO_CHARGES


@<TRIPOS>ATOM
   1 N1            -3.0124     5.5589    -0.6453 N.ar    
   2 C2            -4.1078     6.1852    -1.0002 C.ar    
   3 C3            -5.2927     6.0566    -0.2784 C.ar    
   4 C4            -5.3322     5.2606     0.8307 C.ar    
   5 C5            -4.1540     4.5891     1.2086 C.ar    
   6 C6            -4.1179     3.7544     2.3369 C.ar    
   7 C7            -2.9585     3.1226     2.6697 C.ar    
   8 C8            -1.8063     3.2937     1.9055 C.ar    
   9 C9            -1.8057     4.0955     0.8056 C.ar    
  10 C10           -2.9832     4.7647     0.4297 C.ar    
  11 S11           -0.3341     4.2946    -0.1428 S.o2    
  12 O12           -0.1011     5.6935    -0.2330 O.2     
  13 O13            0.6144     3.3816     0.3918 O.2     
  14 N14           -0.6676     3.7760    -1.6798 N.am    
  15 C15           -0.9309     2.4317    -1.9181 C.ar    
  16 C16           -0.4974     1.8379    -3.1006 C.ar    
  17 C17           -0.7565     0.5078    -3.3394 C.ar    
  18 C18           -1.4558    -0.2475    -2.3932 C.ar    
  19 C19           -1.8897     0.3516    -1.2072 C.ar    
  20 C20           -1.6225     1.6810    -0.9717 C.ar    
  21 C21           -1.7356    -1.6736    -2.6463 C.2     
  22 O22           -2.1302    -2.0311    -3.7395 O.2     
  23 N23           -1.5540    -2.5803    -1.6658 N.am    
  24 C24           -1.6893    -4.0175    -1.9416 C.3     
  25 C25           -0.3977    -4.7231    -1.5104 C.3     
  26 N26           -0.0601    -4.2923    -0.1464 N.am    
  27 C27            0.0752    -2.8552     0.1294 C.3     
  28 C28           -1.2110    -2.1499    -0.3031 C.3     
  29 C29            0.6644    -4.7735     2.1454 C.ar    
  30 C30            0.6946    -5.6760     3.2062 C.ar    
  31 C31            1.2106    -5.2651     4.4250 C.ar    
  32 C32            1.6787    -3.9654     4.5406 C.ar    
  33 C33            1.6178    -3.1215     3.4433 C.ar    
  34 N34            1.1229    -3.5374     2.2979 N.ar    
  35 C35            0.1215    -5.1991     0.8340 C.2     
  36 O36           -0.1599    -6.3656     0.6426 O.2     
  37 C37            0.2559     2.6528    -4.1201 C.3     
  38 H38           -4.0915     6.8182    -1.8751 H       
  39 H39           -6.1790     6.5861    -0.5955 H       
  40 H40           -6.2419     5.1496     1.4022 H       
  41 H41           -5.0045     3.6145     2.9375 H       
  42 H42           -2.9316     2.4807     3.5378 H       
  43 H43           -0.8988     2.7822     2.1905 H       
  44 H44           -0.6792     4.4101    -2.4138 H       
  45 H45           -0.4203     0.0479    -4.2568 H       
  46 H46           -2.4301    -0.2292    -0.4744 H       
  47 H47           -1.9533     2.1433    -0.0534 H       
  48 H48           -2.5315    -4.4202    -1.3790 H       
  49 H49           -1.8517    -4.1716    -3.0084 H       
  50 H50           -0.5476    -5.8026    -1.5266 H       
  51 H51            0.4109    -4.4533    -2.1898 H       
  52 H52            0.2376    -2.7011     1.1961 H       
  53 H53            0.9174    -2.4524    -0.4333 H       
  54 H54           -1.0575    -1.0708    -0.2881 H       
  55 H55           -2.0183    -2.4166     0.3789 H       
  56 H56            0.3208    -6.6814     3.0806 H       
  57 H57            1.2469    -5.9420     5.2658 H       
  58 H58            2.0866    -3.6139     5.4768 H       
  59 H59            1.9816    -2.1083     3.5298 H       
  60 H60            1.3245     2.5957    -3.9133 H       
  61 H61            0.0573     2.2605    -5.1175 H       
  62 H62           -0.0694     3.6918    -4.0669 H       
@<TRIPOS>BOND
   1    1    2 ar
   2    1   10 ar
   3    2    3 ar
   4    2   38 1
   5    3    4 ar
   6    3   39 1
   7    4    5 ar
   8    4   40 1
   9    5    6 ar
  10    5   10 ar
  11    6    7 ar
  12    6   41 1
  13    7    8 ar
  14    7   42 1
  15    8    9 ar
  16    8   43 1
  17    9   10 ar
  18    9   11 1
  19   11   12 2
  20   11   13 2
  21   11   14 am
  22   14   15 1
  23   14   44 1
  24   15   16 ar
  25   15   20 ar
  26   16   17 ar
  27   16   37 1
  28   17   18 ar
  29   17   45 1
  30   18   19 ar
  31   18   21 1
  32   19   20 ar
  33   19   46 1
  34   20   47 1
  35   21   22 2
  36   21   23 am
  37   23   24 1
  38   23   28 1
  39   24   25 1
  40   24   48 1
  41   24   49 1
  42   25   26 1
  43   25   50 1
  44   25   51 1
  45   26   27 1
  46   26   35 am
  47   27   28 1
  48   27   52 1
  49   27   53 1
  50   28   54 1
  51   28   55 1
  52   29   30 ar
  53   29   34 ar
  54   29   35 1
  55   30   31 ar
  56   30   56 1
  57   31   32 ar
  58   31   57 1
  59   32   33 ar
  60   32   58 1
  61   33   34 ar
  62   33   59 1
  63   35   36 2
  64   37   60 1
  65   37   61 1
  66   37   62 1

#	End of record

