#	Name: ASD09740613
#	Creating user name:	WinNT
#	Creation time:	15. 06. 2019 21:23

#	Modifying user name:	WinNT
#	Modification time:	15. 06. 2019 21:23

#	Program:	/corina/corina34_cracker 3.40 0067  02.08.2006

@<TRIPOS>MOLECULE
ASD09740613
  58   61    0    0    0
SMALL
NO_CHARGES


@<TRIPOS>ATOM
   1 N1             0.5796     2.0434     1.4374 N.2     
   2 C2             0.4312     0.7441     1.5098 C.2     
   3 C3             1.7667     2.5221     1.6848 C.2     
   4 S4             2.8613     1.1942     2.0606 S.3     
   5 C5             1.5416     0.0475     1.8367 C.2     
   6 C6             2.1358     3.9525     1.6541 C.ar    
   7 C7             1.1765     4.9127     1.3415 C.ar    
   8 C8             3.4465     4.3427     1.9445 C.ar    
   9 C9             3.7962     5.6755     1.9178 C.ar    
  10 C10            2.8500     6.6402     1.6030 C.ar    
  11 C11            1.5303     6.2607     1.3145 C.ar    
  12 O12            3.1995     7.9508     1.5790 O.3     
  13 C13            4.5827     8.2569     1.7665 C.3     
  14 C14            4.9014     9.6008     1.1083 C.3     
  15 C15            4.8891     8.3367     3.2634 C.3     
  16 C16            0.5517     7.2541     0.9889 C.1     
  17 N17           -0.2246     8.0422     0.7305 N.1     
  18 C18            1.6337    -1.4204     1.9814 C.ar    
  19 C19            2.6490    -2.1257     1.3288 C.ar    
  20 C20            2.7294    -3.4960     1.4679 C.ar    
  21 C21            1.8049    -4.1670     2.2532 C.ar    
  22 C22            0.7986    -3.4741     2.9004 C.ar    
  23 C23            0.7109    -2.1034     2.7741 C.ar    
  24 C24            3.7623    -1.6348     0.4286 C.3     
  25 C25            4.7856    -2.7896     0.3862 C.3     
  26 C26            3.9031    -4.0236     0.6702 C.3     
  27 N27            4.6499    -5.0142     1.4569 N.3     
  28 C28            5.4386    -5.8937     0.5836 C.3     
  29 C29            6.6399    -6.4383     1.3590 C.3     
  30 O30            6.1807    -7.2748     2.4228 O.3     
  31 C31            4.5663    -7.0583     0.1108 C.3     
  32 H32           -0.5164     0.2616     1.3210 H       
  33 H33            0.1624     4.6140     1.1205 H       
  34 H34            4.1878     3.5968     2.1910 H       
  35 H35            4.8105     5.9702     2.1431 H       
  36 H36            5.1924     7.4761     1.3119 H       
  37 H37            4.2917    10.3817     1.5629 H       
  38 H38            5.9565     9.8343     1.2513 H       
  39 H39            4.6831     9.5440     0.0419 H       
  40 H40            4.6620     7.3792     3.7322 H       
  41 H41            5.9441     8.5701     3.4063 H       
  42 H42            4.2793     9.1175     3.7179 H       
  43 H43            1.8709    -5.2397     2.3600 H       
  44 H44            0.0831    -4.0063     3.5096 H       
  45 H45           -0.0748    -1.5618     3.2798 H       
  46 H46            3.3787    -1.4324    -0.5714 H       
  47 H47            4.2202    -0.7388     0.8475 H       
  48 H48            5.2478    -2.8620    -0.5984 H       
  49 H49            5.5412    -2.6666     1.1621 H       
  50 H50            3.5573    -4.4646    -0.2647 H       
  51 H51            5.2377    -4.5633     2.1419 H       
  52 H52            5.7894    -5.3286    -0.2799 H       
  53 H53            7.2728    -7.0187     0.6878 H       
  54 H54            7.2129    -5.6078     1.7714 H       
  55 H55            6.8903    -7.6557     2.9579 H       
  56 H56            4.1380    -7.5658     0.9752 H       
  57 H57            3.7640    -6.6780    -0.5215 H       
  58 H58            5.1753    -7.7608    -0.4581 H       
@<TRIPOS>BOND
   1    1    2 1
   2    1    3 2
   3    2    5 2
   4    2   32 1
   5    3    4 1
   6    3    6 1
   7    4    5 1
   8    5   18 1
   9    6    7 ar
  10    6    8 ar
  11    7   11 ar
  12    7   33 1
  13    8    9 ar
  14    8   34 1
  15    9   10 ar
  16    9   35 1
  17   10   11 ar
  18   10   12 1
  19   11   16 1
  20   12   13 1
  21   13   14 1
  22   13   15 1
  23   13   36 1
  24   14   37 1
  25   14   38 1
  26   14   39 1
  27   15   40 1
  28   15   41 1
  29   15   42 1
  30   16   17 3
  31   18   19 ar
  32   18   23 ar
  33   19   20 ar
  34   19   24 1
  35   20   21 ar
  36   20   26 1
  37   21   22 ar
  38   21   43 1
  39   22   23 ar
  40   22   44 1
  41   23   45 1
  42   24   25 1
  43   24   46 1
  44   24   47 1
  45   25   26 1
  46   25   48 1
  47   25   49 1
  48   26   27 1
  49   26   50 1
  50   27   28 1
  51   27   51 1
  52   28   29 1
  53   28   31 1
  54   28   52 1
  55   29   30 1
  56   29   53 1
  57   29   54 1
  58   30   55 1
  59   31   56 1
  60   31   57 1
  61   31   58 1

#	End of record

