#	Name: ASD07930494
#	Creating user name:	WinNT
#	Creation time:	15. 06. 2019 21:12

#	Modifying user name:	WinNT
#	Modification time:	15. 06. 2019 21:12

#	Program:	/corina/corina34_cracker 3.40 0067  02.08.2006

@<TRIPOS>MOLECULE
ASD07930494
  44   46    0    0    0
SMALL
NO_CHARGES


@<TRIPOS>ATOM
   1 C1            -0.0343     1.4581     0.0424 C.3     
   2 N2             0.7953    -0.4134    -2.1302 N.2     
   3 N3            -0.8904    -1.7835    -1.2685 N.pl3   
   4 C4            -0.9150    -2.8271    -0.2383 C.3     
   5 C5            -1.2300    -2.1885     1.1215 C.3     
   6 S6             0.0062    -0.8913     1.4434 S.o2    
   7 N7            -0.0141    -0.0067     0.0315 N.am    
   8 C8            -0.0113    -0.7260    -1.1552 C.2     
   9 C9             0.4500    -3.5153    -0.1755 C.3     
  10 C10           -1.9764    -3.8423    -0.5755 C.ar    
  11 C11           -2.8068    -3.6380    -1.6597 C.ar    
  12 C12           -3.7850    -4.5741    -1.9701 C.ar    
  13 C13           -3.9256    -5.7135    -1.1889 C.ar    
  14 C14           -3.0929    -5.9138    -0.1053 C.ar    
  15 C15           -2.1147    -4.9822     0.1990 C.ar    
  16 O16           -0.4576     0.0117     2.4378 O.2     
  17 O17            1.3140    -1.4440     1.5003 O.2     
  18 F18           -1.3013    -5.1800     1.2593 F       
  19 N19           -4.6277    -4.3689    -3.0679 N.am    
  20 C20           -5.0477    -5.4193    -3.8006 C.2     
  21 O21           -4.6185    -6.5321    -3.5688 O.2     
  22 C22           -6.0344    -5.2166    -4.8907 C.ar    
  23 N23           -6.4360    -6.2608    -5.6007 N.ar    
  24 N24           -6.4956    -3.9970    -5.1258 N.ar    
  25 C25           -7.3743    -3.7804    -6.0877 C.ar    
  26 C26           -7.8139    -4.8511    -6.8565 C.ar    
  27 C27           -7.3127    -6.1169    -6.5779 C.ar    
  28 Cl28          -8.9684    -4.6142    -8.1311 Cl      
  29 H29            0.9883     1.8356     0.0393 H       
  30 H30           -0.5582     1.8209    -0.8419 H       
  31 H31           -0.5479     1.8077     0.9380 H       
  32 H32            1.4071     0.3331    -2.0331 H       
  33 H33           -1.4883    -1.8387    -2.0303 H       
  34 H34           -2.2270    -1.7484     1.0987 H       
  35 H35           -1.1799    -2.9460     1.9037 H       
  36 H36            1.2165    -2.7804     0.0704 H       
  37 H37            0.4311    -4.2908     0.5903 H       
  38 H38            0.6749    -3.9652    -1.1426 H       
  39 H39           -2.6959    -2.7510    -2.2657 H       
  40 H40           -4.6858    -6.4424    -1.4283 H       
  41 H41           -3.2019    -6.7998     0.5026 H       
  42 H42           -4.9098    -3.4708    -3.3017 H       
  43 H43           -7.7467    -2.7839    -6.2741 H       
  44 H44           -7.6326    -6.9712    -7.1560 H       
@<TRIPOS>BOND
   1    1    7 1
   2    1   29 1
   3    1   30 1
   4    1   31 1
   5    2    8 2
   6    2   32 1
   7    3    4 1
   8    3    8 1
   9    3   33 1
  10    4    5 1
  11    4    9 1
  12    4   10 1
  13    5    6 1
  14    5   34 1
  15    5   35 1
  16    6    7 am
  17    6   16 2
  18    6   17 2
  19    7    8 1
  20    9   36 1
  21    9   37 1
  22    9   38 1
  23   10   11 ar
  24   10   15 ar
  25   11   12 ar
  26   11   39 1
  27   12   13 ar
  28   12   19 1
  29   13   14 ar
  30   13   40 1
  31   14   15 ar
  32   14   41 1
  33   15   18 1
  34   19   20 am
  35   19   42 1
  36   20   21 2
  37   20   22 1
  38   22   23 ar
  39   22   24 ar
  40   23   27 ar
  41   24   25 ar
  42   25   26 ar
  43   25   43 1
  44   26   27 ar
  45   26   28 1
  46   27   44 1

#	End of record

