#	Name: ASD01841073
#	Creating user name:	WinNT
#	Creation time:	15. 06. 2019 19:38

#	Modifying user name:	WinNT
#	Modification time:	15. 06. 2019 19:38

#	Program:	/corina/corina34_cracker 3.40 0067  02.08.2006

@<TRIPOS>MOLECULE
ASD01841073
  31   33    0    0    0
SMALL
NO_CHARGES


@<TRIPOS>ATOM
   1 N1            -0.0154     1.2833     0.0091 N.2     
   2 C2             0.0021    -0.0041     0.0020 C.2     
   3 S3             1.6584    -0.5933    -0.0170 S.3     
   4 C4             2.2617     1.0623    -0.0138 C.ar    
   5 C5             1.1673     1.9304     0.0013 C.ar    
   6 C6             1.4147     3.3235     0.0060 C.ar    
   7 C7             2.7061     3.8006    -0.0047 C.ar    
   8 C8             3.7810     2.9244    -0.0196 C.ar    
   9 C9             3.5618     1.5650    -0.0240 C.ar    
  10 N10           -1.1241    -0.8103     0.0089 N.am    
  11 C11           -0.9927    -2.1516     0.0004 C.2     
  12 C12           -2.1968    -3.0137     0.0077 C.ar    
  13 O13            0.1138    -2.6536    -0.0133 O.2     
  14 C14           -2.0829    -4.4075    -0.0009 C.ar    
  15 C15           -3.2325    -5.1734     0.0063 C.ar    
  16 N16           -4.4229    -4.6074     0.0211 N.ar    
  17 C17           -4.5750    -3.2980     0.0296 C.ar    
  18 C18           -3.4794    -2.4567     0.0292 C.ar    
  19 O19            0.3719     4.1954     0.0206 O.3     
  20 C20            0.6908     5.5884     0.0246 C.3     
  21 H21            2.8835     4.8659    -0.0017 H       
  22 H22            4.7903     3.3085    -0.0279 H       
  23 H23            4.4009     0.8853    -0.0353 H       
  24 H24           -2.0074    -0.4096     0.0198 H       
  25 H25           -1.1109    -4.8780    -0.0134 H       
  26 H26           -3.1550    -6.2506    -0.0006 H       
  27 H27           -5.5696    -2.8774     0.0414 H       
  28 H28           -3.6114    -1.3848     0.0362 H       
  29 H29            1.2815     5.8233     0.9100 H       
  30 H30            1.2641     5.8324    -0.8698 H       
  31 H31           -0.2297     6.1719     0.0365 H       
@<TRIPOS>BOND
   1    1    2 2
   2    1    5 1
   3    2    3 1
   4    2   10 1
   5    3    4 1
   6    4    5 ar
   7    4    9 ar
   8    5    6 ar
   9    6    7 ar
  10    6   19 1
  11    7    8 ar
  12    7   21 1
  13    8    9 ar
  14    8   22 1
  15    9   23 1
  16   10   11 am
  17   10   24 1
  18   11   12 1
  19   11   13 2
  20   12   14 ar
  21   12   18 ar
  22   14   15 ar
  23   14   25 1
  24   15   16 ar
  25   15   26 1
  26   16   17 ar
  27   17   18 ar
  28   17   27 1
  29   18   28 1
  30   19   20 1
  31   20   29 1
  32   20   30 1
  33   20   31 1

#	End of record

