#	Name: ASD01208630
#	Creating user name:	WinNT
#	Creation time:	15. 06. 2019 19:10

#	Modifying user name:	WinNT
#	Modification time:	15. 06. 2019 19:10

#	Program:	/corina/corina34_cracker 3.40 0067  02.08.2006

@<TRIPOS>MOLECULE
ASD01208630
  60   63    0    0    0
SMALL
NO_CHARGES


@<TRIPOS>ATOM
   1 C1            -0.7880     1.3865     1.1255 C.ar    
   2 C2            -0.8001    -0.0062     1.1425 C.ar    
   3 C3            -0.3553    -0.6452     2.2896 C.ar    
   4 C4             0.0743     0.1412     3.3491 C.ar    
   5 N5             0.0512     1.4552     3.2458 N.ar    
   6 N6            -0.3596     2.0520     2.1863 N.ar    
   7 S7             0.6498    -0.6162     4.8323 S.o2    
   8 O8             0.4102     0.3578     5.8389 O.2     
   9 O9            -0.0074    -1.8757     4.8604 O.2     
  10 C10            2.4312    -0.8334     4.5679 C.3     
  11 O11           -1.2083     2.0580     0.0239 O.3     
  12 C12           -1.2748     3.4138     0.0899 C.ar    
  13 C13           -0.1124     4.1585     0.2331 C.ar    
  14 C14           -0.1747     5.5426     0.3005 C.ar    
  15 C15           -1.3984     6.1874     0.2256 C.ar    
  16 C16           -2.5694     5.4427     0.0816 C.ar    
  17 C17           -2.5019     4.0507     0.0084 C.ar    
  18 N18           -5.0921     5.5166    -0.1396 N.pl3   
  19 C19           -3.8775     6.1265     0.0011 C.2     
  20 C20           -4.0808     7.4869     0.0551 C.2     
  21 C21           -5.4536     7.7134    -0.0554 C.2     
  22 C22           -6.0671     6.4853    -0.1753 C.2     
  23 O23           -8.0527     5.0198    -0.4311 O.3     
  24 C24           -7.5114     6.2518    -0.3170 C.2     
  25 N25           -8.3883     7.2127    -0.3438 N.2     
  26 C26           -9.7306     6.6146    -0.4798 C.3     
  27 C27           -9.4598     5.1302    -0.1341 C.3     
  28 C28           -9.7322     4.8524     1.3456 C.3     
  29 O29            0.9665     6.2672     0.4408 O.3     
  30 C30            0.8456     7.6891     0.3655 C.3     
  31 C31            2.1026     8.2743    -0.2813 C.3     
  32 C32            0.6830     8.2624     1.7747 C.3     
  33 O33            3.2292     8.0349     0.5647 O.3     
  34 C34            4.4611     8.5444     0.0502 C.3     
  35 H35           -1.1456    -0.5706     0.2890 H       
  36 H36           -0.3437    -1.7231     2.3567 H       
  37 H37            2.8950     0.1388     4.4010 H       
  38 H38            2.8745    -1.3014     5.4468 H       
  39 H39            2.5945    -1.4682     3.6970 H       
  40 H40            0.8432     3.6589     0.2926 H       
  41 H41           -1.4460     7.2650     0.2788 H       
  42 H42           -3.4056     3.4708    -0.1076 H       
  43 H43           -5.2411     4.5605    -0.2073 H       
  44 H44           -3.3164     8.2421     0.1637 H       
  45 H45           -5.9450     8.6750    -0.0479 H       
  46 H46          -10.4282     7.0585     0.2305 H       
  47 H47          -10.0999     6.7153    -1.5004 H       
  48 H48          -10.0469     4.4671    -0.7695 H       
  49 H49           -9.1684     5.5567     1.9573 H       
  50 H50          -10.7972     4.9677     1.5469 H       
  51 H51           -9.4249     3.8348     1.5868 H       
  52 H52           -0.0263     7.9483    -0.2350 H       
  53 H53            2.2677     7.8003    -1.2488 H       
  54 H54            1.9739     9.3477    -0.4198 H       
  55 H55           -0.2125     7.8455     2.2355 H       
  56 H56            1.5550     8.0032     2.3752 H       
  57 H57            0.5908     9.3470     1.7173 H       
  58 H58            4.3813     9.6235    -0.0814 H       
  59 H59            5.2667     8.3224     0.7501 H       
  60 H60            4.6751     8.0760    -0.9105 H       
@<TRIPOS>BOND
   1    1    2 ar
   2    1    6 ar
   3    1   11 1
   4    2    3 ar
   5    2   35 1
   6    3    4 ar
   7    3   36 1
   8    4    5 ar
   9    4    7 1
  10    5    6 ar
  11    7    8 2
  12    7    9 2
  13    7   10 1
  14   10   37 1
  15   10   38 1
  16   10   39 1
  17   11   12 1
  18   12   13 ar
  19   12   17 ar
  20   13   14 ar
  21   13   40 1
  22   14   15 ar
  23   14   29 1
  24   15   16 ar
  25   15   41 1
  26   16   17 ar
  27   16   19 1
  28   17   42 1
  29   18   19 1
  30   18   22 1
  31   18   43 1
  32   19   20 2
  33   20   21 1
  34   20   44 1
  35   21   22 2
  36   21   45 1
  37   22   24 1
  38   23   24 1
  39   23   27 1
  40   24   25 2
  41   25   26 1
  42   26   27 1
  43   26   46 1
  44   26   47 1
  45   27   28 1
  46   27   48 1
  47   28   49 1
  48   28   50 1
  49   28   51 1
  50   29   30 1
  51   30   31 1
  52   30   32 1
  53   30   52 1
  54   31   33 1
  55   31   53 1
  56   31   54 1
  57   32   55 1
  58   32   56 1
  59   32   57 1
  60   33   34 1
  61   34   58 1
  62   34   59 1
  63   34   60 1

#	End of record

