#	Name: ASD01884568
#	Creating user name:	WinNT
#	Creation time:	15. 06. 2019 19:48

#	Modifying user name:	WinNT
#	Modification time:	15. 06. 2019 19:48

#	Program:	/corina/corina34_cracker 3.40 0067  02.08.2006

@<TRIPOS>MOLECULE
ASD01884568
  69   73    0    0    0
SMALL
NO_CHARGES


@<TRIPOS>ATOM
   1 C1             1.2433     1.6429    -0.2002 C.2     
   2 C2             1.4785     0.2768    -0.3342 C.2     
   3 C3             0.4186    -0.5602    -0.6856 C.2     
   4 C4            -0.8186    -0.0427    -0.8920 C.2     
   5 N5            -1.0550     1.2856    -0.7634 N.am    
   6 C6            -0.0692     2.1364    -0.4205 C.2     
   7 O7            -0.3010     3.3280    -0.3094 O.2     
   8 C8            -2.4057     1.8032    -0.9957 C.3     
   9 C9            -3.1772     1.7928     0.2988 C.ar    
  10 C10           -3.1466     2.8970     1.1300 C.ar    
  11 C11           -3.8541     2.8888     2.3172 C.ar    
  12 C12           -4.5937     1.7740     2.6739 C.ar    
  13 C13           -4.6235     0.6686     1.8407 C.ar    
  14 C14           -3.9195     0.6811     0.6515 C.ar    
  15 F15           -5.2853     1.7646     3.8344 F       
  16 C16            2.3056     2.5332     0.1595 C.1     
  17 N17            3.1484     3.2395     0.4449 N.1     
  18 C18            2.8562    -0.2887    -0.1039 C.3     
  19 N19            2.9646    -0.7654     1.2813 N.3     
  20 C20            4.2015    -1.5341     1.4785 C.3     
  21 C21            4.3154    -1.9439     2.9487 C.3     
  22 N22            3.1387    -2.7394     3.3254 N.3     
  23 C23            1.9018    -1.9708     3.1283 C.3     
  24 C24            1.7878    -1.5610     1.6580 C.3     
  25 C25            3.2470    -3.2162     4.7107 C.3     
  26 C26            3.1003    -2.0335     5.6701 C.3     
  27 C27            2.1413    -4.2371     4.9866 C.3     
  28 C28            3.4144    -2.4832     7.0737 C.ar    
  29 C29            4.6801    -2.9427     7.3852 C.ar    
  30 C30            4.9683    -3.3554     8.6728 C.ar    
  31 C31            3.9906    -3.3084     9.6487 C.ar    
  32 C32            2.7245    -2.8484     9.3372 C.ar    
  33 C33            2.4380    -2.4309     8.0512 C.ar    
  34 C34            2.1122    -4.8904     6.3698 C.3     
  35 C35            1.0566    -3.8488     5.9934 C.3     
  36 C36            6.3482    -3.8569     9.0123 C.3     
  37 F37            7.1449    -2.7846     9.4280 F       
  38 F38            6.2614    -4.8000    10.0420 F       
  39 F39            6.9194    -4.4515     7.8822 F       
  40 H40            0.5835    -1.6220    -0.7938 H       
  41 H41           -1.6300    -0.7014    -1.1642 H       
  42 H42           -2.3436     2.8238    -1.3734 H       
  43 H43           -2.9146     1.1754    -1.7270 H       
  44 H44           -2.5694     3.7663     0.8517 H       
  45 H45           -3.8298     3.7514     2.9665 H       
  46 H46           -5.2001    -0.2015     2.1180 H       
  47 H47           -3.9426    -0.1809     0.0014 H       
  48 H48            3.0271    -1.1195    -0.7885 H       
  49 H49            3.6015     0.4869    -0.2806 H       
  50 H50            4.1787    -2.4265     0.8530 H       
  51 H51            5.0591    -0.9195     1.2047 H       
  52 H52            5.2175    -2.5388     3.0916 H       
  53 H53            4.3657    -1.0512     3.5722 H       
  54 H54            1.0442    -2.5853     3.4020 H       
  55 H55            1.9246    -1.0784     3.7538 H       
  56 H56            0.8858    -0.9661     1.5152 H       
  57 H57            1.7376    -2.4537     1.0346 H       
  58 H58            4.2198    -3.6854     4.8584 H       
  59 H59            3.7907    -1.2418     5.3791 H       
  60 H60            2.0781    -1.6572     5.6293 H       
  61 H61            1.8425    -4.8482     4.1350 H       
  62 H62            5.4440    -2.9798     6.6226 H       
  63 H63            4.2154    -3.6314    10.6544 H       
  64 H64            1.9605    -2.8120    10.0996 H       
  65 H65            1.4490    -2.0715     7.8078 H       
  66 H66            1.7938    -5.9312     6.4282 H       
  67 H67            2.8808    -4.5929     7.0832 H       
  68 H68            1.1307    -2.8661     6.4591 H       
  69 H69            0.0438    -4.2043     5.8041 H       
@<TRIPOS>BOND
   1    1    2 2
   2    1   16 1
   3    1    6 1
   4    2    3 1
   5    2   18 1
   6    3    4 2
   7    3   40 1
   8    4    5 1
   9    4   41 1
  10    5    8 1
  11    5    6 am
  12    6    7 2
  13    8    9 1
  14    8   42 1
  15    8   43 1
  16    9   10 ar
  17    9   14 ar
  18   10   11 ar
  19   10   44 1
  20   11   12 ar
  21   11   45 1
  22   12   13 ar
  23   12   15 1
  24   13   14 ar
  25   13   46 1
  26   14   47 1
  27   16   17 3
  28   18   19 1
  29   18   48 1
  30   18   49 1
  31   19   20 1
  32   19   24 1
  33   20   21 1
  34   20   50 1
  35   20   51 1
  36   21   22 1
  37   21   52 1
  38   21   53 1
  39   22   23 1
  40   22   25 1
  41   23   24 1
  42   23   54 1
  43   23   55 1
  44   24   56 1
  45   24   57 1
  46   25   26 1
  47   25   27 1
  48   25   58 1
  49   26   28 1
  50   26   59 1
  51   26   60 1
  52   27   34 1
  53   27   35 1
  54   27   61 1
  55   28   29 ar
  56   28   33 ar
  57   29   30 ar
  58   29   62 1
  59   30   36 1
  60   30   31 ar
  61   31   32 ar
  62   31   63 1
  63   32   33 ar
  64   32   64 1
  65   33   65 1
  66   34   35 1
  67   34   66 1
  68   34   67 1
  69   35   68 1
  70   35   69 1
  71   36   37 1
  72   36   38 1
  73   36   39 1

#	End of record

