#	Name: ASD04880050
#	Creating user name:	WinNT
#	Creation time:	15. 06. 2019 20:52

#	Modifying user name:	WinNT
#	Modification time:	15. 06. 2019 20:52

#	Program:	/corina/corina34_cracker 3.40 0067  02.08.2006

@<TRIPOS>MOLECULE
ASD04880050
  23   24    0    0    0
SMALL
NO_CHARGES


@<TRIPOS>ATOM
   1 N1            -0.0188     1.3869     0.0471 N.am    
   2 N2            -0.0034    -0.0057     0.0937 N.2     
   3 C3             1.1581    -0.5191     0.1076 C.2     
   4 C4             2.2011     0.5750     0.0681 C.3     
   5 C5             1.3706     1.8738     0.0270 C.3     
   6 C6            -1.1225     2.1598     0.0193 C.2     
   7 C7            -2.4585     1.5367    -0.0886 C.ar    
   8 C8            -3.6083     2.3200     0.0257 C.ar    
   9 C9            -4.8539     1.7309    -0.0761 C.ar    
  10 C10           -4.9617     0.3659    -0.2906 C.ar    
  11 C11           -3.8251    -0.4139    -0.4044 C.ar    
  12 C12           -2.5755     0.1638    -0.3107 C.ar    
  13 O13           -1.0193     3.3696     0.0829 O.2     
  14 F14           -5.9685     2.4864     0.0341 F       
  15 Cl15           1.4973    -2.2207     0.1635 Cl      
  16 H16            2.8211     0.5453     0.9641 H       
  17 H17            2.8161     0.4854    -0.8274 H       
  18 H18            1.5703     2.4291    -0.8894 H       
  19 H19            1.5753     2.4891     0.9031 H       
  20 H20           -3.5244     3.3835     0.1935 H       
  21 H21           -5.9372    -0.0909    -0.3689 H       
  22 H22           -3.9158    -1.4771    -0.5712 H       
  23 H23           -1.6893    -0.4464    -0.4044 H       
@<TRIPOS>BOND
   1    1    2 1
   2    1    5 1
   3    1    6 am
   4    2    3 2
   5    3    4 1
   6    3   15 1
   7    4    5 1
   8    4   16 1
   9    4   17 1
  10    5   18 1
  11    5   19 1
  12    6    7 1
  13    6   13 2
  14    7    8 ar
  15    7   12 ar
  16    8    9 ar
  17    8   20 1
  18    9   10 ar
  19    9   14 1
  20   10   11 ar
  21   10   21 1
  22   11   12 ar
  23   11   22 1
  24   12   23 1

#	End of record

