#	Name: ASD04882049
#	Creating user name:	WinNT
#	Creation time:	15. 06. 2019 20:54

#	Modifying user name:	WinNT
#	Modification time:	15. 06. 2019 20:54

#	Program:	/corina/corina34_cracker 3.40 0067  02.08.2006

@<TRIPOS>MOLECULE
ASD04882049
  82   87    0    0    0
SMALL
NO_CHARGES


@<TRIPOS>ATOM
   1 C1             1.5197     1.4379     1.7956 C.ar    
   2 C2             1.4812     0.0577     1.8148 C.ar    
   3 C3             2.6618    -0.6672     1.9196 C.ar    
   4 C4             3.8772    -0.0004     2.0047 C.ar    
   5 C5             3.9085     1.3803     1.9849 C.ar    
   6 C6             2.7318     2.0987     1.8806 C.ar    
   7 C7             5.1603    -0.7826     2.1190 C.3     
   8 N8             2.6264    -2.0633     1.9397 N.3     
   9 C9             3.2417    -2.6233     0.7283 C.3     
  10 C10            3.2547    -4.1507     0.8253 C.3     
  11 N11            1.8787    -4.6403     0.9882 N.3     
  12 C12            1.2635    -4.0804     2.1996 C.3     
  13 C13            1.2504    -2.5530     2.1026 C.3     
  14 C14            1.8435    -6.0322     1.0083 C.ar    
  15 C15            2.1806    -6.7555    -0.1391 C.ar    
  16 C16            2.1460    -8.1371    -0.1187 C.ar    
  17 C17            1.7736    -8.8065     1.0503 C.ar    
  18 C18            1.4376    -8.0770     2.1943 C.ar    
  19 C19            1.4785    -6.7006     2.1714 C.ar    
  20 C20            1.7347   -10.2810     1.0767 C.2     
  21 N21            1.3754   -10.9256     2.2045 N.am    
  22 O22            2.0267   -10.9148     0.0809 O.2     
  23 C23            1.3368   -12.3899     2.2307 C.3     
  24 C24            0.9013   -12.8638     3.6187 C.3     
  25 C25            0.8610   -14.3930     3.6460 C.3     
  26 N26            0.4440   -14.8468     4.9751 N.am    
  27 C27           -0.9499   -15.0792     5.3712 C.3     
  28 C28           -0.9397   -15.1104     6.9157 C.3     
  29 C29            0.5153   -15.5411     7.2127 C.3     
  30 C30            1.2893   -15.1095     5.9867 C.2     
  31 O31            2.4964   -15.0080     5.9273 O.2     
  32 N32            2.5529    -6.0807    -1.3091 N.am    
  33 C33            3.3580    -6.6825    -2.2069 C.2     
  34 O34            3.6975    -7.8385    -2.0405 O.2     
  35 C35            3.8270    -5.9398    -3.3906 C.ar    
  36 C36            4.6741    -6.5660    -4.3397 C.ar    
  37 C37            3.4393    -4.6225    -3.5903 C.ar    
  38 C38            3.8762    -3.9151    -4.7024 C.ar    
  39 C39            4.6957    -4.4930    -5.6263 C.ar    
  40 C40            5.1078    -5.8260    -5.4661 C.ar    
  41 C41            5.9540    -6.4470    -6.4046 C.ar    
  42 C42            6.3157    -7.7463    -6.1860 C.ar    
  43 C43            5.8478    -8.4170    -5.0592 C.ar    
  44 N44            5.0636    -7.8318    -4.1845 N.ar    
  45 H45            0.6027     2.0019     1.7096 H       
  46 H46            0.5344    -0.4577     1.7488 H       
  47 H47            4.8533     1.8994     2.0511 H       
  48 H48            2.7591     3.1782     1.8650 H       
  49 H49            5.5100    -1.0544     1.1231 H       
  50 H50            5.9149    -0.1722     2.6150 H       
  51 H51            4.9839    -1.6868     2.7015 H       
  52 H52            2.6658    -2.3193    -0.1458 H       
  53 H53            4.2638    -2.2560     0.6365 H       
  54 H54            3.6843    -4.5692    -0.0849 H       
  55 H55            3.8532    -4.4554     1.6838 H       
  56 H56            0.2413    -4.4477     2.2914 H       
  57 H57            1.8393    -4.3844     3.0737 H       
  58 H58            0.8208    -2.1345     3.0128 H       
  59 H59            0.6519    -2.2482     1.2441 H       
  60 H60            2.4057    -8.6981    -1.0043 H       
  61 H61            1.1497    -8.5933     3.0982 H       
  62 H62            1.2188    -6.1390     3.0566 H       
  63 H63            1.1424   -10.4200     2.9988 H       
  64 H64            0.6268   -12.7480     1.4851 H       
  65 H65            2.3282   -12.7835     2.0068 H       
  66 H66            1.6113   -12.5057     4.3642 H       
  67 H67           -0.0902   -12.4701     3.8426 H       
  68 H68            0.1510   -14.7511     2.9005 H       
  69 H69            1.8524   -14.7867     3.4222 H       
  70 H70           -1.5838   -14.2673     5.0146 H       
  71 H71           -1.3001   -16.0331     4.9770 H       
  72 H72           -1.1458   -14.1223     7.3272 H       
  73 H73           -1.6494   -15.8453     7.2957 H       
  74 H74            0.8895   -15.0336     8.1018 H       
  75 H75            0.5754   -16.6225     7.3360 H       
  76 H76            2.2313    -5.1804    -1.4729 H       
  77 H77            2.7902    -4.1422    -2.8730 H       
  78 H78            3.5616    -2.8908    -4.8380 H       
  79 H79            5.0246    -3.9264    -6.4850 H       
  80 H80            6.3071    -5.9113    -7.2734 H       
  81 H81            6.9634    -8.2525    -6.8865 H       
  82 H82            6.1410    -9.4439    -4.8985 H       
@<TRIPOS>BOND
   1    1    2 ar
   2    1    6 ar
   3    1   45 1
   4    2    3 ar
   5    2   46 1
   6    3    4 ar
   7    3    8 1
   8    4    5 ar
   9    4    7 1
  10    5    6 ar
  11    5   47 1
  12    6   48 1
  13    7   49 1
  14    7   50 1
  15    7   51 1
  16    8    9 1
  17    8   13 1
  18    9   10 1
  19    9   52 1
  20    9   53 1
  21   10   11 1
  22   10   54 1
  23   10   55 1
  24   11   12 1
  25   11   14 1
  26   12   13 1
  27   12   56 1
  28   12   57 1
  29   13   58 1
  30   13   59 1
  31   14   15 ar
  32   14   19 ar
  33   15   16 ar
  34   15   32 1
  35   16   17 ar
  36   16   60 1
  37   17   18 ar
  38   17   20 1
  39   18   19 ar
  40   18   61 1
  41   19   62 1
  42   20   21 am
  43   20   22 2
  44   21   23 1
  45   21   63 1
  46   23   24 1
  47   23   64 1
  48   23   65 1
  49   24   25 1
  50   24   66 1
  51   24   67 1
  52   25   26 1
  53   25   68 1
  54   25   69 1
  55   26   27 1
  56   26   30 am
  57   27   28 1
  58   27   70 1
  59   27   71 1
  60   28   29 1
  61   28   72 1
  62   28   73 1
  63   29   30 1
  64   29   74 1
  65   29   75 1
  66   30   31 2
  67   32   33 am
  68   32   76 1
  69   33   34 2
  70   33   35 1
  71   35   36 ar
  72   35   37 ar
  73   36   40 ar
  74   36   44 ar
  75   37   38 ar
  76   37   77 1
  77   38   39 ar
  78   38   78 1
  79   39   40 ar
  80   39   79 1
  81   40   41 ar
  82   41   42 ar
  83   41   80 1
  84   42   43 ar
  85   42   81 1
  86   43   44 ar
  87   43   82 1

#	End of record

