#	Name: ASD04880734
#	Creating user name:	WinNT
#	Creation time:	15. 06. 2019 20:53

#	Modifying user name:	WinNT
#	Modification time:	15. 06. 2019 20:53

#	Program:	/corina/corina34_cracker 3.40 0067  02.08.2006

@<TRIPOS>MOLECULE
ASD04880734
  91   96    0    0    0
SMALL
NO_CHARGES


@<TRIPOS>ATOM
   1 C1             0.0077     1.3660     0.0078 C.ar    
   2 C2            -1.1968     2.0430     0.0699 C.ar    
   3 C3            -1.2154     3.4248     0.1142 C.ar    
   4 C4            -0.0301     4.1339     0.0966 C.ar    
   5 C5             1.1812     3.4572     0.0343 C.ar    
   6 C6             1.1962     2.0687    -0.0101 C.ar    
   7 C7            -0.0513     5.6399     0.1444 C.3     
   8 N8             2.3816     4.1712     0.0159 N.3     
   9 C9             3.1849     3.8816     1.2119 C.3     
  10 C10            3.1439     3.8882    -1.2083 C.3     
  11 C11            4.4103     4.7474    -1.2274 C.3     
  12 N12            5.2137     4.4578    -0.0314 N.3     
  13 C13            4.4514     4.7408     1.1927 C.3     
  14 C14            6.4103     5.1695    -0.0498 C.ar    
  15 C15            6.6421     6.1604     0.8958 C.ar    
  16 C16            7.8268     6.8683     0.8813 C.ar    
  17 C17            8.7976     6.5880    -0.0880 C.ar    
  18 C18            8.5637     5.5902    -1.0398 C.ar    
  19 C19            7.3786     4.8815    -1.0165 C.ar    
  20 N20            7.1441     3.8765    -1.9657 N.am    
  21 C21            7.6256     4.0066    -3.2177 C.2     
  22 C22            7.4884     2.8976    -4.1790 C.2     
  23 O23            8.1734     5.0390    -3.5545 O.2     
  24 C24            6.9752     0.9807    -5.0292 C.2     
  25 O25            7.6004     1.6884    -5.9806 O.3     
  26 C26            7.9290     2.8845    -5.4667 C.2     
  27 N27            6.9028     1.6920    -3.9442 N.2     
  28 C28            6.4401    -0.4186    -5.1924 C.3     
  29 C29            5.3745    -0.6467    -6.2663 C.3     
  30 C30            6.7979    -1.1662    -6.4785 C.3     
  31 C31           10.0631     7.3431    -0.1055 C.2     
  32 F32            8.0496     7.8317     1.8018 F       
  33 O33           10.2650     8.2106     0.7225 O.2     
  34 C34           13.2472     7.1770    -0.0876 C.3     
  35 C35           12.2546     7.8227    -1.0565 C.3     
  36 C36           12.8384     7.8067    -2.4707 C.3     
  37 C37           13.1011     6.3612    -2.8977 C.3     
  38 C38           14.0937     5.7155    -1.9288 C.3     
  39 C39           13.5098     5.7315    -0.5146 C.3     
  40 N40           10.9966     7.0721    -1.0391 N.am    
  41 C41           13.6762     6.3455    -4.2905 C.2     
  42 O42           13.8574     7.3839    -4.8811 O.2     
  43 O43           13.9871     5.1778    -4.8751 O.3     
  44 C44           14.5369     5.2386    -6.2176 C.3     
  45 C45           15.8348     6.0485    -6.2011 C.3     
  46 C46           14.8267     3.8209    -6.7147 C.3     
  47 C47           13.5284     5.9103    -7.1518 C.3     
  48 H48            0.0188     0.2865    -0.0221 H       
  49 H49           -2.1250     1.4910     0.0834 H       
  50 H50           -2.1577     3.9503     0.1622 H       
  51 H51            2.1365     1.5395    -0.0581 H       
  52 H52           -0.0220     5.9710     1.1825 H       
  53 H53            0.8157     6.0326    -0.3868 H       
  54 H54           -0.9631     6.0056    -0.3280 H       
  55 H55            2.6034     4.1109     2.1048 H       
  56 H56            3.4609     2.8271     1.2180 H       
  57 H57            3.4193     2.8338    -1.2296 H       
  58 H58            2.5324     4.1223    -2.0797 H       
  59 H59            4.9918     4.5181    -2.1204 H       
  60 H60            4.1344     5.8018    -1.2336 H       
  61 H61            4.1759     5.7951     1.2140 H       
  62 H62            5.0629     4.5066     2.0641 H       
  63 H63            5.8936     6.3774     1.6436 H       
  64 H64            9.3102     5.3714    -1.7889 H       
  65 H65            6.6352     3.0877    -1.7212 H       
  66 H66            8.4446     3.6841    -5.9778 H       
  67 H67            6.3634    -1.0025    -4.2752 H       
  68 H68            4.5969    -1.3810    -6.0558 H       
  69 H69            5.0604     0.2153    -6.8548 H       
  70 H70            7.4202    -0.6459    -7.2066 H       
  71 H71            6.9568    -2.2422    -6.4075 H       
  72 H72           14.1831     7.7355    -0.1006 H       
  73 H73           12.8312     7.1884     0.9198 H       
  74 H74           12.0674     8.8525    -0.7523 H       
  75 H75           12.1313     8.2667    -3.1609 H       
  76 H76           13.7744     8.3652    -2.4836 H       
  77 H77           12.1651     5.8027    -2.8847 H       
  78 H78           14.2808     4.6857    -2.2330 H       
  79 H79           15.0297     6.2740    -1.9417 H       
  80 H80           14.2170     5.2715     0.1756 H       
  81 H81           12.5738     5.1730    -0.5017 H       
  82 H82           10.8355     6.3801    -1.6995 H       
  83 H83           16.5533     5.5700    -5.5356 H       
  84 H84           16.2475     6.0941    -7.2089 H       
  85 H85           15.6283     7.0585    -5.8470 H       
  86 H86           13.9021     3.2438    -6.7264 H       
  87 H87           15.2394     3.8665    -7.7225 H       
  88 H88           15.5452     3.3423    -6.0491 H       
  89 H89           13.3219     6.9203    -6.7977 H       
  90 H90           13.9411     5.9559    -8.1596 H       
  91 H91           12.6037     5.3333    -7.1636 H       
@<TRIPOS>BOND
   1    1    2 ar
   2    1    6 ar
   3    1   48 1
   4    2    3 ar
   5    2   49 1
   6    3    4 ar
   7    3   50 1
   8    4    5 ar
   9    4    7 1
  10    5    6 ar
  11    5    8 1
  12    6   51 1
  13    7   52 1
  14    7   53 1
  15    7   54 1
  16    8   10 1
  17    8    9 1
  18    9   13 1
  19    9   55 1
  20    9   56 1
  21   10   11 1
  22   10   57 1
  23   10   58 1
  24   11   12 1
  25   11   59 1
  26   11   60 1
  27   12   13 1
  28   12   14 1
  29   13   61 1
  30   13   62 1
  31   14   15 ar
  32   14   19 ar
  33   15   16 ar
  34   15   63 1
  35   16   17 ar
  36   16   32 1
  37   17   18 ar
  38   17   31 1
  39   18   19 ar
  40   18   64 1
  41   19   20 1
  42   20   21 am
  43   20   65 1
  44   21   22 1
  45   21   23 2
  46   22   27 1
  47   22   26 2
  48   24   25 1
  49   24   27 2
  50   24   28 1
  51   25   26 1
  52   26   66 1
  53   28   29 1
  54   28   30 1
  55   28   67 1
  56   29   30 1
  57   29   68 1
  58   29   69 1
  59   30   70 1
  60   30   71 1
  61   31   40 am
  62   31   33 2
  63   34   35 1
  64   34   39 1
  65   34   72 1
  66   34   73 1
  67   35   36 1
  68   35   40 1
  69   35   74 1
  70   36   37 1
  71   36   75 1
  72   36   76 1
  73   37   38 1
  74   37   41 1
  75   37   77 1
  76   38   39 1
  77   38   78 1
  78   38   79 1
  79   39   80 1
  80   39   81 1
  81   40   82 1
  82   41   42 2
  83   41   43 1
  84   43   44 1
  85   44   45 1
  86   44   46 1
  87   44   47 1
  88   45   83 1
  89   45   84 1
  90   45   85 1
  91   46   86 1
  92   46   87 1
  93   46   88 1
  94   47   89 1
  95   47   90 1
  96   47   91 1

#	End of record

