#	Name: ASD00111079
#	Creating user name:	WinNT
#	Creation time:	15. 06. 2019 18:30

#	Modifying user name:	WinNT
#	Modification time:	15. 06. 2019 18:30

#	Program:	/corina/corina34_cracker 3.40 0067  02.08.2006

@<TRIPOS>MOLECULE
ASD00111079
  40   41    0    0    0
SMALL
NO_CHARGES


@<TRIPOS>ATOM
   1 N1             0.2933     1.5589     0.0548 N.am    
   2 C2             0.1636     0.1068    -0.0171 C.3     
   3 C3             0.6302    -0.5204     1.3012 C.3     
   4 C4             2.1405    -0.6030     1.2903 C.ar    
   5 C5             2.8971     0.5386     1.3932 C.ar    
   6 C6             2.2272     1.8889     1.5184 C.3     
   7 C7             1.5781     2.2409     0.1752 C.3     
   8 C8             4.2782     0.4636     1.3838 C.ar    
   9 C9             4.8993    -0.7718     1.2700 C.ar    
  10 C10            4.1329    -1.9246     1.1661 C.ar    
  11 C11            2.7527    -1.8392     1.1762 C.ar    
  12 C12            0.1721     0.3491     2.4738 C.3     
  13 Cl13           4.9065    -3.4722     1.0237 Cl      
  14 O14            6.2561    -0.8533     1.2599 O.3     
  15 C15            6.9805     0.3736     1.3701 C.3     
  16 C16            8.4598     0.0878     1.3411 C.2     
  17 C17            9.2541     0.8206     0.6007 C.2     
  18 C18           -0.8271     2.3063     0.0019 C.2     
  19 O19           -1.9096     1.7696    -0.1030 O.2     
  20 C20           -0.7346     3.8087     0.0731 C.3     
  21 F21           -2.0188     4.3590    -0.0006 F       
  22 F22           -0.1358     4.1824     1.2810 F       
  23 F23            0.0365     4.2797    -0.9950 F       
  24 H24           -0.8793    -0.1557    -0.1944 H       
  25 H25            0.7761    -0.2717    -0.8354 H       
  26 H26            0.2099    -1.5213     1.3989 H       
  27 H27            1.4629     1.8474     2.2944 H       
  28 H28            2.9708     2.6437     1.7740 H       
  29 H29            2.2330     1.9264    -0.6374 H       
  30 H30            1.4234     3.3183     0.1186 H       
  31 H31            4.8707     1.3629     1.4649 H       
  32 H32            2.1542    -2.7345     1.0956 H       
  33 H33           -0.7893    -0.0114     2.8396 H       
  34 H34            0.9090     0.2958     3.2753 H       
  35 H35            0.0703     1.3824     2.1420 H       
  36 H36            6.7199     1.0255     0.5363 H       
  37 H37            6.7235     0.8641     2.3090 H       
  38 H38            8.8652    -0.7212     1.9307 H       
  39 H39           10.3143     0.6158     0.5799 H       
  40 H40            8.8487     1.6295     0.0111 H       
@<TRIPOS>BOND
   1    1    2 1
   2    1    7 1
   3    1   18 am
   4    2    3 1
   5    2   24 1
   6    2   25 1
   7    3    4 1
   8    3   12 1
   9    3   26 1
  10    4    5 ar
  11    4   11 ar
  12    5    6 1
  13    5    8 ar
  14    6    7 1
  15    6   27 1
  16    6   28 1
  17    7   29 1
  18    7   30 1
  19    8    9 ar
  20    8   31 1
  21    9   10 ar
  22    9   14 1
  23   10   11 ar
  24   10   13 1
  25   11   32 1
  26   12   33 1
  27   12   34 1
  28   12   35 1
  29   14   15 1
  30   15   16 1
  31   15   36 1
  32   15   37 1
  33   16   17 2
  34   16   38 1
  35   17   39 1
  36   17   40 1
  37   18   19 2
  38   18   20 1
  39   20   21 1
  40   20   22 1
  41   20   23 1

#	End of record

