#	Name: ASD01816113
#	Creating user name:	WinNT
#	Creation time:	15. 06. 2019 19:34

#	Modifying user name:	WinNT
#	Modification time:	15. 06. 2019 19:34

#	Program:	/corina/corina34_cracker 3.40 0067  02.08.2006

@<TRIPOS>MOLECULE
ASD01816113
  61   66    0    0    0
SMALL
NO_CHARGES


@<TRIPOS>ATOM
   1 C1             0.2674     2.0766    -0.3679 C.ar    
   2 C2             0.3247     0.6994    -0.2281 C.ar    
   3 C3             1.5372     0.0414    -0.2396 C.ar    
   4 C4             2.7179     0.7594    -0.3923 C.ar    
   5 C5             2.6563     2.1558    -0.5343 C.ar    
   6 C6             1.4277     2.8077    -0.5211 C.ar    
   7 N7             3.9378     0.1054    -0.4038 N.pl3   
   8 C8             5.1093     0.7455    -0.5473 C.2     
   9 C9             5.1739     2.1089    -0.6941 C.2     
  10 C10            3.9211     2.8982    -0.6952 C.2     
  11 C11            6.2415     3.0892    -0.8659 C.2     
  12 N12            5.6363     4.2934    -0.9525 N.am    
  13 N13            4.2507     4.1487    -0.8473 N.2     
  14 O14            7.4400     2.8657    -0.9199 O.2     
  15 C15            3.9513    -1.3516    -0.2518 C.3     
  16 C16            3.8634    -1.9992    -1.6098 C.ar    
  17 C17            5.0136    -2.2961    -2.3170 C.ar    
  18 N18            4.9500    -2.8618    -3.5053 N.ar    
  19 C19            3.7886    -3.1681    -4.0684 C.ar    
  20 C20            2.5900    -2.8972    -3.4117 C.ar    
  21 C21            2.6273    -2.3082    -2.1598 C.ar    
  22 C22            6.3028     5.5135    -1.1232 C.ar    
  23 C23            6.0924     6.5543    -0.2251 C.ar    
  24 C24            7.1793     5.6849    -2.1863 C.ar    
  25 C25            7.8351     6.8892    -2.3521 C.ar    
  26 C26            7.6201     7.9248    -1.4611 C.ar    
  27 C27            6.7526     7.7574    -0.3975 C.ar    
  28 F28            5.2444     6.3907     0.8138 F       
  29 C29            3.7658    -3.8038    -5.4086 C.ar    
  30 C30            4.9591    -4.0774    -6.0717 C.ar    
  31 C31            4.9308    -4.6720    -7.3248 C.ar    
  32 C32            3.7137    -4.9924    -7.9138 C.ar    
  33 C33            2.5298    -4.7199    -7.2547 C.ar    
  34 C34            2.5497    -4.1341    -6.0049 C.ar    
  35 N35            6.1253    -4.9481    -7.9943 N.am    
  36 S36            7.0678    -6.2226    -7.5149 S.o2    
  37 O37            8.1650    -6.2061    -8.4177 O.2     
  38 O38            7.2610    -6.0115    -6.1230 O.2     
  39 C39            6.0314    -7.6840    -7.7992 C.3     
  40 H40           -0.6886     2.5790    -0.3614 H       
  41 H41           -0.5886     0.1355    -0.1087 H       
  42 H42            1.5692    -1.0325    -0.1294 H       
  43 H43            1.3820     3.8812    -0.6303 H       
  44 H44            6.0250     0.1728    -0.5469 H       
  45 H45            4.8761    -1.6574     0.2374 H       
  46 H46            3.1000    -1.6616     0.3543 H       
  47 H47            5.9772    -2.0610    -1.8899 H       
  48 H48            1.6451    -3.1468    -3.8715 H       
  49 H49            1.7147    -2.0864    -1.6266 H       
  50 H50            7.3485     4.8770    -2.8828 H       
  51 H51            8.5171     7.0222    -3.1789 H       
  52 H52            8.1348     8.8650    -1.5936 H       
  53 H53            6.5870     8.5682     0.2965 H       
  54 H54            5.9038    -3.8272    -5.6121 H       
  55 H55            3.6928    -5.4553    -8.8894 H       
  56 H56            1.5863    -4.9705    -7.7168 H       
  57 H57            1.6225    -3.9226    -5.4931 H       
  58 H58            6.4028    -4.3933    -8.7400 H       
  59 H59            5.6977    -7.6964    -8.8368 H       
  60 H60            6.6092    -8.5849    -7.5926 H       
  61 H61            5.1648    -7.6488    -7.1392 H       
@<TRIPOS>BOND
   1    1    2 ar
   2    1    6 ar
   3    1   40 1
   4    2    3 ar
   5    2   41 1
   6    3    4 ar
   7    3   42 1
   8    4    5 ar
   9    4    7 1
  10    5    6 ar
  11    5   10 1
  12    6   43 1
  13    7    8 1
  14    7   15 1
  15    8    9 2
  16    8   44 1
  17    9   10 1
  18    9   11 1
  19   10   13 2
  20   11   12 am
  21   11   14 2
  22   12   13 1
  23   12   22 1
  24   15   16 1
  25   15   45 1
  26   15   46 1
  27   16   17 ar
  28   16   21 ar
  29   17   18 ar
  30   17   47 1
  31   18   19 ar
  32   19   20 ar
  33   19   29 1
  34   20   21 ar
  35   20   48 1
  36   21   49 1
  37   22   23 ar
  38   22   24 ar
  39   23   28 1
  40   23   27 ar
  41   24   25 ar
  42   24   50 1
  43   25   26 ar
  44   25   51 1
  45   26   27 ar
  46   26   52 1
  47   27   53 1
  48   29   30 ar
  49   29   34 ar
  50   30   31 ar
  51   30   54 1
  52   31   32 ar
  53   31   35 1
  54   32   33 ar
  55   32   55 1
  56   33   34 ar
  57   33   56 1
  58   34   57 1
  59   35   36 am
  60   35   58 1
  61   36   37 2
  62   36   38 2
  63   36   39 1
  64   39   59 1
  65   39   60 1
  66   39   61 1

#	End of record

