#	Name: ASD01900586
#	Creating user name:	WinNT
#	Creation time:	15. 06. 2019 19:52

#	Modifying user name:	WinNT
#	Modification time:	15. 06. 2019 19:52

#	Program:	/corina/corina34_cracker 3.40 0067  02.08.2006

@<TRIPOS>MOLECULE
ASD01900586
  46   49    0    0    0
SMALL
NO_CHARGES


@<TRIPOS>ATOM
   1 C1             0.9850     3.1569     0.7507 C.ar    
   2 C2             2.0487     3.6068     1.5302 C.ar    
   3 C3             3.2477     2.9129     1.4977 C.ar    
   4 C4             3.3417     1.7926     0.6865 C.ar    
   5 C5             2.2432     1.4021    -0.0622 C.ar    
   6 N6             1.1166     2.0791    -0.0127 N.ar    
   7 C7            -0.3053     3.8839     0.7789 C.2     
   8 O8            -0.4328     4.8684     1.4799 O.2     
   9 N9            -1.3378     3.4535     0.0271 N.am    
  10 C10           -2.5849     4.0804     0.1267 C.ar    
  11 C11           -2.6583     5.4515     0.3376 C.ar    
  12 C12           -3.8894     6.0698     0.4354 C.ar    
  13 C13           -5.0541     5.3200     0.3227 C.ar    
  14 C14           -4.9801     3.9503     0.1121 C.ar    
  15 C15           -3.7494     3.3328     0.0090 C.ar    
  16 C16           -8.2936     6.9581    -0.0616 C.3     
  17 C17           -8.4774     8.4535    -0.3393 C.3     
  18 N18           -8.0964     6.8168     1.3988 N.am    
  19 N19           -9.5408     8.9658     0.5385 N.3     
  20 C20           -9.1759     8.9019     1.9583 C.3     
  21 C21           -8.9896     7.4356     2.3823 C.3     
  22 C22           -6.9748     6.1169     1.5736 C.2     
  23 N23           -6.3054     5.9481     0.4225 N.am    
  24 C24           -6.9845     6.4576    -0.6277 C.2     
  25 O25           -6.6032     5.6838     2.6467 O.2     
  26 O26           -6.6205     6.5034    -1.7833 O.2     
  27 C27           -9.9280    10.3301     0.1554 C.3     
  28 Cl28          -3.9820     7.7831     0.6994 Cl      
  29 H29            1.9403     4.4842     2.1506 H       
  30 H30            4.0900     3.2376     2.0905 H       
  31 H31            4.2622     1.2299     0.6384 H       
  32 H32            2.3129     0.5298    -0.6952 H       
  33 H33           -1.2164     2.7092    -0.5830 H       
  34 H34           -1.7530     6.0337     0.4254 H       
  35 H35           -5.8853     3.3679     0.0246 H       
  36 H36           -3.6923     2.2675    -0.1593 H       
  37 H37           -9.1474     6.3781    -0.4117 H       
  38 H38           -7.5463     8.9813    -0.1327 H       
  39 H39           -8.7608     8.6001    -1.3815 H       
  40 H40           -8.2453     9.4465     2.1182 H       
  41 H41           -9.9668     9.3544     2.5565 H       
  42 H42           -9.9519     6.9238     2.3848 H       
  43 H43           -8.5399     7.3894     3.3742 H       
  44 H44          -10.2928    10.3294    -0.8717 H       
  45 H45          -10.7156    10.6845     0.8204 H       
  46 H46           -9.0630    10.9887     0.2333 H       
@<TRIPOS>BOND
   1    1    2 ar
   2    1    6 ar
   3    1    7 1
   4    2    3 ar
   5    2   29 1
   6    3    4 ar
   7    3   30 1
   8    4    5 ar
   9    4   31 1
  10    5    6 ar
  11    5   32 1
  12    7    8 2
  13    7    9 am
  14    9   10 1
  15    9   33 1
  16   10   11 ar
  17   10   15 ar
  18   11   12 ar
  19   11   34 1
  20   12   13 ar
  21   12   28 1
  22   13   14 ar
  23   13   23 1
  24   14   15 ar
  25   14   35 1
  26   15   36 1
  27   16   17 1
  28   16   18 1
  29   16   24 1
  30   16   37 1
  31   17   19 1
  32   17   38 1
  33   17   39 1
  34   18   21 1
  35   18   22 am
  36   19   20 1
  37   19   27 1
  38   20   21 1
  39   20   40 1
  40   20   41 1
  41   21   42 1
  42   21   43 1
  43   22   23 am
  44   22   25 2
  45   23   24 am
  46   24   26 2
  47   27   44 1
  48   27   45 1
  49   27   46 1

#	End of record

