#	Name: ASD03331532
#	Creating user name:	WinNT
#	Creation time:	15. 06. 2019 20:39

#	Modifying user name:	WinNT
#	Modification time:	15. 06. 2019 20:39

#	Program:	/corina/corina34_cracker 3.40 0067  02.08.2006

@<TRIPOS>MOLECULE
ASD03331532
  62   65    0    0    0
SMALL
NO_CHARGES


@<TRIPOS>ATOM
   1 C1             1.5892     1.6070    -0.6541 C.ar    
   2 C2             1.7522     0.2405    -0.5613 C.ar    
   3 C3             0.6344    -0.5890    -0.4627 C.ar    
   4 C4            -0.6444    -0.0313    -0.4584 C.ar    
   5 C5            -0.7977     1.3383    -0.5518 C.ar    
   6 C6             0.3180     2.1578    -0.6496 C.ar    
   7 C7             0.8049    -2.0550    -0.3635 C.2     
   8 N8             1.9210    -2.7535    -0.7267 N.pl3   
   9 C9             1.6701    -4.0682    -0.4918 C.2     
  10 C10            0.4129    -4.1523     0.0251 C.2     
  11 N11           -0.0888    -2.8999     0.0934 N.2     
  12 C12            3.1661    -2.1934    -1.2597 C.3     
  13 C13            3.8576    -3.2365    -2.1404 C.3     
  14 C14            4.7918    -4.0963    -1.2904 C.3     
  15 C15            4.0022    -4.8487    -0.2239 C.3     
  16 C16            2.6165    -5.2060    -0.7705 C.3     
  17 C17           -0.2752    -5.3876     0.4399 C.2     
  18 O18            0.2857    -6.4615     0.3325 O.2     
  19 N19           -1.5260    -5.3275     0.9383 N.am    
  20 F20            0.1640     3.4968    -0.7412 F       
  21 F21           -2.0351     1.8806    -0.5478 F       
  22 C22           -2.2100    -6.5556     1.3507 C.3     
  23 C23           -3.7010    -6.3485     1.2788 C.2     
  24 C24           -2.1074    -5.7126     3.7004 C.3     
  25 N25           -4.5165    -7.3963     1.0474 N.am    
  26 O26           -4.1670    -5.2390     1.4292 O.2     
  27 C27           -1.8120    -6.9035     2.7865 C.3     
  28 C28           -2.6133    -8.1189     3.2575 C.3     
  29 C29           -0.3175    -7.2271     2.8373 C.3     
  30 C30           -5.9547    -7.1802     0.8712 C.3     
  31 C31           -6.7318    -8.2215     0.0632 C.3     
  32 C32           -6.9062    -8.1452     1.5813 C.3     
  33 H33            2.4545     2.2493    -0.7260 H       
  34 H34            2.7440    -0.1870    -0.5653 H       
  35 H35           -1.5126    -0.6691    -0.3826 H       
  36 H36            2.9412    -1.3076    -1.8538 H       
  37 H37            3.8243    -1.9204    -0.4348 H       
  38 H38            3.1054    -3.8721    -2.6076 H       
  39 H39            4.4349    -2.7314    -2.9148 H       
  40 H40            5.3047    -4.8132    -1.9316 H       
  41 H41            5.5304    -3.4566    -0.8075 H       
  42 H42            4.5333    -5.7619     0.0446 H       
  43 H43            3.8931    -4.2190     0.6591 H       
  44 H44            2.2537    -6.1102    -0.2817 H       
  45 H45            2.6805    -5.3719    -1.8459 H       
  46 H46           -1.9732    -4.4710     1.0240 H       
  47 H47           -1.9240    -7.3713     0.6866 H       
  48 H48           -3.1721    -5.4821     3.6642 H       
  49 H49           -1.8239    -5.9605     4.7233 H       
  50 H50           -1.5366    -4.8468     3.3648 H       
  51 H51           -4.1511    -8.2935     0.9975 H       
  52 H52           -2.3610    -8.9816     2.6408 H       
  53 H53           -2.3706    -8.3329     4.2984 H       
  54 H54           -3.6790    -7.9081     3.1688 H       
  55 H55            0.2533    -6.3613     2.5017 H       
  56 H56           -0.0340    -7.4750     3.8602 H       
  57 H57           -0.1071    -8.0756     2.1862 H       
  58 H58           -6.2664    -6.1395     0.7828 H       
  59 H59           -7.5549    -7.8658    -0.5565 H       
  60 H60           -6.1729    -9.0673    -0.3373 H       
  61 H61           -6.4622    -8.9409     2.1796 H       
  62 H62           -7.8442    -7.7394     1.9604 H       
@<TRIPOS>BOND
   1    1    2 ar
   2    1    6 ar
   3    1   33 1
   4    2    3 ar
   5    2   34 1
   6    3    4 ar
   7    3    7 1
   8    4    5 ar
   9    4   35 1
  10    5    6 ar
  11    5   21 1
  12    6   20 1
  13    7    8 1
  14    7   11 2
  15    8    9 1
  16    8   12 1
  17    9   10 2
  18    9   16 1
  19   10   11 1
  20   10   17 1
  21   12   13 1
  22   12   36 1
  23   12   37 1
  24   13   14 1
  25   13   38 1
  26   13   39 1
  27   14   15 1
  28   14   40 1
  29   14   41 1
  30   15   16 1
  31   15   42 1
  32   15   43 1
  33   16   44 1
  34   16   45 1
  35   17   18 2
  36   17   19 am
  37   19   22 1
  38   19   46 1
  39   22   27 1
  40   22   23 1
  41   22   47 1
  42   23   25 am
  43   23   26 2
  44   24   27 1
  45   24   48 1
  46   24   49 1
  47   24   50 1
  48   25   30 1
  49   25   51 1
  50   27   28 1
  51   27   29 1
  52   28   52 1
  53   28   53 1
  54   28   54 1
  55   29   55 1
  56   29   56 1
  57   29   57 1
  58   30   31 1
  59   30   32 1
  60   30   58 1
  61   31   32 1
  62   31   59 1
  63   31   60 1
  64   32   61 1
  65   32   62 1

#	End of record

