#	Name: ASD03091025
#	Creating user name:	WinNT
#	Creation time:	15. 06. 2019 20:29

#	Modifying user name:	WinNT
#	Modification time:	15. 06. 2019 20:29

#	Program:	/corina/corina34_cracker 3.40 0067  02.08.2006

@<TRIPOS>MOLECULE
ASD03091025
  30   32    0    0    0
SMALL
NO_CHARGES


@<TRIPOS>ATOM
   1 C1            -0.0295     1.4590     0.0275 C.3     
   2 O2            -0.0281     0.0302     0.0068 O.3     
   3 S3             2.6221     1.7382     1.2629 S.3     
   4 C4             3.8798     2.6306     0.3866 C.2     
   5 N5             3.2796     3.0282    -0.7792 N.pl3   
   6 C6             1.9747     2.6637    -0.9497 C.2     
   7 C7             1.3906     1.9630     0.0077 C.2     
   8 O8             5.9883     5.9569    -4.6190 O.3     
   9 C9             7.1224     6.7167    -4.1873 C.3     
  10 C10            7.9861     5.8216    -3.2883 C.3     
  11 O11            7.1923     5.4111    -2.1697 O.3     
  12 C12            5.9351     4.9659    -2.4419 C.ar    
  13 C13            5.3324     5.2400    -3.6646 C.ar    
  14 C14            5.2532     4.2304    -1.4853 C.ar    
  15 C15            3.9695     3.7715    -1.7470 C.ar    
  16 C16            3.3692     4.0495    -2.9673 C.ar    
  17 C17            4.0494     4.7810    -3.9220 C.ar    
  18 F18            8.4068     4.6971    -4.0064 F       
  19 F19            9.0998     6.5390    -2.8385 F       
  20 F20            7.8663     7.1269    -5.2989 F       
  21 F21            6.6936     7.8362    -3.4663 F       
  22 N22            5.1114     2.8592     0.7697 N.2     
  23 H23           -0.5605     1.8346    -0.8472 H       
  24 H24           -0.5266     1.8088     0.9322 H       
  25 H25           -0.9110    -0.3642     0.0179 H       
  26 H26            1.4340     2.9405    -1.8427 H       
  27 H27            5.7202     4.0153    -0.5356 H       
  28 H28            2.3701     3.6935    -3.1709 H       
  29 H29            3.5806     4.9961    -4.8708 H       
  30 H30            5.4239     2.5231     1.6243 H       
@<TRIPOS>BOND
   1    1    2 1
   2    1    7 1
   3    1   23 1
   4    1   24 1
   5    2   25 1
   6    3    4 1
   7    3    7 1
   8    4    5 1
   9    4   22 2
  10    5    6 1
  11    5   15 1
  12    6    7 2
  13    6   26 1
  14    8    9 1
  15    8   13 1
  16    9   10 1
  17    9   20 1
  18    9   21 1
  19   10   11 1
  20   10   18 1
  21   10   19 1
  22   11   12 1
  23   12   13 ar
  24   12   14 ar
  25   13   17 ar
  26   14   15 ar
  27   14   27 1
  28   15   16 ar
  29   16   17 ar
  30   16   28 1
  31   17   29 1
  32   22   30 1

#	End of record

