#	Name: ASD02508404
#	Creating user name:	WinNT
#	Creation time:	15. 06. 2019 20:24

#	Modifying user name:	WinNT
#	Modification time:	15. 06. 2019 20:24

#	Program:	/corina/corina34_cracker 3.40 0067  02.08.2006

@<TRIPOS>MOLECULE
ASD02508404
  36   38    0    0    0
SMALL
NO_CHARGES


@<TRIPOS>ATOM
   1 N1            -0.2077     1.6926     0.3019 N.2     
   2 C2            -0.1694     0.3588     0.4404 C.2     
   3 C3             1.1191    -0.0303     0.4127 C.2     
   4 N4             1.8732     1.1043     0.2530 N.pl3   
   5 C5             1.0087     2.1511     0.1888 C.2     
   6 C6             3.2679     1.1714     0.1720 C.ar    
   7 C7             3.9618     2.0734     0.9711 C.ar    
   8 N8             3.9151     0.3724    -0.6601 N.ar    
   9 C9             5.2296     0.4025    -0.7674 C.ar    
  10 C10            5.9826     1.2767    -0.0085 C.ar    
  11 C11            5.3428     2.1288     0.8809 C.ar    
  12 S12            1.7212    -1.6801     0.5545 S.o2    
  13 O13            1.6694    -2.2397    -0.7507 O.2     
  14 O14            2.9149    -1.6071     1.3219 O.2     
  15 N15            0.6283    -2.5239     1.4688 N.am    
  16 C16            0.3800    -2.1421     2.7891 C.ar    
  17 C17           -0.9247    -2.0783     3.2609 C.ar    
  18 C18           -1.1685    -1.6998     4.5690 C.ar    
  19 C19           -0.1127    -1.3842     5.4076 C.ar    
  20 C20            1.1889    -1.4467     4.9392 C.ar    
  21 C21            1.4376    -1.8311     3.6338 C.ar    
  22 F22            2.2170    -1.1378     5.7595 F       
  23 Cl23           3.1088     3.1160     2.0661 Cl      
  24 F24           -2.4374    -1.6376     5.0284 F       
  25 C25            7.4836     1.3010    -0.1402 C.3     
  26 F26            7.8839     0.3534    -1.0884 F       
  27 F27            7.8952     2.5737    -0.5502 F       
  28 F28            8.0651     0.9984     1.0958 F       
  29 H29           -1.0246    -0.2907     0.5548 H       
  30 H30            1.2826     3.1883     0.0643 H       
  31 H31            5.7234    -0.2654    -1.4577 H       
  32 H32            5.9085     2.8218     1.4860 H       
  33 H33            0.1607    -3.2833     1.0874 H       
  34 H34           -1.7485    -2.3236     2.6069 H       
  35 H35           -0.3048    -1.0885     6.4285 H       
  36 H36            2.4530    -1.8800     3.2690 H       
@<TRIPOS>BOND
   1    1    2 1
   2    1    5 2
   3    2    3 2
   4    2   29 1
   5    3    4 1
   6    3   12 1
   7    4    5 1
   8    4    6 1
   9    5   30 1
  10    6    7 ar
  11    6    8 ar
  12    7   23 1
  13    7   11 ar
  14    8    9 ar
  15    9   10 ar
  16    9   31 1
  17   10   11 ar
  18   10   25 1
  19   11   32 1
  20   12   13 2
  21   12   14 2
  22   12   15 am
  23   15   16 1
  24   15   33 1
  25   16   17 ar
  26   16   21 ar
  27   17   18 ar
  28   17   34 1
  29   18   19 ar
  30   18   24 1
  31   19   20 ar
  32   19   35 1
  33   20   21 ar
  34   20   22 1
  35   21   36 1
  36   25   26 1
  37   25   27 1
  38   25   28 1

#	End of record

