#	Name: ASD01915860
#	Creating user name:	WinNT
#	Creation time:	15. 06. 2019 20:06

#	Modifying user name:	WinNT
#	Modification time:	15. 06. 2019 20:06

#	Program:	/corina/corina34_cracker 3.40 0067  02.08.2006

@<TRIPOS>MOLECULE
ASD01915860
  43   47    0    0    0
SMALL
NO_CHARGES


@<TRIPOS>ATOM
   1 C1            -0.0042     1.4690     0.2359 C.2     
   2 N2             0.0665     0.1199    -0.0302 N.pl3   
   3 C3            -1.1423    -0.6629    -0.3142 C.3     
   4 C4            -2.3278    -0.0488     0.4283 C.3     
   5 N5            -2.4045     1.3987     0.2637 N.am    
   6 C6            -1.2937     2.1744     0.2874 C.2     
   7 C7             1.2761     1.9064     0.4278 C.2     
   8 C8             2.0759     0.7658     0.2749 C.2     
   9 N9             1.2868    -0.2494     0.0109 N.2     
  10 C10            3.5775     0.7141     0.3925 C.3     
  11 O11            4.0774     2.0198     0.6878 O.3     
  12 C12            5.4231     2.1483     0.8270 C.ar    
  13 O13           -1.3594     3.3876     0.3479 O.2     
  14 C14            5.9768     3.3875     1.1140 C.ar    
  15 C15            6.2451     1.0393     0.6879 C.ar    
  16 C16            7.6127     1.1726     0.8298 C.ar    
  17 C17            8.1626     2.4098     1.1102 C.ar    
  18 C18            7.3451     3.5155     1.2549 C.ar    
  19 C19           -3.6548     2.0005     0.0765 C.ar    
  20 C20           -4.5857     1.9994     1.1141 C.ar    
  21 C21           -5.8152     2.5889     0.9356 C.ar    
  22 C22           -6.1353     3.1892    -0.2807 C.ar    
  23 C23           -5.2116     3.1988    -1.3314 C.ar    
  24 C24           -3.9543     2.5944    -1.1302 C.ar    
  25 S25           -7.5906     4.0162    -0.8286 S.3     
  26 C26           -6.8843     4.3002    -2.3558 C.2     
  27 N27           -5.6993     3.8223    -2.4211 N.2     
  28 H28           -1.3392    -0.6521    -1.3863 H       
  29 H29           -0.9970    -1.6905     0.0191 H       
  30 H30           -3.2484    -0.4952     0.0523 H       
  31 H31           -2.2356    -0.2781     1.4899 H       
  32 H32            1.6010     2.9123     0.6489 H       
  33 H33            3.8558     0.0288     1.1931 H       
  34 H34            4.0038     0.3660    -0.5484 H       
  35 H35            5.3387     4.2515     1.2267 H       
  36 H36            5.8160     0.0726     0.4692 H       
  37 H37            8.2530     0.3095     0.7220 H       
  38 H38            9.2320     2.5119     1.2208 H       
  39 H39            7.7770     4.4809     1.4736 H       
  40 H40           -4.3413     1.5353     2.0581 H       
  41 H41           -6.5353     2.5864     1.7406 H       
  42 H42           -3.2256     2.5903    -1.9273 H       
  43 H43           -7.3762     4.8181    -3.1659 H       
@<TRIPOS>BOND
   1    1    2 1
   2    1    7 2
   3    1    6 1
   4    2    3 1
   5    2    9 1
   6    3    4 1
   7    3   28 1
   8    3   29 1
   9    4    5 1
  10    4   30 1
  11    4   31 1
  12    5    6 am
  13    5   19 1
  14    6   13 2
  15    7    8 1
  16    7   32 1
  17    8    9 2
  18    8   10 1
  19   10   11 1
  20   10   33 1
  21   10   34 1
  22   11   12 1
  23   12   14 ar
  24   12   15 ar
  25   14   18 ar
  26   14   35 1
  27   15   16 ar
  28   15   36 1
  29   16   17 ar
  30   16   37 1
  31   17   18 ar
  32   17   38 1
  33   18   39 1
  34   19   20 ar
  35   19   24 ar
  36   20   21 ar
  37   20   40 1
  38   21   22 ar
  39   21   41 1
  40   22   23 ar
  41   22   25 1
  42   23   24 ar
  43   23   27 1
  44   24   42 1
  45   25   26 1
  46   26   27 2
  47   26   43 1

#	End of record

