#	Name: ASD01148141
#	Creating user name:	WinNT
#	Creation time:	15. 06. 2019 19:02

#	Modifying user name:	WinNT
#	Modification time:	15. 06. 2019 19:02

#	Program:	/corina/corina34_cracker 3.40 0067  02.08.2006

@<TRIPOS>MOLECULE
ASD01148141
  58   61    0    0    0
SMALL
NO_CHARGES


@<TRIPOS>ATOM
   1 C1            -0.0153     1.3321     0.1145 C.ar    
   2 C2            -0.0096    -0.0582     0.0369 C.ar    
   3 N3            -1.1285    -0.7491    -0.0113 N.ar    
   4 C4            -2.3176    -0.1598     0.0119 C.ar    
   5 C5            -2.3999     1.2417     0.0899 C.ar    
   6 C6            -1.2313     2.0030     0.1473 C.ar    
   7 N7            -3.4680    -0.9148    -0.0407 N.pl3   
   8 C8            -4.6942    -0.3756    -0.0211 C.2     
   9 C9            -4.8996     0.9862     0.0537 C.2     
  10 C10           -3.7293     1.8769     0.1145 C.2     
  11 C11           -6.2633     1.5384     0.0723 C.2     
  12 N12           -6.9940     1.4914     1.2039 N.am    
  13 C13           -8.3138     2.1254     1.2504 C.3     
  14 O14           -6.7313     2.0373    -0.9335 O.2     
  15 O15           -3.8545     3.0872     0.1818 O.2     
  16 C16           -3.3455    -2.3724    -0.1220 C.3     
  17 N17            1.1881     2.0437     0.1645 N.pl3   
  18 C18            2.4651     1.3263     0.1354 C.3     
  19 C19            3.5893     2.2293    -0.4152 C.3     
  20 C20            4.8270     1.8412     0.3649 C.ar    
  21 C21            4.4632     1.1474     1.5036 C.ar    
  22 C22            2.9561     1.0218     1.5667 C.3     
  23 C23            6.1658     2.0768     0.0995 C.ar    
  24 C24            7.1374     1.6206     0.9685 C.ar    
  25 C25            6.7734     0.9266     2.1075 C.ar    
  26 C26            5.4390     0.6910     2.3741 C.ar    
  27 C27           -3.3152    -2.9612     1.2898 C.3     
  28 C28           -6.4683     0.8062     2.3873 C.3     
  29 C29           -5.6782     1.7989     3.2424 C.3     
  30 C30           -9.3661     1.1527     0.7141 C.3     
  31 H31            0.9349    -0.5815     0.0154 H       
  32 H32           -1.2712     3.0806     0.2076 H       
  33 H33           -5.5520    -1.0303    -0.0658 H       
  34 H34           -8.5542     2.3890     2.2804 H       
  35 H35           -8.3059     3.0265     0.6372 H       
  36 H36           -4.1976    -2.7787    -0.6670 H       
  37 H37           -2.4240    -2.6310    -0.6434 H       
  38 H38            1.1770     3.0121     0.2185 H       
  39 H39            2.3805     0.4116    -0.4513 H       
  40 H40            3.7382     2.0420    -1.4786 H       
  41 H41            3.3488     3.2788    -0.2453 H       
  42 H42            2.5452     1.7464     2.2697 H       
  43 H43            2.6726     0.0099     1.8565 H       
  44 H44            6.4508     2.6189    -0.7901 H       
  45 H45            8.1805     1.8054     0.7583 H       
  46 H46            7.5319     0.5689     2.7880 H       
  47 H47            5.1555     0.1488     3.2640 H       
  48 H48           -3.2241    -4.0457     1.2293 H       
  49 H49           -2.4632    -2.5548     1.8347 H       
  50 H50           -4.2368    -2.7026     1.8112 H       
  51 H51           -7.2957     0.4022     2.9707 H       
  52 H52           -5.8127    -0.0067     2.0752 H       
  53 H53           -5.2871     1.2891     4.1229 H       
  54 H54           -4.8509     2.2030     2.6590 H       
  55 H55           -6.3339     2.6119     3.5545 H       
  56 H56           -9.1257     0.8891    -0.3159 H       
  57 H57           -9.3740     0.2516     1.3273 H       
  58 H58          -10.3481     1.6245     0.7487 H       
@<TRIPOS>BOND
   1    1    2 ar
   2    1   17 1
   3    1    6 ar
   4    2    3 ar
   5    2   31 1
   6    3    4 ar
   7    4    5 ar
   8    4    7 1
   9    5    6 ar
  10    5   10 1
  11    6   32 1
  12    7    8 1
  13    7   16 1
  14    8    9 2
  15    8   33 1
  16    9   10 1
  17    9   11 1
  18   10   15 2
  19   11   12 am
  20   11   14 2
  21   12   13 1
  22   12   28 1
  23   13   30 1
  24   13   34 1
  25   13   35 1
  26   16   27 1
  27   16   36 1
  28   16   37 1
  29   17   18 1
  30   17   38 1
  31   18   19 1
  32   18   22 1
  33   18   39 1
  34   19   20 1
  35   19   40 1
  36   19   41 1
  37   20   21 ar
  38   20   23 ar
  39   21   22 1
  40   21   26 ar
  41   22   42 1
  42   22   43 1
  43   23   24 ar
  44   23   44 1
  45   24   25 ar
  46   24   45 1
  47   25   26 ar
  48   25   46 1
  49   26   47 1
  50   27   48 1
  51   27   49 1
  52   27   50 1
  53   28   29 1
  54   28   51 1
  55   28   52 1
  56   29   53 1
  57   29   54 1
  58   29   55 1
  59   30   56 1
  60   30   57 1
  61   30   58 1

#	End of record

