#	Name: ASD03090835
#	Creating user name:	WinNT
#	Creation time:	15. 06. 2019 20:29

#	Modifying user name:	WinNT
#	Modification time:	15. 06. 2019 20:29

#	Program:	/corina/corina34_cracker 3.40 0067  02.08.2006

@<TRIPOS>MOLECULE
ASD03090835
  46   49    0    0    0
SMALL
NO_CHARGES


@<TRIPOS>ATOM
   1 N1             0.2365     0.8403    -0.1754 N.am    
   2 C2             0.1338    -0.5025    -0.1230 C.2     
   3 O3             1.1328    -1.1943    -0.2188 O.2     
   4 N4            -1.0628    -1.0753     0.0340 N.2     
   5 C5             1.4971     1.4436    -0.2348 C.ar    
   6 C6             2.3860     1.1001    -1.2452 C.ar    
   7 C7             3.6297     1.6980    -1.3013 C.ar    
   8 C8             3.9905     2.6372    -0.3527 C.ar    
   9 C9             3.1079     2.9810     0.6549 C.ar    
  10 C10            1.8604     2.3915     0.7130 C.ar    
  11 S11            0.1169    -3.5465    -0.0288 S.3     
  12 C12           -1.1642    -2.4014     0.0857 C.2     
  13 N13           -2.2984    -3.1302     0.2401 N.pl3   
  14 C14           -2.1617    -4.4847     0.2653 C.2     
  15 C15           -0.9320    -4.9650     0.1366 C.2     
  16 O16           -7.2408    -0.6876     0.7555 O.3     
  17 C17           -8.3947    -1.4579     0.4023 C.3     
  18 C18           -8.2590    -2.8469     1.0408 C.3     
  19 O19           -7.0657    -3.4568     0.5370 O.3     
  20 C20           -5.9447    -2.6848     0.5187 C.ar    
  21 C21           -6.0319    -1.3012     0.6253 C.ar    
  22 C22           -4.7048    -3.2909     0.3914 C.ar    
  23 C23           -3.5527    -2.5170     0.3681 C.ar    
  24 C24           -3.6431    -1.1358     0.4721 C.ar    
  25 C25           -4.8787    -0.5313     0.6004 C.ar    
  26 F26           -8.1735    -2.7206     2.4314 F       
  27 F27           -9.3678    -3.6311     0.7047 F       
  28 F28           -9.5477    -0.8282     0.8833 F       
  29 F29           -8.4704    -1.5835    -0.9890 F       
  30 C30           -0.5147    -6.4131     0.1313 C.3     
  31 C31           -0.9723     1.6679    -0.1762 C.3     
  32 H32            2.1051     0.3661    -1.9859 H       
  33 H33            4.3214     1.4313    -2.0867 H       
  34 H34            4.9638     3.1030    -0.3986 H       
  35 H35            3.3930     3.7144     1.3946 H       
  36 H36            1.1697     2.6639     1.4974 H       
  37 H37           -3.0140    -5.1370     0.3849 H       
  38 H38           -4.6350    -4.3655     0.3104 H       
  39 H39           -2.7469    -0.5334     0.4530 H       
  40 H40           -4.9468     0.5436     0.6812 H       
  41 H41            0.5662    -6.4793     0.0072 H       
  42 H42           -0.8012    -6.8773     1.0750 H       
  43 H43           -1.0073    -6.9301    -0.6922 H       
  44 H44           -1.2467     1.9113     0.8502 H       
  45 H45           -0.7826     2.5878    -0.7294 H       
  46 H46           -1.7871     1.1205    -0.6500 H       
@<TRIPOS>BOND
   1    1    2 am
   2    1    5 1
   3    1   31 1
   4    2    3 2
   5    2    4 1
   6    4   12 2
   7    5    6 ar
   8    5   10 ar
   9    6    7 ar
  10    6   32 1
  11    7    8 ar
  12    7   33 1
  13    8    9 ar
  14    8   34 1
  15    9   10 ar
  16    9   35 1
  17   10   36 1
  18   11   12 1
  19   11   15 1
  20   12   13 1
  21   13   14 1
  22   13   23 1
  23   14   15 2
  24   14   37 1
  25   15   30 1
  26   16   17 1
  27   16   21 1
  28   17   18 1
  29   17   28 1
  30   17   29 1
  31   18   19 1
  32   18   26 1
  33   18   27 1
  34   19   20 1
  35   20   21 ar
  36   20   22 ar
  37   21   25 ar
  38   22   23 ar
  39   22   38 1
  40   23   24 ar
  41   24   25 ar
  42   24   39 1
  43   25   40 1
  44   30   41 1
  45   30   42 1
  46   30   43 1
  47   31   44 1
  48   31   45 1
  49   31   46 1

#	End of record

