#	Name: ASD01813553
#	Creating user name:	WinNT
#	Creation time:	15. 06. 2019 19:30

#	Modifying user name:	WinNT
#	Modification time:	15. 06. 2019 19:30

#	Program:	/corina/corina34_cracker 3.40 0067  02.08.2006

@<TRIPOS>MOLECULE
ASD01813553
  58   62    0    0    0
SMALL
NO_CHARGES


@<TRIPOS>ATOM
   1 C1            -2.7184     1.6153    -0.0980 C.3     
   2 O2            -2.3996     0.2235    -0.0402 O.3     
   3 C3            -1.4880    -0.2372    -0.9333 C.ar    
   4 C4            -1.1410    -1.5819    -0.9303 C.ar    
   5 C5            -0.2097    -2.0392    -1.8466 C.ar    
   6 C6             0.3438    -1.1304    -2.7375 C.ar    
   7 C7             1.3612    -1.5826    -3.7532 C.3     
   8 C8             0.6564    -2.0043    -5.0167 C.ar    
   9 C9             0.3471    -3.3109    -5.2149 C.ar    
  10 C10           -0.3083    -3.7223    -6.3860 C.ar    
  11 C11           -0.6291    -5.1446    -6.6163 C.2     
  12 O12           -0.5520    -5.9609    -5.7180 O.2     
  13 N13           -1.0121    -5.5079    -7.8613 N.am    
  14 C14           -0.9515    -4.5288    -8.9477 C.3     
  15 N15           -1.3639    -3.2037    -8.4838 N.3     
  16 C16           -1.2508    -2.2103    -9.5601 C.3     
  17 C17           -0.6803    -2.7930    -7.3584 C.ar    
  18 C18           -0.3536    -1.4305    -7.1699 C.ar    
  19 N19           -0.6716    -0.5151    -8.0877 N.ar    
  20 C20           -0.3731     0.7507    -7.9218 C.ar    
  21 C21            0.2894     1.2020    -6.7826 C.ar    
  22 C22            0.6434     0.3161    -5.8045 C.ar    
  23 C23            0.3157    -1.0407    -5.9852 C.ar    
  24 C24           -1.4835    -6.8705    -8.1207 C.3     
  25 H25           -1.7449    -6.9716    -9.1741 H       
  26 C26           -0.3782    -7.8709    -7.7687 C.3     
  27 C27           -0.9063    -9.2939    -7.9679 C.3     
  28 O28           -2.0680    -9.4872    -7.1584 O.3     
  29 C29           -3.1517    -8.6110    -7.4746 C.3     
  30 C30           -2.7152    -7.1597    -7.2572 C.3     
  31 H31           -2.4671    -7.0088    -6.2066 H       
  32 O32           -3.7771    -6.2789    -7.6296 O.3     
  33 C33           -0.0480     0.1927    -2.6836 C.ar    
  34 N34           -0.9422     0.5977    -1.8021 N.ar    
  35 H35           -1.8163     2.2022     0.0750 H       
  36 H36           -3.1245     1.8545    -1.0809 H       
  37 H37           -3.4576     1.8508     0.6676 H       
  38 H38           -1.5915    -2.2617    -0.2222 H       
  39 H39            0.0798    -3.0795    -1.8675 H       
  40 H40            2.0434    -0.7618    -3.9743 H       
  41 H41            1.9245    -2.4255    -3.3527 H       
  42 H42            0.6083    -4.0418    -4.4638 H       
  43 H43            0.0701    -4.4745    -9.3239 H       
  44 H44           -1.6123    -4.8474    -9.7539 H       
  45 H45           -1.6124    -2.6427   -10.4931 H       
  46 H46           -1.8487    -1.3340    -9.3101 H       
  47 H47           -0.2073    -1.9172    -9.6759 H       
  48 H48           -0.6473     1.4611    -8.6876 H       
  49 H49            0.5232     2.2507    -6.6728 H       
  50 H50            1.1580     0.6485    -4.9151 H       
  51 H51            0.4816    -7.7071    -8.4182 H       
  52 H52           -0.0814    -7.7347    -6.7287 H       
  53 H53           -1.1649    -9.4422    -9.0163 H       
  54 H54           -0.1379   -10.0107    -7.6780 H       
  55 H55           -3.4398    -8.7504    -8.5165 H       
  56 H56           -4.0010    -8.8358    -6.8293 H       
  57 H57           -4.5902    -6.4065    -7.1221 H       
  58 H58            0.3797     0.9040    -3.3746 H       
@<TRIPOS>BOND
   1    1    2 1
   2    1   35 1
   3    1   36 1
   4    1   37 1
   5    2    3 1
   6    3   34 ar
   7    3    4 ar
   8    4    5 ar
   9    4   38 1
  10    5    6 ar
  11    5   39 1
  12    6    7 1
  13    6   33 ar
  14    7    8 1
  15    7   40 1
  16    7   41 1
  17    8   23 ar
  18    8    9 ar
  19    9   10 ar
  20    9   42 1
  21   10   17 ar
  22   10   11 1
  23   11   12 2
  24   11   13 am
  25   13   14 1
  26   13   24 1
  27   14   15 1
  28   14   43 1
  29   14   44 1
  30   15   16 1
  31   15   17 1
  32   16   45 1
  33   16   46 1
  34   16   47 1
  35   17   18 ar
  36   18   23 ar
  37   18   19 ar
  38   19   20 ar
  39   20   21 ar
  40   20   48 1
  41   21   22 ar
  42   21   49 1
  43   22   23 ar
  44   22   50 1
  45   24   25 1
  46   24   30 1
  47   24   26 1
  48   26   27 1
  49   26   51 1
  50   26   52 1
  51   27   28 1
  52   27   53 1
  53   27   54 1
  54   28   29 1
  55   29   30 1
  56   29   55 1
  57   29   56 1
  58   30   31 1
  59   30   32 1
  60   32   57 1
  61   33   34 ar
  62   33   58 1

#	End of record

