#	Name: ASD01901594
#	Creating user name:	WinNT
#	Creation time:	15. 06. 2019 19:54

#	Modifying user name:	WinNT
#	Modification time:	15. 06. 2019 19:54

#	Program:	/corina/corina34_cracker 3.40 0067  02.08.2006

@<TRIPOS>MOLECULE
ASD01901594
  48   52    0    0    0
SMALL
NO_CHARGES


@<TRIPOS>ATOM
   1 F1             0.0532     1.4792     5.9292 F       
   2 C2             0.2771     1.8378     4.5956 C.3     
   3 F3             0.2224     0.6952     3.7902 F       
   4 C4            -0.7986     2.8296     4.1468 C.3     
   5 C5            -0.5705     3.1933     2.6763 C.3     
   6 N6             0.8056     3.6832     2.5182 N.am    
   7 C7             1.9131     2.8464     3.0000 C.3     
   8 C8             1.6572     2.4866     4.4669 C.3     
   9 C9             1.0475     4.8772     1.9418 C.2     
  10 O10            0.1317     5.5186     1.4652 O.2     
  11 C11            2.4279     5.4073     1.8892 C.ar    
  12 N12            3.2942     4.9178     1.0186 N.ar    
  13 C13            4.5380     5.3532     0.9276 C.ar    
  14 C14            5.0182     6.3463     1.7332 C.ar    
  15 C15            4.1593     6.9211     2.6874 C.ar    
  16 C16            4.5798     7.9435     3.5477 C.ar    
  17 C17            3.6883     8.4660     4.4621 C.ar    
  18 N18            4.0990     9.4843     5.3222 N.pl3   
  19 C19            3.4627     9.6573     6.5540 C.2     
  20 N20            2.5481     8.8777     7.0674 N.2     
  21 N21            2.1453     9.3676     8.3135 N.pl3   
  22 H22            1.4773     8.9603     8.8869 H       
  23 C23            2.8405    10.5112     8.5976 C.ar    
  24 N24            2.8386    11.3502     9.6266 N.ar    
  25 C25            3.6249    12.4044     9.6543 C.ar    
  26 C26            4.4930    12.6909     8.6108 C.ar    
  27 C27            4.5398    11.8607     7.5205 C.ar    
  28 C28            3.7033    10.7408     7.5074 C.ar    
  29 C29            2.3749     7.9846     4.5349 C.ar    
  30 C30            1.9456     6.9922     3.7090 C.ar    
  31 C31            2.8241     6.4428     2.7653 C.ar    
  32 H32           -1.7827     2.3751     4.2608 H       
  33 H33           -0.7404     3.7305     4.7576 H       
  34 H34           -0.7178     2.3103     2.0544 H       
  35 H35           -1.2723     3.9728     2.3796 H       
  36 H36            1.9684     1.9351     2.4045 H       
  37 H37            2.8500     3.3971     2.9169 H       
  38 H38            1.6922     3.3907     5.0747 H       
  39 H39            2.4209     1.7881     4.8087 H       
  40 H40            5.1954     4.9102     0.1942 H       
  41 H41            6.0398     6.6841     1.6393 H       
  42 H42            5.5912     8.3187     3.4960 H       
  43 H43            4.8264    10.0723     5.0653 H       
  44 H44            3.5936    13.0629    10.5098 H       
  45 H45            5.1282    13.5631     8.6568 H       
  46 H46            5.2076    12.0642     6.6965 H       
  47 H47            1.6929     8.4072     5.2579 H       
  48 H48            0.9299     6.6317     3.7778 H       
@<TRIPOS>BOND
   1    1    2 1
   2    2    8 1
   3    2    3 1
   4    2    4 1
   5    4    5 1
   6    4   32 1
   7    4   33 1
   8    5    6 1
   9    5   34 1
  10    5   35 1
  11    6    7 1
  12    6    9 am
  13    7    8 1
  14    7   36 1
  15    7   37 1
  16    8   38 1
  17    8   39 1
  18    9   10 2
  19    9   11 1
  20   11   31 ar
  21   11   12 ar
  22   12   13 ar
  23   13   14 ar
  24   13   40 1
  25   14   15 ar
  26   14   41 1
  27   15   31 ar
  28   15   16 ar
  29   16   17 ar
  30   16   42 1
  31   17   18 1
  32   17   29 ar
  33   18   19 1
  34   18   43 1
  35   19   28 1
  36   19   20 2
  37   20   21 1
  38   21   22 1
  39   21   23 1
  40   23   28 ar
  41   23   24 ar
  42   24   25 ar
  43   25   26 ar
  44   25   44 1
  45   26   27 ar
  46   26   45 1
  47   27   28 ar
  48   27   46 1
  49   29   30 ar
  50   29   47 1
  51   30   31 ar
  52   30   48 1

#	End of record

