#	Name: ASD05420018
#	Creating user name:	WinNT
#	Creation time:	15. 06. 2019 20:59

#	Modifying user name:	WinNT
#	Modification time:	15. 06. 2019 20:59

#	Program:	/corina/corina34_cracker 3.40 0067  02.08.2006

@<TRIPOS>MOLECULE
ASD05420018
  31   32    0    0    0
SMALL
NO_CHARGES


@<TRIPOS>ATOM
   1 C1             0.0337     1.4168     0.2677 C.ar    
   2 C2             0.0877     0.0520     0.5173 C.ar    
   3 C3             1.2510    -0.6557     0.2430 C.ar    
   4 C4             2.3562     0.0030    -0.2798 C.ar    
   5 C5             2.3004     1.3619    -0.5271 C.ar    
   6 C6             1.1438     2.0703    -0.2559 C.ar    
   7 N7            -1.1389     2.1330     0.5373 N.3     
   8 N8             1.3094    -2.0317     0.4937 N.pl3   
   9 N9             3.5960    -0.7511    -0.5722 N.pl3   
  10 O10            4.6823    -0.2399    -0.3675 O.2     
  11 O11            3.5297    -1.8829    -1.0174 O.2     
  12 C12           -0.8925     3.1949     1.5220 C.3     
  13 C13           -2.1742     3.9422     1.7862 C.ar    
  14 C14           -3.0228     3.5232     2.7939 C.ar    
  15 C15           -4.1983     4.2080     3.0374 C.ar    
  16 C16           -4.5258     5.3141     2.2717 C.ar    
  17 C17           -3.6750     5.7328     1.2627 C.ar    
  18 C18           -2.4976     5.0496     1.0245 C.ar    
  19 F19           -5.6748     5.9841     2.5086 F       
  20 F20            1.0927     3.3981    -0.4997 F       
  21 F21           -0.9888    -0.5862     1.0263 F       
  22 H22            3.1617     1.8715    -0.9331 H       
  23 H23           -1.5349     2.5107    -0.3104 H       
  24 H24            0.5074    -2.5120     0.7523 H       
  25 H25            2.1520    -2.5047     0.4089 H       
  26 H26           -0.5317     2.7527     2.4506 H       
  27 H27           -0.1434     3.8845     1.1329 H       
  28 H28           -2.7673     2.6602     3.3908 H       
  29 H29           -4.8613     3.8803     3.8244 H       
  30 H30           -3.9295     6.5955     0.6648 H       
  31 H31           -1.8319     5.3785     0.2403 H       
@<TRIPOS>BOND
   1    1    2 ar
   2    1    6 ar
   3    1    7 1
   4    2    3 ar
   5    2   21 1
   6    3    4 ar
   7    3    8 1
   8    4    5 ar
   9    4    9 1
  10    5    6 ar
  11    5   22 1
  12    6   20 1
  13    7   12 1
  14    7   23 1
  15    8   24 1
  16    8   25 1
  17    9   10 2
  18    9   11 2
  19   12   13 1
  20   12   26 1
  21   12   27 1
  22   13   14 ar
  23   13   18 ar
  24   14   15 ar
  25   14   28 1
  26   15   16 ar
  27   15   29 1
  28   16   17 ar
  29   16   19 1
  30   17   18 ar
  31   17   30 1
  32   18   31 1

#	End of record

