#	Name: ASD02030623
#	Creating user name:	WinNT
#	Creation time:	15. 06. 2019 20:15

#	Modifying user name:	WinNT
#	Modification time:	15. 06. 2019 20:15

#	Program:	/corina/corina34_cracker 3.40 0067  02.08.2006

@<TRIPOS>MOLECULE
ASD02030623
  64   67    0    0    0
SMALL
NO_CHARGES


@<TRIPOS>ATOM
   1 C1            -0.3850     0.2450    -0.0492 C.ar    
   2 C2            -0.3801    -1.0777     0.3396 C.ar    
   3 C3             0.8085    -1.6713     0.7400 C.ar    
   4 C4             1.9765    -0.9287     0.7507 C.ar    
   5 C5             1.9681     0.4055     0.3647 C.ar    
   6 C6             0.7885     0.9876    -0.0432 C.ar    
   7 C7             0.7149     2.4211    -0.5065 C.3     
   8 C8             3.2709     1.1582     0.4293 C.3     
   9 C9             3.2248     2.4023    -0.4563 C.3     
  10 N10            1.9662     3.1117    -0.1771 N.am    
  11 C11            0.4975     2.4562    -2.0206 C.3     
  12 O12            1.5234     1.7000    -2.6669 O.3     
  13 C13            1.4764     1.6295    -4.0241 C.ar    
  14 C14            1.9637     4.3475     0.3608 C.2     
  15 O15            0.9175     4.9535     0.4866 O.2     
  16 C16            3.2328     4.9658     0.7976 C.ar    
  17 C17            1.3803     1.4856    -6.7869 C.ar    
  18 C18            0.4189     2.2084    -6.0963 C.ar    
  19 C19            0.4666     2.2800    -4.7177 C.ar    
  20 C20            2.4414     0.9119    -4.7150 C.ar    
  21 C21            2.3936     0.8403    -6.0937 C.ar    
  22 C22            3.5553     6.2645     0.3966 C.ar    
  23 C23            4.1126     4.2567     1.6178 C.ar    
  24 C24            5.2951     4.8396     2.0223 C.ar    
  25 C25            5.6116     6.1249     1.6174 C.ar    
  26 C26            4.7434     6.8358     0.8095 C.ar    
  27 O27            1.3333     1.4151    -8.1441 O.3     
  28 C28            2.3554     0.6534    -8.7900 C.3     
  29 C29            2.1386     0.6894   -10.3041 C.3     
  30 O30            0.8257    -2.9759     1.1203 O.3     
  31 C31           -0.4357    -3.6407     1.2147 C.3     
  32 C32           -0.8091    -4.2224    -0.1503 C.3     
  33 C33           -0.3410    -4.7706     2.2420 C.3     
  34 Cl34           2.4663     7.1578    -0.6182 Cl      
  35 H35           -1.3089     0.7064    -0.3654 H       
  36 H36           -1.2967    -1.6488     0.3329 H       
  37 H37            2.9018    -1.3904     1.0621 H       
  38 H38           -0.1167     2.9206    -0.0096 H       
  39 H39            3.4608     1.4585     1.4597 H       
  40 H40            4.0778     0.5077     0.0919 H       
  41 H41            4.0717     3.0493    -0.2275 H       
  42 H42            3.2569     2.1093    -1.5057 H       
  43 H43           -0.4754     2.0258    -2.2580 H       
  44 H44            0.5329     3.4885    -2.3689 H       
  45 H45           -0.3701     2.7108    -6.6361 H       
  46 H46           -0.2824     2.8421    -4.1799 H       
  47 H47            3.2303     0.4094    -4.1752 H       
  48 H48            3.1422     0.2774    -6.6314 H       
  49 H49            3.8674     3.2539     1.9351 H       
  50 H50            5.9759     4.2919     2.6570 H       
  51 H51            6.5390     6.5762     1.9378 H       
  52 H52            4.9946     7.8398     0.5006 H       
  53 H53            3.3305     1.0787    -8.5524 H       
  54 H54            2.3145    -0.3786    -8.4415 H       
  55 H55            1.1635     0.2641   -10.5417 H       
  56 H56            2.1795     1.7214   -10.6525 H       
  57 H57            2.9182     0.1084   -10.7967 H       
  58 H58           -1.1993    -2.9285     1.5274 H       
  59 H59           -0.0455    -4.9346    -0.4629 H       
  60 H60           -1.7713    -4.7295    -0.0782 H       
  61 H61           -0.8766    -3.4174    -0.8821 H       
  62 H62           -0.0750    -4.3563     3.2144 H       
  63 H63           -1.3031    -5.2778     2.3140 H       
  64 H64            0.4226    -5.4829     1.9293 H       
@<TRIPOS>BOND
   1    1    2 ar
   2    1    6 ar
   3    1   35 1
   4    2    3 ar
   5    2   36 1
   6    3    4 ar
   7    3   30 1
   8    4    5 ar
   9    4   37 1
  10    5    6 ar
  11    5    8 1
  12    6    7 1
  13    7   10 1
  14    7   11 1
  15    7   38 1
  16    8    9 1
  17    8   39 1
  18    8   40 1
  19    9   10 1
  20    9   41 1
  21    9   42 1
  22   10   14 am
  23   11   12 1
  24   11   43 1
  25   11   44 1
  26   12   13 1
  27   13   20 ar
  28   13   19 ar
  29   14   15 2
  30   14   16 1
  31   16   23 ar
  32   16   22 ar
  33   17   18 ar
  34   17   21 ar
  35   17   27 1
  36   18   19 ar
  37   18   45 1
  38   19   46 1
  39   20   21 ar
  40   20   47 1
  41   21   48 1
  42   22   26 ar
  43   22   34 1
  44   23   24 ar
  45   23   49 1
  46   24   25 ar
  47   24   50 1
  48   25   26 ar
  49   25   51 1
  50   26   52 1
  51   27   28 1
  52   28   29 1
  53   28   53 1
  54   28   54 1
  55   29   55 1
  56   29   56 1
  57   29   57 1
  58   30   31 1
  59   31   32 1
  60   31   33 1
  61   31   58 1
  62   32   59 1
  63   32   60 1
  64   32   61 1
  65   33   62 1
  66   33   63 1
  67   33   64 1

#	End of record

