#	Name: ASD09910001
#	Creating user name:	WinNT
#	Creation time:	15. 06. 2019 21:24

#	Modifying user name:	WinNT
#	Modification time:	15. 06. 2019 21:24

#	Program:	/corina/corina34_cracker 3.40 0067  02.08.2006

@<TRIPOS>MOLECULE
ASD09910001
  10    9    0    0    0
SMALL
NO_CHARGES


@<TRIPOS>ATOM
   1 C1            -0.0180     1.4733     0.0101 C.2     
   2 C2             0.0021    -0.0041     0.0020 C.2     
   3 O3             1.0322     2.0989     0.0035 O.co2   
   4 O4            -1.0848     2.0701     0.0184 O.co2   
   5 C5             1.1737    -0.6594    -0.0127 C.2     
   6 C6             1.1937    -2.1368    -0.0208 C.2     
   7 O7             0.1435    -2.7624    -0.0141 O.co2   
   8 O8             2.2605    -2.7335    -0.0342 O.co2   
   9 H9            -0.9258    -0.5567     0.0079 H       
  10 H10            2.1015    -0.1067    -0.0186 H       
@<TRIPOS>BOND
   1    1    2 1
   2    1    3 ar
   3    1    4 ar
   4    2    5 2
   5    2    9 1
   6    5    6 1
   7    5   10 1
   8    6    7 ar
   9    6    8 ar

#	End of record

