#	Name: ASD03430322
#	Creating user name:	WinNT
#	Creation time:	15. 06. 2019 20:40

#	Modifying user name:	WinNT
#	Modification time:	15. 06. 2019 20:40

#	Program:	/corina/corina34_cracker 3.40 0067  02.08.2006

@<TRIPOS>MOLECULE
ASD03430322
  55   61    0    0    0
SMALL
NO_CHARGES


@<TRIPOS>ATOM
   1 C1            -0.0167     1.3806     0.0096 C.ar    
   2 C2             0.0021    -0.0041     0.0020 C.ar    
   3 C3             1.2035    -0.6814    -0.0133 C.ar    
   4 C4             2.4092     0.0135    -0.0098 C.ar    
   5 C5             2.3874     1.4049    -0.0074 C.ar    
   6 C6             1.1840     2.0869     0.0020 C.ar    
   7 O7             3.4719    -0.8412     0.0036 O.3     
   8 C8             1.5521    -2.1452    -0.0497 C.3     
   9 C9             3.0389    -2.1443    -0.4316 C.3     
  10 C10            0.4260    -3.8639     0.9986 C.ar    
  11 C11            1.3129    -2.8237     1.2663 C.ar    
  12 C12            0.7217    -2.9034    -1.0452 C.2     
  13 N13            0.1004    -3.8836    -0.3597 N.am    
  14 O14            0.6287    -2.6780    -2.2334 O.2     
  15 C15            1.7747    -2.6089     2.5453 C.ar    
  16 C16            1.3589    -3.4291     3.5794 C.ar    
  17 C17            0.4789    -4.4648     3.3251 C.ar    
  18 C18            0.0133    -4.6845     2.0450 C.ar    
  19 C19           -0.8104    -4.8564    -0.9683 C.3     
  20 O20           -1.0496     2.2737     0.0188 O.3     
  21 C21           -0.4709     3.5263     0.4302 C.3     
  22 O22            0.9023     3.4232     0.0055 O.3     
  23 C23           -2.2183    -4.3206    -0.9269 C.ar    
  24 C24           -2.6974    -3.5602    -1.9784 C.ar    
  25 C25           -3.9861    -3.0673    -1.9460 C.ar    
  26 C26           -4.8051    -3.3370    -0.8514 C.ar    
  27 C27           -4.3173    -4.1036     0.2051 C.ar    
  28 C28           -3.0287    -4.5958     0.1598 C.ar    
  29 C29           -6.1912    -2.8095    -0.8106 C.ar    
  30 C30           -7.2546    -3.6597    -0.5164 C.ar    
  31 C31           -8.5424    -3.1639    -0.4798 C.ar    
  32 C32           -8.7795    -1.8253    -0.7350 C.ar    
  33 C33           -7.7291    -0.9749    -1.0284 C.ar    
  34 C34           -6.4343    -1.4582    -1.0614 C.ar    
  35 F35           -5.4083    -0.6272    -1.3475 F       
  36 H36           -0.9267    -0.5552     0.0085 H       
  37 H37            3.3162     1.9560    -0.0124 H       
  38 H38            3.1618    -2.2531    -1.5091 H       
  39 H39            3.5760    -2.9287     0.1016 H       
  40 H40            2.4619    -1.7993     2.7418 H       
  41 H41            1.7211    -3.2608     4.5829 H       
  42 H42            0.1548    -5.1051     4.1322 H       
  43 H43           -0.6739    -5.4954     1.8542 H       
  44 H44           -0.5178    -5.0296    -2.0039 H       
  45 H45           -0.7623    -5.7945    -0.4154 H       
  46 H46           -0.9635     4.3590    -0.0718 H       
  47 H47           -0.5329     3.6396     1.5126 H       
  48 H48           -2.0616    -3.3514    -2.8262 H       
  49 H49           -4.3590    -2.4734    -2.7674 H       
  50 H50           -4.9477    -4.3154     1.0561 H       
  51 H51           -2.6497    -5.1904     0.9778 H       
  52 H52           -7.0719    -4.7054    -0.3175 H       
  53 H53           -9.3670    -3.8229    -0.2517 H       
  54 H54           -9.7890    -1.4428    -0.7054 H       
  55 H55           -7.9201     0.0693    -1.2275 H       
@<TRIPOS>BOND
   1    1    2 ar
   2    1    6 ar
   3    1   20 1
   4    2    3 ar
   5    2   36 1
   6    3    4 ar
   7    3    8 1
   8    4    5 ar
   9    4    7 1
  10    5    6 ar
  11    5   37 1
  12    6   22 1
  13    7    9 1
  14    8    9 1
  15    8   11 1
  16    8   12 1
  17    9   38 1
  18    9   39 1
  19   10   11 ar
  20   10   13 1
  21   10   18 ar
  22   11   15 ar
  23   12   13 am
  24   12   14 2
  25   13   19 1
  26   15   16 ar
  27   15   40 1
  28   16   17 ar
  29   16   41 1
  30   17   18 ar
  31   17   42 1
  32   18   43 1
  33   19   23 1
  34   19   44 1
  35   19   45 1
  36   20   21 1
  37   21   22 1
  38   21   46 1
  39   21   47 1
  40   23   24 ar
  41   23   28 ar
  42   24   25 ar
  43   24   48 1
  44   25   26 ar
  45   25   49 1
  46   26   27 ar
  47   26   29 1
  48   27   28 ar
  49   27   50 1
  50   28   51 1
  51   29   30 ar
  52   29   34 ar
  53   30   31 ar
  54   30   52 1
  55   31   32 ar
  56   31   53 1
  57   32   33 ar
  58   32   54 1
  59   33   34 ar
  60   33   55 1
  61   34   35 1

#	End of record

