#	Name: ASD01820081
#	Creating user name:	WinNT
#	Creation time:	15. 06. 2019 19:36

#	Modifying user name:	WinNT
#	Modification time:	15. 06. 2019 19:36

#	Program:	/corina/corina34_cracker 3.40 0067  02.08.2006

@<TRIPOS>MOLECULE
ASD01820081
  94   98    0    0    0
SMALL
NO_CHARGES


@<TRIPOS>ATOM
   1 C1            -0.0166     1.3765     0.0096 C.ar    
   2 C2             0.0021    -0.0041     0.0020 C.ar    
   3 C3             1.2059    -0.6838    -0.0135 C.ar    
   4 C4             2.3956     0.0197    -0.0069 C.ar    
   5 C5             2.3845     1.4067     0.0159 C.ar    
   6 C6             1.1748     2.0954     0.0021 C.ar    
   7 N7             3.6001     2.1025     0.0986 N.am    
   8 C8             3.8404     2.9139     1.2055 C.ar    
   9 C9             3.0004     3.9974     1.4851 C.ar    
  10 C10            1.9012     4.3454     0.5751 C.2     
  11 N11            1.1237     3.4843    -0.0609 N.am    
  12 C12            4.9158     2.6411     2.0407 C.ar    
  13 C13            5.1376     3.4196     3.1593 C.ar    
  14 C14            4.2899     4.4738     3.4571 C.ar    
  15 C15            3.2265     4.7665     2.6306 C.ar    
  16 O16            1.6867     5.5278     0.3909 O.2     
  17 C17            4.5218     1.9873    -0.8780 C.2     
  18 O18            4.3034     1.2781    -1.8374 O.2     
  19 C19            5.8237     2.7397    -0.7779 C.3     
  20 N20            6.6496     2.4482    -1.9572 N.3     
  21 C21            7.8164     3.3380    -2.0155 C.3     
  22 C22            8.5715     3.1060    -3.3262 C.3     
  23 C23            9.0176     1.6432    -3.4005 C.3     
  24 C24            7.7886     0.7367    -3.2890 C.3     
  25 C25            7.0562     1.0374    -1.9794 C.3     
  26 C26            9.7202     1.3901    -4.7359 C.3     
  27 C27           10.2748    -0.0357    -4.7582 C.3     
  28 C28           10.9773    -0.2888    -6.0936 C.3     
  29 C29           11.5319    -1.7146    -6.1159 C.3     
  30 C30           12.2345    -1.9677    -7.4513 C.3     
  31 N31           12.7655    -3.3329    -7.4727 N.pl3   
  32 C32           12.1212    -4.4366    -7.9090 C.2     
  33 N33           12.9130    -5.4649    -7.7722 N.2     
  34 C34           14.0792    -5.0586    -7.2489 C.2     
  35 C35           14.0095    -3.7271    -7.0596 C.2     
  36 C36           15.2622    -5.9372    -6.9335 C.3     
  37 C37           14.8203    -7.0764    -6.0127 C.3     
  38 C38           16.0033    -7.9551    -5.6973 C.2     
  39 N39           15.8508    -9.0292    -4.8976 N.am    
  40 O40           17.0927    -7.6956    -6.1630 O.2     
  41 C41           17.0009    -9.8833    -4.5910 C.3     
  42 C42           16.5589   -11.0226    -3.6702 C.3     
  43 N43           17.7090   -11.8767    -3.3636 N.am    
  44 C44           17.5565   -12.9508    -2.5639 C.2     
  45 C45           18.7395   -13.8294    -2.2485 C.3     
  46 C46           18.2975   -14.9687    -1.3278 C.3     
  47 O47           16.4671   -13.2103    -2.0982 O.2     
  48 H48           -0.9607     1.9010     0.0169 H       
  49 H49           -0.9269    -0.5549     0.0086 H       
  50 H50            1.2167    -1.7636    -0.0305 H       
  51 H51            3.3358    -0.5116    -0.0190 H       
  52 H52            0.4415     3.8641    -0.6366 H       
  53 H53            5.5791     1.8192     1.8152 H       
  54 H54            5.9760     3.2052     3.8055 H       
  55 H55            4.4629     5.0692     4.3414 H       
  56 H56            2.5681     5.5891     2.8679 H       
  57 H57            5.6222     3.8098    -0.7308 H       
  58 H58            6.3540     2.4299     0.1226 H       
  59 H59            7.4849     4.3752    -1.9660 H       
  60 H60            8.4762     3.1272    -1.1739 H       
  61 H61            7.9165     3.3299    -4.1681 H       
  62 H62            9.4462     3.7555    -3.3621 H       
  63 H63            9.7035     1.4294    -2.5808 H       
  64 H64            7.1213     0.9233    -4.1304 H       
  65 H65            8.1040    -0.3067    -3.2983 H       
  66 H66            7.7196     0.8373    -1.1380 H       
  67 H67            6.1726     0.4036    -1.9036 H       
  68 H68            9.0074     1.5155    -5.5509 H       
  69 H69           10.5384     2.1001    -4.8563 H       
  70 H70           10.9876    -0.1611    -3.9432 H       
  71 H71            9.4566    -0.7458    -4.6378 H       
  72 H72           10.2645    -0.1634    -6.9086 H       
  73 H73           11.7955     0.4212    -6.2140 H       
  74 H74           12.2447    -1.8400    -5.3009 H       
  75 H75           10.7137    -2.4246    -5.9955 H       
  76 H76           11.5217    -1.8423    -8.2664 H       
  77 H77           13.0527    -1.2577    -7.5717 H       
  78 H78           11.1168    -4.4639    -8.3050 H       
  79 H79           14.7838    -3.0932    -6.6533 H       
  80 H80           15.6634    -6.3522    -7.8581 H       
  81 H81           16.0316    -5.3461    -6.4366 H       
  82 H82           14.4191    -6.6615    -5.0881 H       
  83 H83           14.0510    -7.6675    -6.5096 H       
  84 H84           14.9796    -9.2367    -4.5251 H       
  85 H85           17.4021   -10.2983    -5.5156 H       
  86 H86           17.7702    -9.2922    -4.0941 H       
  87 H87           16.1577   -10.6076    -2.7456 H       
  88 H88           15.7896   -11.6136    -4.1671 H       
  89 H89           18.5802   -11.6692    -3.7361 H       
  90 H90           19.1407   -14.2444    -3.1731 H       
  91 H91           19.5088   -13.2384    -1.7516 H       
  92 H92           19.1532   -15.6042    -1.0996 H       
  93 H93           17.8964   -14.5537    -0.4031 H       
  94 H94           17.5282   -15.5597    -1.8246 H       
@<TRIPOS>BOND
   1    1    2 ar
   2    1    6 ar
   3    1   48 1
   4    2    3 ar
   5    2   49 1
   6    3    4 ar
   7    3   50 1
   8    4    5 ar
   9    4   51 1
  10    5    6 ar
  11    5    7 1
  12    6   11 1
  13    7    8 1
  14    7   17 am
  15    8    9 ar
  16    8   12 ar
  17    9   10 1
  18    9   15 ar
  19   10   11 am
  20   10   16 2
  21   11   52 1
  22   12   13 ar
  23   12   53 1
  24   13   14 ar
  25   13   54 1
  26   14   15 ar
  27   14   55 1
  28   15   56 1
  29   17   18 2
  30   17   19 1
  31   19   20 1
  32   19   57 1
  33   19   58 1
  34   20   21 1
  35   20   25 1
  36   21   22 1
  37   21   59 1
  38   21   60 1
  39   22   23 1
  40   22   61 1
  41   22   62 1
  42   23   24 1
  43   23   26 1
  44   23   63 1
  45   24   25 1
  46   24   64 1
  47   24   65 1
  48   25   66 1
  49   25   67 1
  50   26   27 1
  51   26   68 1
  52   26   69 1
  53   27   28 1
  54   27   70 1
  55   27   71 1
  56   28   29 1
  57   28   72 1
  58   28   73 1
  59   29   30 1
  60   29   74 1
  61   29   75 1
  62   30   31 1
  63   30   76 1
  64   30   77 1
  65   31   32 1
  66   31   35 1
  67   32   33 2
  68   32   78 1
  69   33   34 1
  70   34   35 2
  71   34   36 1
  72   35   79 1
  73   36   37 1
  74   36   80 1
  75   36   81 1
  76   37   38 1
  77   37   82 1
  78   37   83 1
  79   38   39 am
  80   38   40 2
  81   39   41 1
  82   39   84 1
  83   41   42 1
  84   41   85 1
  85   41   86 1
  86   42   43 1
  87   42   87 1
  88   42   88 1
  89   43   44 am
  90   43   89 1
  91   44   45 1
  92   44   47 2
  93   45   46 1
  94   45   90 1
  95   45   91 1
  96   46   92 1
  97   46   93 1
  98   46   94 1

#	End of record

