#	Name: ASD02448123
#	Creating user name:	WinNT
#	Creation time:	15. 06. 2019 20:21

#	Modifying user name:	WinNT
#	Modification time:	15. 06. 2019 20:21

#	Program:	/corina/corina34_cracker 3.40 0067  02.08.2006

@<TRIPOS>MOLECULE
ASD02448123
  76   81    0    0    0
SMALL
NO_CHARGES


@<TRIPOS>ATOM
   1 C1            -0.0495    -6.5829     3.1351 C.ar    
   2 C2             0.4370    -5.4514     2.5095 C.ar    
   3 C3             0.3489    -5.3268     1.1289 C.ar    
   4 C4            -0.2282    -6.3397     0.3779 C.ar    
   5 C5            -0.7163    -7.4757     1.0090 C.ar    
   6 C6            -0.6252    -7.5942     2.3903 C.ar    
   7 N7            -1.2987    -8.4981     0.2563 N.am    
   8 C8            -1.4107    -9.9213     0.6012 C.3     
   9 C9            -2.1062   -10.6886    -0.4765 C.2     
  10 N10           -2.4889    -9.9547    -1.5309 N.am    
  11 S11           -2.0330    -8.3809    -1.2372 S.o2    
  12 O12           -2.3081   -11.8823    -0.4030 O.2     
  13 O13           -3.2237    -7.6239    -1.0688 O.2     
  14 O14           -1.0137    -8.0580    -2.1732 O.2     
  15 N15            0.8426    -4.1777     0.4952 N.pl3   
  16 C16            1.7739    -4.1404    -0.5081 C.2     
  17 C17            0.4816    -2.8942     0.7584 C.2     
  18 N18            1.1499    -2.0984    -0.0289 N.2     
  19 C19            1.9563    -2.8316    -0.8232 C.2     
  20 C20            2.8793    -2.3027    -1.8572 C.ar    
  21 C21            2.9684    -0.9284    -2.0787 C.ar    
  22 C22            3.6642    -3.1765    -2.6065 C.ar    
  23 C23            4.5214    -2.6795    -3.5675 C.ar    
  24 C24            4.6028    -1.3154    -3.7876 C.ar    
  25 C25            3.8292    -0.4417    -3.0426 C.ar    
  26 C26           -0.5265    -2.4615     1.7916 C.3     
  27 C27           -1.8704    -2.2762     1.1353 C.ar    
  28 C28           -2.7139    -3.3605     0.9741 C.ar    
  29 C29           -2.2582    -1.0213     0.7016 C.ar    
  30 C30           -3.4879    -0.8458     0.1000 C.ar    
  31 C31           -4.3392    -1.9357    -0.0702 C.ar    
  32 C32           -3.9458    -3.1965     0.3737 C.ar    
  33 C33           -5.6626    -1.7531    -0.7164 C.ar    
  34 C34           -6.0578    -0.4904    -1.1551 C.ar    
  35 C35           -6.5100    -2.8435    -0.8912 C.ar    
  36 C36           -7.7457    -2.6663    -1.4965 C.ar    
  37 C37           -8.1335    -1.4029    -1.9259 C.ar    
  38 C38           -7.2891    -0.3220    -1.7561 C.ar    
  39 Cl39           5.6835    -0.6974    -4.9975 Cl      
  40 Cl40           1.9988     0.1679    -1.1450 Cl      
  41 N41           -8.5995    -3.7575    -1.6745 N.pl3   
  42 C42          -11.9254    -0.9462    -2.1696 C.3     
  43 C43          -10.5470    -1.0155    -1.5091 C.3     
  44 C44           -9.4758    -1.2118    -2.5837 C.3     
  45 C45          -10.2779     0.2870    -0.7528 C.3     
  46 H46            0.0243    -6.6792     4.2083 H       
  47 H47            0.8861    -4.6625     3.0946 H       
  48 H48           -0.2981    -6.2448    -0.6956 H       
  49 H49           -1.0047    -8.4777     2.8822 H       
  50 H50           -0.4120   -10.3334     0.7452 H       
  51 H51           -1.9730   -10.0204     1.5297 H       
  52 H52           -2.9500   -10.2806    -2.3196 H       
  53 H53            2.2678    -4.9874    -0.9610 H       
  54 H54            3.6023    -4.2410    -2.4354 H       
  55 H55            5.1301    -3.3564    -4.1486 H       
  56 H56            3.8961     0.6218    -3.2184 H       
  57 H57           -0.6027    -3.2242     2.5666 H       
  58 H58           -0.2075    -1.5199     2.2385 H       
  59 H59           -2.4078    -4.3374     1.3182 H       
  60 H60           -1.5978    -0.1771     0.8343 H       
  61 H61           -3.7899     0.1345    -0.2380 H       
  62 H62           -4.6018    -4.0446     0.2443 H       
  63 H63           -5.4005     0.3566    -1.0245 H       
  64 H64           -6.2064    -3.8245    -0.5569 H       
  65 H65           -7.5948     0.6580    -2.0916 H       
  66 H66           -8.3284    -4.6393    -1.3750 H       
  67 H67           -9.4634    -3.6333    -2.0978 H       
  68 H68          -12.1171    -1.8741    -2.7085 H       
  69 H69          -12.6885    -0.8063    -1.4041 H       
  70 H70          -11.9525    -0.1089    -2.8669 H       
  71 H71          -10.5200    -1.8528    -0.8118 H       
  72 H72           -9.4428    -0.3337    -3.2286 H       
  73 H73           -9.7166    -2.0918    -3.1803 H       
  74 H74          -11.0411     0.4269     0.0128 H       
  75 H75           -9.2960     0.2377    -0.2822 H       
  76 H76          -10.3050     1.1243    -1.4501 H       
@<TRIPOS>BOND
   1    1    2 ar
   2    1    6 ar
   3    1   46 1
   4    2    3 ar
   5    2   47 1
   6    3    4 ar
   7    3   15 1
   8    4    5 ar
   9    4   48 1
  10    5    6 ar
  11    5    7 1
  12    6   49 1
  13    7    8 1
  14    7   11 am
  15    8    9 1
  16    8   50 1
  17    8   51 1
  18    9   10 am
  19    9   12 2
  20   10   11 am
  21   10   52 1
  22   11   13 2
  23   11   14 2
  24   15   16 1
  25   15   17 1
  26   16   19 2
  27   16   53 1
  28   17   18 2
  29   17   26 1
  30   18   19 1
  31   19   20 1
  32   20   21 ar
  33   20   22 ar
  34   21   40 1
  35   21   25 ar
  36   22   23 ar
  37   22   54 1
  38   23   24 ar
  39   23   55 1
  40   24   25 ar
  41   24   39 1
  42   25   56 1
  43   26   27 1
  44   26   57 1
  45   26   58 1
  46   27   28 ar
  47   27   29 ar
  48   28   32 ar
  49   28   59 1
  50   29   30 ar
  51   29   60 1
  52   30   31 ar
  53   30   61 1
  54   31   32 ar
  55   31   33 1
  56   32   62 1
  57   33   34 ar
  58   33   35 ar
  59   34   38 ar
  60   34   63 1
  61   35   36 ar
  62   35   64 1
  63   36   37 ar
  64   36   41 1
  65   37   38 ar
  66   37   44 1
  67   38   65 1
  68   41   66 1
  69   41   67 1
  70   42   43 1
  71   42   68 1
  72   42   69 1
  73   42   70 1
  74   43   44 1
  75   43   45 1
  76   43   71 1
  77   44   72 1
  78   44   73 1
  79   45   74 1
  80   45   75 1
  81   45   76 1

#	End of record

