#	Name: ASD06590028
#	Creating user name:	WinNT
#	Creation time:	15. 06. 2019 21:06

#	Modifying user name:	WinNT
#	Modification time:	15. 06. 2019 21:06

#	Program:	/corina/corina34_cracker 3.40 0067  02.08.2006

@<TRIPOS>MOLECULE
ASD06590028
 306  310    0    0    0
SMALL
NO_CHARGES


@<TRIPOS>ATOM
   1 C1            -4.1975     5.5023   -14.3029 C.2     
   2 O2            -3.9843     4.3090   -14.3428 O.2     
   3 N3            -2.1287     5.7121   -15.5540 N.am    
   4 C4            -3.2325     6.4622   -14.9496 C.3     
   5 C5            -7.3799     5.8072   -12.4445 C.2     
   6 O6            -7.4026     7.0176   -12.5184 O.2     
   7 N7            -5.3004     5.9695   -13.6849 N.am    
   8 C8            -6.2417     5.0359   -13.0614 C.3     
   9 C9           -10.0872     5.0928   -10.0944 C.2     
  10 O10           -9.6404     3.9977    -9.8261 O.2     
  11 N11           -8.3726     5.1520   -11.8107 N.am    
  12 C12           -9.4790     5.9018   -11.2109 C.3     
  13 C13          -10.5418     6.1815   -12.2755 C.3     
  14 C14           -9.9685     7.0923   -13.3304 C.ar    
  15 C15           -9.3342     6.5552   -14.4354 C.ar    
  16 C16           -8.8074     7.3880   -15.4036 C.ar    
  17 C17           -8.9157     8.7643   -15.2667 C.ar    
  18 O18           -8.3988     9.5857   -16.2181 O.3     
  19 C19           -9.5530     9.3007   -14.1574 C.ar    
  20 C20          -10.0827     8.4636   -13.1945 C.ar    
  21 C21          -13.1510     5.2223    -8.1045 C.2     
  22 O22          -13.6305     6.0946    -8.7974 O.2     
  23 N23          -11.1277     5.5862    -9.3941 N.am    
  24 C24          -11.7189     4.7997    -8.3087 C.3     
  25 C25          -10.9290     5.0348    -7.0196 C.3     
  26 C26           -9.5297     4.4998    -7.1833 C.ar    
  27 C27           -8.5293     5.3189    -7.6723 C.ar    
  28 C28           -7.2458     4.8281    -7.8224 C.ar    
  29 C29           -6.9626     3.5183    -7.4831 C.ar    
  30 C30           -7.9628     2.6994    -6.9932 C.ar    
  31 C31           -9.2454     3.1915    -6.8390 C.ar    
  32 C32          -15.7082     4.7353    -5.5381 C.2     
  33 O33          -14.9203     4.2240    -4.7708 O.2     
  34 N34          -13.8988     4.6309    -7.1519 N.am    
  35 C35          -15.2909     5.0418    -6.9534 C.3     
  36 C36          -16.1916     4.2791    -7.9271 C.3     
  37 C37          -15.8504     4.6854    -9.3622 C.3     
  38 C38          -16.7510     3.9227   -10.3360 C.3     
  39 N39          -16.4243     4.3117   -11.7101 N.pl3   
  40 C40          -17.1082     3.7529   -12.7637 C.2     
  41 N41          -16.8175     4.0990   -13.9863 N.2     
  42 N42          -18.0987     2.8292   -12.5279 N.pl3   
  43 C43          -18.8588     4.5604    -3.6925 C.2     
  44 O44          -19.5211     4.6760    -4.7019 O.2     
  45 N45          -16.9570     5.0293    -5.1251 N.am    
  46 C46          -17.3626     4.7314    -3.7492 C.3     
  47 C47          -16.9460     5.8843    -2.8337 C.3     
  48 C48          -15.4194     5.9781    -2.7943 C.3     
  49 C49          -15.0028     7.1310    -1.8787 C.3     
  50 N50          -13.5410     7.2208    -1.8409 N.pl3   
  51 C51          -12.9313     8.1887    -1.0784 C.2     
  52 N52          -11.6307     8.2687    -1.0448 N.2     
  53 N53          -13.6933     9.0723    -0.3513 N.pl3   
  54 C54          -21.3653     4.5710    -1.0444 C.2     
  55 O55          -20.6262     4.3644    -0.1053 O.2     
  56 N56          -19.4609     4.2789    -2.5200 N.am    
  57 C57          -20.9228     4.2227    -2.4423 C.3     
  58 C58          -21.3981     2.8107    -2.7907 C.3     
  59 C59          -22.9263     2.7899    -2.8612 C.3     
  60 C60          -23.3946     3.6538    -4.0340 C.3     
  61 C61          -23.4080     1.3518    -3.0629 C.3     
  62 C62          -24.5637     5.3569     0.5415 C.2     
  63 O63          -25.1805     5.1831    -0.4882 O.2     
  64 N64          -22.5823     5.1120    -0.8380 N.am    
  65 C65          -23.0568     5.3481     0.5278 C.3     
  66 C66          -22.5344     6.6982     1.0230 C.3     
  67 C67          -21.0317     6.6482     1.1261 C.2     
  68 C68          -20.1693     7.4976     0.5360 C.2     
  69 N69          -18.9105     7.0940     0.8909 N.pl3   
  70 C70          -19.0475     6.0112     1.6861 C.2     
  71 N71          -20.3191     5.7534     1.8264 N.2     
  72 C72          -27.1778     6.3787     2.8837 C.2     
  73 O73          -26.3797     6.8992     3.6341 O.2     
  74 N74          -25.2259     5.5579     1.6980 N.am    
  75 C75          -26.6908     5.5665     1.7114 C.3     
  76 C76          -27.2081     4.1319     1.8348 C.3     
  77 O77          -26.8217     3.5935     3.1009 O.3     
  78 C78          -30.3542     6.8561     4.6288 C.2     
  79 O79          -30.9476     6.0593     3.9331 O.2     
  80 N80          -28.5001     6.5267     3.0981 N.am    
  81 C81          -28.9735     7.3163     4.2377 C.3     
  82 C82          -29.0199     8.7954     3.8493 C.3     
  83 C83          -27.6210     9.2587     3.4376 C.3     
  84 O84          -29.9215     8.9725     2.7549 O.3     
  85 C85          -32.9188     8.0054     6.9665 C.2     
  86 O86          -32.2746     8.9843     7.2790 O.2     
  87 N87          -30.9296     7.3299     5.7517 N.am    
  88 C88          -32.3026     6.9463     6.0892 C.3     
  89 C89          -32.2903     5.6103     6.8347 C.3     
  90 C90          -31.7805     4.5102     5.9015 C.3     
  91 C91          -31.7681     3.1742     6.6469 C.3     
  92 N92          -31.2800     2.1209     5.7534 N.pl3   
  93 C93          -31.1810     0.8265     6.2062 C.2     
  94 N94          -30.7467    -0.1106     5.4112 N.2     
  95 N95          -31.5402     0.5207     7.4975 N.pl3   
  96 C96          -34.5863     8.3438     9.7488 C.2     
  97 O97          -34.0487     7.2766     9.9559 O.2     
  98 N98          -34.1859     7.8648     7.4037 N.am    
  99 C99          -34.7517     8.8427     8.3364 C.3     
 100 C100         -36.2392     9.0344     8.0342 C.3     
 101 C101         -36.3984     9.6662     6.6753 C.2     
 102 O102         -35.4239     9.8660     5.9816 O.2     
 103 N103         -37.6237    10.0093     6.2310 N.am    
 104 C104         -35.9298     9.2198    13.0337 C.2     
 105 O105         -36.7365     9.9915    12.5599 O.2     
 106 N106         -35.0357     9.0837    10.7818 N.am    
 107 C107         -34.8749     8.5987    12.1548 C.3     
 108 C108         -33.4878     8.9843    12.6728 C.3     
 109 C109         -32.4342     8.2656    11.8701 C.ar    
 110 C110         -31.9171     8.8508    10.7291 C.ar    
 111 C111         -30.9515     8.1937     9.9913 C.ar    
 112 C112         -30.5003     6.9459    10.3964 C.ar    
 113 O113         -29.5502     6.2977     9.6725 O.3     
 114 C114         -31.0205     6.3611    11.5418 C.ar    
 115 C115         -31.9822     7.0245    12.2790 C.ar    
 116 C116         -36.5164     9.5472    16.6270 C.2     
 117 O117         -35.4213     9.1049    16.9027 O.2     
 118 N118         -35.9768     8.9176    14.3464 N.am    
 119 C119         -37.0023     9.5213    15.2008 C.3     
 120 C120         -38.2880     8.6964    15.1149 C.3     
 121 C121         -38.0094     7.2673    15.5848 C.3     
 122 C122         -39.3189     6.4767    15.6176 C.3     
 123 C123         -38.7814     8.6701    13.6669 C.3     
 124 C124         -37.1289     8.7653    19.6406 C.2     
 125 O125         -37.6822     7.8920    19.0154 O.2     
 126 N126         -37.2988    10.0619    17.5963 N.am    
 127 C127         -36.8264    10.0870    18.9828 C.3     
 128 C128         -37.5359    11.2093    19.7431 C.3     
 129 C129         -37.1362    12.5408    19.1615 C.2     
 130 C130         -37.9760    13.4864    18.6986 C.2     
 131 N131         -37.2001    14.5275    18.2654 N.pl3   
 132 C132         -35.9122    14.1816    18.4787 C.2     
 133 N133         -35.8820    12.9943    19.0195 N.2     
 134 O134         -36.7835     8.5583    20.9211 O.3     
 135 C135          -1.1392     6.3669   -16.1930 C.2     
 136 O136          -1.1624     7.5772   -16.2678 O.2     
 137 C137          14.9237     6.9332   -25.8290 C.3     
 138 C138          13.7710     7.7166   -25.1978 C.3     
 139 C139          12.7912     6.7420   -24.5412 C.3     
 140 C140          11.6385     7.5255   -23.9101 C.3     
 141 C141          10.6587     6.5509   -23.2535 C.3     
 142 C142           9.5060     7.3343   -22.6223 C.3     
 143 C143           8.5262     6.3598   -21.9657 C.3     
 144 C144           7.3735     7.1432   -21.3346 C.3     
 145 C145           6.3937     6.1686   -20.6779 C.3     
 146 C146           5.2410     6.9521   -20.0468 C.3     
 147 C147           4.2612     5.9775   -19.3902 C.3     
 148 C148           3.1085     6.7609   -18.7591 C.3     
 149 C149           2.1287     5.7864   -18.1024 C.3     
 150 C150           0.9760     6.5698   -17.4713 C.3     
 151 C151          -0.0038     5.5952   -16.8147 C.3     
 152 H152          -2.1101     4.7441   -15.4942 H       
 153 H153          -3.7496     7.0326   -15.7213 H       
 154 H154          -2.8386     7.1443   -14.1962 H       
 155 H155          -5.4709     6.9238   -13.6530 H       
 156 H156          -5.7283     4.4648   -12.2878 H       
 157 H157          -6.6321     4.3545   -13.8173 H       
 158 H158          -8.3544     4.1840   -11.7516 H       
 159 H159          -9.1053     6.8456   -10.8139 H       
 160 H160         -10.8515     5.2430   -12.7351 H       
 161 H161         -11.4038     6.6606   -11.8113 H       
 162 H162          -9.2501     5.4837   -14.5414 H       
 163 H163          -8.3115     6.9680   -16.2661 H       
 164 H164          -9.0188     9.8059   -16.9267 H       
 165 H165          -9.6383    10.3718   -14.0484 H       
 166 H166         -10.5828     8.8806   -12.3329 H       
 167 H167         -11.4851     6.4620    -9.6087 H       
 168 H168         -11.6858     3.7413    -8.5672 H       
 169 H169         -10.8871     6.1035    -6.8091 H       
 170 H170         -11.4203     4.5207    -6.1936 H       
 171 H171          -8.7506     6.3422    -7.9374 H       
 172 H172          -6.4644     5.4678    -8.2051 H       
 173 H173          -5.9599     3.1346    -7.6010 H       
 174 H174          -7.7416     1.6760    -6.7284 H       
 175 H175         -10.0260     2.5529    -6.4528 H       
 176 H176         -13.5153     3.9333    -6.5977 H       
 177 H177         -15.3833     6.1124    -7.1356 H       
 178 H178         -16.0331     3.2076    -7.8054 H       
 179 H179         -17.2348     4.5179    -7.7202 H       
 180 H180         -16.0089     5.7569    -9.4840 H       
 181 H181         -14.8072     4.4466    -9.5692 H       
 182 H182         -16.5925     2.8512   -10.2142 H       
 183 H183         -17.7942     4.1615   -10.1290 H       
 184 H184         -15.7254     4.9634   -11.8765 H       
 185 H185         -17.3001     3.7048   -14.7297 H       
 186 H186         -18.3150     2.5716   -11.6180 H       
 187 H187         -18.5813     2.4350   -13.2713 H       
 188 H188         -17.5871     5.4382    -5.7387 H       
 189 H189         -16.8790     3.8121    -3.4189 H       
 190 H190         -17.3577     6.8185    -3.2155 H       
 191 H191         -17.3251     5.7045    -1.8277 H       
 192 H192         -15.0077     5.0439    -2.4124 H       
 193 H193         -15.0403     6.1579    -3.8003 H       
 194 H194         -15.4145     8.0652    -2.2606 H       
 195 H195         -15.3818     6.9512    -0.8727 H       
 196 H196         -13.0034     6.5974    -2.3540 H       
 197 H197         -11.2005     8.9516    -0.5068 H       
 198 H198         -14.6612     9.0128    -0.3763 H       
 199 H199         -13.2631     9.7552     0.1868 H       
 200 H200         -18.9264     4.1137    -1.7277 H       
 201 H201         -21.3518     4.9348    -3.1472 H       
 202 H202         -20.9858     2.5164    -3.7559 H       
 203 H203         -21.0602     2.1140    -2.0236 H       
 204 H204         -23.3383     3.1842    -1.9323 H       
 205 H205         -24.4840     3.6827    -4.0517 H       
 206 H206         -23.0061     4.6655    -3.9178 H       
 207 H207         -23.0272     3.2285    -4.9679 H       
 208 H208         -23.0744     0.7363    -2.2274 H       
 209 H209         -24.4967     1.3369    -3.1131 H       
 210 H210         -22.9960     0.9575    -3.9918 H       
 211 H211         -23.1439     5.3451    -1.5937 H       
 212 H212         -22.6921     4.5556     1.1812 H       
 213 H213         -22.8246     7.4798     0.3209 H       
 214 H214         -22.9588     6.9146     2.0034 H       
 215 H215         -20.4223     8.3360    -0.0961 H       
 216 H216         -18.0758     7.5083     0.6215 H       
 217 H217         -18.2389     5.4534     2.1350 H       
 218 H218         -24.7326     5.6970     2.5216 H       
 219 H219         -27.0601     6.0074     0.7854 H       
 220 H220         -28.2952     4.1296     1.7556 H       
 221 H221         -26.7843     3.5229     1.0363 H       
 222 H222         -27.1166     2.6844     3.2482 H       
 223 H223         -29.1384     6.1104     2.4979 H       
 224 H224         -28.2940     7.1828     5.0795 H       
 225 H225         -29.3617     9.3841     4.7006 H       
 226 H226         -27.2869     8.6830     2.5745 H       
 227 H227         -27.6502    10.3172     3.1791 H       
 228 H228         -26.9293     9.1060     4.2661 H       
 229 H229         -30.8293     8.6988     2.9450 H       
 230 H230         -30.4346     7.9249     6.3364 H       
 231 H231         -32.8873     6.8467     5.1746 H       
 232 H232         -31.6340     5.6841     7.7018 H       
 233 H233         -33.3010     5.3683     7.1634 H       
 234 H234         -32.4367     4.4364     5.0343 H       
 235 H235         -30.7698     4.7522     5.5727 H       
 236 H236         -31.1119     3.2480     7.5141 H       
 237 H237         -32.7788     2.9322     6.9757 H       
 238 H238         -31.0266     2.3367     4.8423 H       
 239 H239         -30.6769    -1.0238     5.7306 H       
 240 H240         -31.8634     1.2181     8.0892 H       
 241 H241         -31.4703    -0.3925     7.8170 H       
 242 H242         -34.7233     7.1162     7.1009 H       
 243 H243         -34.2325     9.7945     8.2242 H       
 244 H244         -36.7400     8.0663     8.0457 H       
 245 H245         -36.6831     9.6821     8.7903 H       
 246 H246         -38.4031     9.8495     6.7859 H       
 247 H247         -37.7262    10.4160     5.3564 H       
 248 H248         -35.4656     9.9373    10.6162 H       
 249 H249         -34.9804     7.5140    12.1717 H       
 250 H250         -33.3491    10.0609    12.5730 H       
 251 H251         -33.4005     8.7024    13.7220 H       
 252 H252         -32.2686     9.8222    10.4142 H       
 253 H253         -30.5484     8.6509     9.0997 H       
 254 H254         -28.6441     6.4953     9.9466 H       
 255 H255         -30.6711     5.3896    11.8590 H       
 256 H256         -32.3842     6.5716    13.1732 H       
 257 H257         -35.3316     8.3004    14.7253 H       
 258 H258         -37.2008    10.5395    14.8660 H       
 259 H259         -39.0510     9.1456    15.7506 H       
 260 H260         -37.3128     6.7880    14.8969 H       
 261 H261         -37.5745     7.2916    16.5840 H       
 262 H262         -40.0155     6.9560    16.3054 H       
 263 H263         -39.7538     6.4524    14.6184 H       
 264 H264         -39.1204     5.4586    15.9523 H       
 265 H265         -39.6973     8.0825    13.6057 H       
 266 H266         -38.9799     9.6883    13.3321 H       
 267 H267         -38.0183     8.2209    13.0312 H       
 268 H268         -38.1746    10.4156    17.3758 H       
 269 H269         -35.7507    10.2622    18.9970 H       
 270 H270         -38.6149    11.0829    19.6537 H       
 271 H271         -37.2516    11.1720    20.7947 H       
 272 H272         -39.0544    13.4333    18.6737 H       
 273 H273         -37.5162    15.3585    17.8776 H       
 274 H274         -35.0503    14.7888    18.2445 H       
 275 H275         -36.9982     7.6948    21.2996 H       
 276 H276          15.4408     6.3628   -25.0574 H       
 277 H277          14.5299     6.2511   -26.5825 H       
 278 H278          15.6217     7.6275   -26.2968 H       
 279 H279          14.1649     8.3987   -24.4444 H       
 280 H280          13.2539     8.2870   -25.9695 H       
 281 H281          12.3974     6.0599   -25.2947 H       
 282 H282          13.3083     6.1717   -23.7696 H       
 283 H283          12.0324     8.2076   -23.1566 H       
 284 H284          11.1214     8.0958   -24.6817 H       
 285 H285          10.2649     5.8688   -24.0069 H       
 286 H286          11.1758     5.9805   -22.4818 H       
 287 H287           9.8999     8.0164   -21.8689 H       
 288 H288           8.9889     7.9047   -23.3940 H       
 289 H289           8.1324     5.6777   -22.7192 H       
 290 H290           9.0433     5.7894   -21.1941 H       
 291 H291           7.7674     7.8253   -20.5811 H       
 292 H292           6.8564     7.7136   -22.1062 H       
 293 H293           5.9999     5.4865   -21.4314 H       
 294 H294           6.9108     5.5983   -19.9063 H       
 295 H295           5.6349     7.6341   -19.2933 H       
 296 H296           4.7239     7.5224   -20.8184 H       
 297 H297           3.8674     5.2954   -20.1437 H       
 298 H298           4.7783     5.4071   -18.6186 H       
 299 H299           3.5024     7.4430   -18.0056 H       
 300 H300           2.5914     7.3313   -19.5307 H       
 301 H301           1.7349     5.1043   -18.8559 H       
 302 H302           2.6458     5.2160   -17.3308 H       
 303 H303           1.3699     7.2519   -16.7178 H       
 304 H304           0.4589     7.1402   -18.2429 H       
 305 H305           0.5133     5.0249   -16.0430 H       
 306 H306          -0.3976     4.9131   -17.5681 H       
@<TRIPOS>BOND
   1    1    2 2
   2    1    4 1
   3    1    7 am
   4    3    4 1
   5    3  135 am
   6    3  152 1
   7    4  153 1
   8    4  154 1
   9    5    6 2
  10    5    8 1
  11    5   11 am
  12    7    8 1
  13    7  155 1
  14    8  156 1
  15    8  157 1
  16    9   10 2
  17    9   12 1
  18    9   23 am
  19   11   12 1
  20   11  158 1
  21   12   13 1
  22   12  159 1
  23   13   14 1
  24   13  160 1
  25   13  161 1
  26   14   15 ar
  27   14   20 ar
  28   15   16 ar
  29   15  162 1
  30   16   17 ar
  31   16  163 1
  32   17   18 1
  33   17   19 ar
  34   18  164 1
  35   19   20 ar
  36   19  165 1
  37   20  166 1
  38   21   22 2
  39   21   24 1
  40   21   34 am
  41   23   24 1
  42   23  167 1
  43   24   25 1
  44   24  168 1
  45   25   26 1
  46   25  169 1
  47   25  170 1
  48   26   27 ar
  49   26   31 ar
  50   27   28 ar
  51   27  171 1
  52   28   29 ar
  53   28  172 1
  54   29   30 ar
  55   29  173 1
  56   30   31 ar
  57   30  174 1
  58   31  175 1
  59   32   33 2
  60   32   35 1
  61   32   45 am
  62   34   35 1
  63   34  176 1
  64   35   36 1
  65   35  177 1
  66   36   37 1
  67   36  178 1
  68   36  179 1
  69   37   38 1
  70   37  180 1
  71   37  181 1
  72   38   39 1
  73   38  182 1
  74   38  183 1
  75   39   40 1
  76   39  184 1
  77   40   41 2
  78   40   42 1
  79   41  185 1
  80   42  186 1
  81   42  187 1
  82   43   44 2
  83   43   46 1
  84   43   56 am
  85   45   46 1
  86   45  188 1
  87   46   47 1
  88   46  189 1
  89   47   48 1
  90   47  190 1
  91   47  191 1
  92   48   49 1
  93   48  192 1
  94   48  193 1
  95   49   50 1
  96   49  194 1
  97   49  195 1
  98   50   51 1
  99   50  196 1
 100   51   52 2
 101   51   53 1
 102   52  197 1
 103   53  198 1
 104   53  199 1
 105   54   55 2
 106   54   57 1
 107   54   64 am
 108   56   57 1
 109   56  200 1
 110   57   58 1
 111   57  201 1
 112   58   59 1
 113   58  202 1
 114   58  203 1
 115   59   60 1
 116   59   61 1
 117   59  204 1
 118   60  205 1
 119   60  206 1
 120   60  207 1
 121   61  208 1
 122   61  209 1
 123   61  210 1
 124   62   63 2
 125   62   65 1
 126   62   74 am
 127   64   65 1
 128   64  211 1
 129   65   66 1
 130   65  212 1
 131   66   67 1
 132   66  213 1
 133   66  214 1
 134   67   68 2
 135   67   71 1
 136   68   69 1
 137   68  215 1
 138   69   70 1
 139   69  216 1
 140   70   71 2
 141   70  217 1
 142   72   73 2
 143   72   75 1
 144   72   80 am
 145   74   75 1
 146   74  218 1
 147   75   76 1
 148   75  219 1
 149   76   77 1
 150   76  220 1
 151   76  221 1
 152   77  222 1
 153   78   79 2
 154   78   81 1
 155   78   87 am
 156   80   81 1
 157   80  223 1
 158   81   82 1
 159   81  224 1
 160   82   83 1
 161   82   84 1
 162   82  225 1
 163   83  226 1
 164   83  227 1
 165   83  228 1
 166   84  229 1
 167   85   86 2
 168   85   88 1
 169   85   98 am
 170   87   88 1
 171   87  230 1
 172   88   89 1
 173   88  231 1
 174   89   90 1
 175   89  232 1
 176   89  233 1
 177   90   91 1
 178   90  234 1
 179   90  235 1
 180   91   92 1
 181   91  236 1
 182   91  237 1
 183   92   93 1
 184   92  238 1
 185   93   94 2
 186   93   95 1
 187   94  239 1
 188   95  240 1
 189   95  241 1
 190   96   97 2
 191   96   99 1
 192   96  106 am
 193   98   99 1
 194   98  242 1
 195   99  100 1
 196   99  243 1
 197  100  101 1
 198  100  244 1
 199  100  245 1
 200  101  102 2
 201  101  103 am
 202  103  246 1
 203  103  247 1
 204  104  105 2
 205  104  107 1
 206  104  118 am
 207  106  107 1
 208  106  248 1
 209  107  108 1
 210  107  249 1
 211  108  109 1
 212  108  250 1
 213  108  251 1
 214  109  110 ar
 215  109  115 ar
 216  110  111 ar
 217  110  252 1
 218  111  112 ar
 219  111  253 1
 220  112  113 1
 221  112  114 ar
 222  113  254 1
 223  114  115 ar
 224  114  255 1
 225  115  256 1
 226  116  117 2
 227  116  119 1
 228  116  126 am
 229  118  119 1
 230  118  257 1
 231  119  120 1
 232  119  258 1
 233  120  121 1
 234  120  123 1
 235  120  259 1
 236  121  122 1
 237  121  260 1
 238  121  261 1
 239  122  262 1
 240  122  263 1
 241  122  264 1
 242  123  265 1
 243  123  266 1
 244  123  267 1
 245  124  125 2
 246  124  127 1
 247  124  134 1
 248  126  127 1
 249  126  268 1
 250  127  128 1
 251  127  269 1
 252  128  129 1
 253  128  270 1
 254  128  271 1
 255  129  130 2
 256  129  133 1
 257  130  131 1
 258  130  272 1
 259  131  132 1
 260  131  273 1
 261  132  133 2
 262  132  274 1
 263  134  275 1
 264  135  136 2
 265  135  151 1
 266  137  138 1
 267  137  276 1
 268  137  277 1
 269  137  278 1
 270  138  139 1
 271  138  279 1
 272  138  280 1
 273  139  140 1
 274  139  281 1
 275  139  282 1
 276  140  141 1
 277  140  283 1
 278  140  284 1
 279  141  142 1
 280  141  285 1
 281  141  286 1
 282  142  143 1
 283  142  287 1
 284  142  288 1
 285  143  144 1
 286  143  289 1
 287  143  290 1
 288  144  145 1
 289  144  291 1
 290  144  292 1
 291  145  146 1
 292  145  293 1
 293  145  294 1
 294  146  147 1
 295  146  295 1
 296  146  296 1
 297  147  148 1
 298  147  297 1
 299  147  298 1
 300  148  149 1
 301  148  299 1
 302  148  300 1
 303  149  150 1
 304  149  301 1
 305  149  302 1
 306  150  151 1
 307  150  303 1
 308  150  304 1
 309  151  305 1
 310  151  306 1

#	End of record

