#	Name: ASD01908035
#	Creating user name:	WinNT
#	Creation time:	15. 06. 2019 19:54

#	Modifying user name:	WinNT
#	Modification time:	15. 06. 2019 19:54

#	Program:	/corina/corina34_cracker 3.40 0067  02.08.2006

@<TRIPOS>MOLECULE
ASD01908035
  32   33    0    0    0
SMALL
NO_CHARGES


@<TRIPOS>ATOM
   1 C1             0.0021    -0.0041     0.0020 C.1     
   2 C2            -0.0179     1.4678     0.0101 C.3     
   3 C3             1.3959     1.9894    -0.0006 C.2     
   4 N4             0.0175    -1.1399    -0.0042 N.1     
   5 O5             2.3286     1.2137    -0.0137 O.2     
   6 N6             2.6629     5.3810     0.0069 N.pl3   
   7 N7             1.2820     5.6055     0.0212 N.2     
   8 C8             0.6651     4.4570     0.0201 C.2     
   9 C9             1.6443     3.4349     0.0048 C.2     
  10 C10            2.8809     4.0576    -0.0031 C.2     
  11 C11            3.6977     6.4180    -0.0020 C.3     
  12 C12            3.4635     7.3513    -1.1618 C.ar    
  13 C13            2.6688     8.4707    -0.9973 C.ar    
  14 C14            2.4526     9.3278    -2.0590 C.ar    
  15 C15            3.0337     9.0646    -3.2909 C.ar    
  16 C16            3.8307     7.9407    -3.4534 C.ar    
  17 C17            4.0484     7.0898    -2.3871 C.ar    
  18 O18            2.8221     9.9060    -4.3369 O.3     
  19 C19            3.4520     9.5724    -5.5755 C.3     
  20 H20           -0.5451     1.8289    -0.8729 H       
  21 H21           -0.5281     1.8193     0.9069 H       
  22 H22           -0.4049     4.3110     0.0296 H       
  23 H23            3.8435     3.5680    -0.0151 H       
  24 H24            3.6566     6.9803     0.9308 H       
  25 H25            4.6780     5.9522    -0.1027 H       
  26 H26            2.2164     8.6750    -0.0382 H       
  27 H27            1.8314    10.2019    -1.9301 H       
  28 H28            4.2841     7.7336    -4.4115 H       
  29 H29            4.6726     6.2173    -2.5118 H       
  30 H30            4.5327     9.5430    -5.4372 H       
  31 H31            3.1018     8.5958    -5.9097 H       
  32 H32            3.2018    10.3239    -6.3243 H       
@<TRIPOS>BOND
   1    1    2 1
   2    1    4 3
   3    2    3 1
   4    2   20 1
   5    2   21 1
   6    3    5 2
   7    3    9 1
   8    6    7 1
   9    6   10 1
  10    6   11 1
  11    7    8 2
  12    8    9 1
  13    8   22 1
  14    9   10 2
  15   10   23 1
  16   11   12 1
  17   11   24 1
  18   11   25 1
  19   12   13 ar
  20   12   17 ar
  21   13   14 ar
  22   13   26 1
  23   14   15 ar
  24   14   27 1
  25   15   16 ar
  26   15   18 1
  27   16   17 ar
  28   16   28 1
  29   17   29 1
  30   18   19 1
  31   19   30 1
  32   19   31 1
  33   19   32 1

#	End of record

