#	Name: ASD00451016
#	Creating user name:	WinNT
#	Creation time:	15. 06. 2019 18:36

#	Modifying user name:	WinNT
#	Modification time:	15. 06. 2019 18:36

#	Program:	/corina/corina34_cracker 3.40 0067  02.08.2006

@<TRIPOS>MOLECULE
ASD00451016
  49   52    0    0    0
SMALL
NO_CHARGES


@<TRIPOS>ATOM
   1 C1            -0.1167     1.5349     0.0322 C.ar    
   2 C2            -0.1936     0.1514     0.0164 C.ar    
   3 N3             1.1345     2.1696    -0.0113 N.am    
   4 C4            -1.2847     2.2964     0.0856 C.ar    
   5 C5            -1.4259    -0.4744     0.0583 C.ar    
   6 C6             2.1897     1.5417    -0.5669 C.2     
   7 C7            -2.5192     1.6652     0.1227 C.ar    
   8 C8            -2.5887     0.2799     0.1168 C.ar    
   9 O9             2.0765     0.3981    -0.9643 O.2     
  10 N10            3.3705     2.1813    -0.6819 N.am    
  11 O11           -3.7985    -0.3393     0.1527 O.3     
  12 C12            4.4978     1.4917    -1.1421 C.ar    
  13 C13           -4.1894    -0.9075     1.3225 C.ar    
  14 C14            5.5264     2.1809    -1.7706 C.ar    
  15 C15            4.5928     0.1173    -0.9660 C.ar    
  16 C16           -5.4547    -1.4737     1.4558 C.ar    
  17 C17           -3.3338    -0.9456     2.4212 C.ar    
  18 C18            6.6381     1.4973    -2.2233 C.ar    
  19 C19            5.7068    -0.5602    -1.4208 C.ar    
  20 N20           -6.5400    -1.6182     0.5938 N.am    
  21 C21           -5.8213    -2.0489     2.6728 C.ar    
  22 C22           -3.7670    -1.5322     3.5933 C.ar    
  23 C23            6.7273     0.1284    -2.0511 C.ar    
  24 C24           -7.5228    -2.2540     1.2600 C.2     
  25 N25           -7.1182    -2.5215     2.5155 N.am    
  26 N26           -4.9740    -2.0565     3.6908 N.ar    
  27 O27           -8.6126    -2.5380     0.7989 O.2     
  28 H28            1.2396     3.0602     0.3584 H       
  29 H29            3.4388     3.1196    -0.4457 H       
  30 H30           -6.5806    -1.3137    -0.3263 H       
  31 H31           -7.6425    -2.9733     3.1952 H       
  32 S32           -1.1916     4.0558     0.1065 S.3     
  33 C33           -2.9339     4.5558     0.1774 C.3     
  34 C34            7.7547     2.2444    -2.9060 C.3     
  35 F35            8.6889     2.6610    -1.9515 F       
  36 F36            8.3791     1.4040    -3.8338 F       
  37 F37            7.2327     3.3619    -3.5663 F       
  38 H38            0.7098    -0.4387    -0.0291 H       
  39 H39           -1.4833    -1.5528     0.0452 H       
  40 H40           -3.4251     2.2517     0.1641 H       
  41 H41            5.4571     3.2502    -1.9056 H       
  42 H42            3.7964    -0.4209    -0.4736 H       
  43 H43           -2.3428    -0.5213     2.3567 H       
  44 H44            5.7815    -1.6289    -1.2839 H       
  45 H45           -3.1055    -1.5629     4.4464 H       
  46 H46            7.5975    -0.4038    -2.4060 H       
  47 H47           -3.3920     4.1498     1.0793 H       
  48 H48           -2.9993     5.6437     0.1948 H       
  49 H49           -3.4574     4.1743    -0.6993 H       
@<TRIPOS>BOND
   1    1    2 ar
   2    1    3 1
   3    1    4 ar
   4    2    5 ar
   5    2   38 1
   6    3   28 1
   7    3    6 am
   8    4   32 1
   9    4    7 ar
  10    5    8 ar
  11    5   39 1
  12    6    9 2
  13    6   10 am
  14    7    8 ar
  15    7   40 1
  16    8   11 1
  17   10   12 1
  18   10   29 1
  19   11   13 1
  20   12   14 ar
  21   12   15 ar
  22   13   16 ar
  23   13   17 ar
  24   14   18 ar
  25   14   41 1
  26   15   19 ar
  27   15   42 1
  28   16   20 1
  29   16   21 ar
  30   17   22 ar
  31   17   43 1
  32   18   23 ar
  33   18   34 1
  34   19   23 ar
  35   19   44 1
  36   20   30 1
  37   20   24 am
  38   21   26 ar
  39   21   25 1
  40   22   26 ar
  41   22   45 1
  42   23   46 1
  43   24   25 am
  44   24   27 2
  45   25   31 1
  46   32   33 1
  47   33   47 1
  48   33   48 1
  49   33   49 1
  50   34   35 1
  51   34   36 1
  52   34   37 1

#	End of record

