#	Name: ASD01812868
#	Creating user name:	WinNT
#	Creation time:	15. 06. 2019 19:29

#	Modifying user name:	WinNT
#	Modification time:	15. 06. 2019 19:29

#	Program:	/corina/corina34_cracker 3.40 0067  02.08.2006

@<TRIPOS>MOLECULE
ASD01812868
  54   58    0    0    0
SMALL
NO_CHARGES


@<TRIPOS>ATOM
   1 N1             0.0027     1.3184    -0.2224 N.ar    
   2 C2             0.0319     0.0058    -0.3460 C.ar    
   3 C3             1.2340    -0.6843    -0.3682 C.ar    
   4 C4             2.4113     0.0205    -0.2593 C.ar    
   5 C5             2.3614     1.4132    -0.1292 C.ar    
   6 C6             1.1073     2.0395    -0.1145 C.ar    
   7 C7             3.8682    -0.3581    -0.2428 C.3     
   8 N8             4.6151     0.8975    -0.0972 N.am    
   9 C9             3.7395     1.9163    -0.0322 C.2     
  10 C10            6.0736     1.0204    -0.0337 C.3     
  11 C11            6.6239     1.1966    -1.4255 C.ar    
  12 C12            6.7706     2.4670    -1.9528 C.ar    
  13 C13            7.2741     2.6342    -3.2269 C.ar    
  14 C14            7.6354     1.5203    -3.9822 C.ar    
  15 C15            7.4860     0.2429    -3.4458 C.ar    
  16 C16            6.9859     0.0877    -2.1688 C.ar    
  17 O17            1.0259     3.3855     0.0100 O.3     
  18 O18            4.0442     3.0870     0.0899 O.2     
  19 C19           -0.2021     3.9617    -0.0802 C.ar    
  20 C20           -1.0087     4.0614     1.0465 C.ar    
  21 C21           -2.2577     4.6483     0.9509 C.ar    
  22 C22           -2.7025     5.1344    -0.2646 C.ar    
  23 C23           -1.9011     5.0354    -1.3870 C.ar    
  24 C24           -0.6499     4.4562    -1.2961 C.ar    
  25 C25           -4.0638     5.7728    -0.3664 C.3     
  26 F26           -0.5740     3.5855     2.2339 F       
  27 F27           -4.5804     5.5674    -1.6502 F       
  28 F28           -4.9204     5.1979     0.5785 F       
  29 C29            8.1768     1.6938    -5.3527 C.ar    
  30 C30            8.3350     2.9644    -5.9113 C.ar    
  31 N31            8.8188     3.0849    -7.1316 N.ar    
  32 N32            9.1557     2.0692    -7.8391 N.ar    
  33 C33            9.0434     0.8297    -7.3988 C.ar    
  34 C34            8.5520     0.5897    -6.1280 C.ar    
  35 C35            9.4558    -0.3228    -8.2777 C.3     
  36 H36           -0.8959    -0.5406    -0.4310 H       
  37 H37            1.2466    -1.7595    -0.4692 H       
  38 H38            4.0747    -1.0171     0.6004 H       
  39 H39            4.1385    -0.8488    -1.1778 H       
  40 H40            6.3392     1.8853     0.5742 H       
  41 H41            6.4951     0.1196     0.4123 H       
  42 H42            6.4902     3.3296    -1.3665 H       
  43 H43            7.3875     3.6265    -3.6379 H       
  44 H44            7.7645    -0.6238    -4.0269 H       
  45 H45            6.8732    -0.9017    -1.7507 H       
  46 H46           -2.8858     4.7265     1.8260 H       
  47 H47           -2.2518     5.4154    -2.3351 H       
  48 H48           -0.0231     4.3839    -2.1726 H       
  49 H49           -3.9784     6.8427    -0.1761 H       
  50 H50            8.0620     3.8434    -5.3464 H       
  51 H51            8.4571    -0.4167    -5.7478 H       
  52 H52           10.5079    -0.5513    -8.1075 H       
  53 H53            8.8507    -1.1972    -8.0380 H       
  54 H54            9.3071    -0.0537    -9.3234 H       
@<TRIPOS>BOND
   1    1    2 ar
   2    1    6 ar
   3    2    3 ar
   4    2   36 1
   5    3    4 ar
   6    3   37 1
   7    4    7 1
   8    4    5 ar
   9    5    6 ar
  10    5    9 1
  11    6   17 1
  12    7    8 1
  13    7   38 1
  14    7   39 1
  15    8    9 am
  16    8   10 1
  17    9   18 2
  18   10   11 1
  19   10   40 1
  20   10   41 1
  21   11   12 ar
  22   11   16 ar
  23   12   13 ar
  24   12   42 1
  25   13   14 ar
  26   13   43 1
  27   14   15 ar
  28   14   29 1
  29   15   16 ar
  30   15   44 1
  31   16   45 1
  32   17   19 1
  33   19   20 ar
  34   19   24 ar
  35   20   21 ar
  36   20   26 1
  37   21   22 ar
  38   21   46 1
  39   22   23 ar
  40   22   25 1
  41   23   24 ar
  42   23   47 1
  43   24   48 1
  44   25   27 1
  45   25   28 1
  46   25   49 1
  47   29   30 ar
  48   29   34 ar
  49   30   31 ar
  50   30   50 1
  51   31   32 ar
  52   32   33 ar
  53   33   34 ar
  54   33   35 1
  55   34   51 1
  56   35   52 1
  57   35   53 1
  58   35   54 1

#	End of record

