#	Name: ASD04590239
#	Creating user name:	WinNT
#	Creation time:	15. 06. 2019 20:50

#	Modifying user name:	WinNT
#	Modification time:	15. 06. 2019 20:50

#	Program:	/corina/corina34_cracker 3.40 0067  02.08.2006

@<TRIPOS>MOLECULE
ASD04590239
  58   61    0    0    0
SMALL
NO_CHARGES


@<TRIPOS>ATOM
   1 N1            -0.3113     1.1933    -0.4251 N.pl3   
   2 N2            -0.2787    -0.0872    -0.3297 N.2     
   3 C3             0.9195    -0.5386    -0.6470 C.2     
   4 C4             1.7156     0.5893    -0.9749 C.2     
   5 C5             0.8986     1.6652    -0.8216 C.2     
   6 C6             1.3504    -1.9492    -0.6583 C.2     
   7 N7             0.4808    -2.9222    -0.3213 N.am    
   8 N8             3.0608     0.5933    -1.3730 N.am    
   9 O9             2.4902    -2.2342    -0.9715 O.2     
  10 C10            3.6778     1.7589    -1.6511 C.2     
  11 C11            5.0923     1.7632    -2.0697 C.ar    
  12 O12            3.0684     2.8070    -1.5569 O.2     
  13 C13            0.9087    -4.3232    -0.3325 C.3     
  14 C14            2.0254    -6.1258     0.9889 C.3     
  15 C15            1.5784    -4.6626     1.0006 C.3     
  16 C16            6.1088     1.8600    -1.1133 C.ar    
  17 C17            7.4315     1.8633    -1.5144 C.ar    
  18 C18            7.7515     1.7717    -2.8568 C.ar    
  19 C19            6.7530     1.6761    -3.8090 C.ar    
  20 C20            5.4252     1.6646    -3.4251 C.ar    
  21 C21           -0.3090    -5.2269    -0.5361 C.3     
  22 C22            0.1380    -6.6901    -0.5478 C.3     
  23 C23            0.8077    -7.0294     0.7853 C.3     
  24 N24            1.2368    -8.4343     0.7741 N.3     
  25 F25            5.7984     1.9505     0.1985 F       
  26 F26            4.4514     1.5706    -4.3568 F       
  27 C27            1.6297    -8.8738     2.1149 C.3     
  28 C28            2.2919    -8.6530    -0.2181 C.3     
  29 C29            2.4259   -10.1496    -0.5154 C.3     
  30 S30            2.9251   -11.0039     1.0100 S.o2    
  31 C31            1.6629   -10.4042     2.1731 C.3     
  32 O32            2.7490   -12.4021     0.8276 O.2     
  33 O33            4.1926   -10.5067     1.4168 O.2     
  34 H34           -1.0893     1.7436    -0.2440 H       
  35 H35            1.1621     2.6998    -0.9844 H       
  36 H36           -0.4285    -2.6948    -0.0715 H       
  37 H37            3.5469    -0.2427    -1.4482 H       
  38 H38            1.6176    -4.4801    -1.1455 H       
  39 H39            2.7343    -6.2827     0.1759 H       
  40 H40            2.5025    -6.3675     1.9387 H       
  41 H41            2.4460    -4.0188     1.1457 H       
  42 H42            0.8696    -4.5057     1.8136 H       
  43 H43            8.2175     1.9381    -0.7774 H       
  44 H44            8.7871     1.7752    -3.1633 H       
  45 H45            7.0116     1.6056    -4.8552 H       
  46 H46           -1.0179    -5.0700     0.2769 H       
  47 H47           -0.7861    -4.9851    -1.4859 H       
  48 H48           -0.7295    -7.3339    -0.6929 H       
  49 H49            0.8468    -6.8470    -1.3608 H       
  50 H50            0.0988    -6.8725     1.5984 H       
  51 H51            2.6192    -8.4811     2.3493 H       
  52 H52            0.9110    -8.4993     2.8438 H       
  53 H53            2.0407    -8.1224    -1.1365 H       
  54 H54            3.2377    -8.2748     0.1699 H       
  55 H55            1.4681   -10.5417    -0.8574 H       
  56 H56            3.1825   -10.3033    -1.2849 H       
  57 H57            1.9142   -10.7264     3.1836 H       
  58 H58            0.6878   -10.8020     1.8918 H       
@<TRIPOS>BOND
   1    1    2 1
   2    1    5 1
   3    1   34 1
   4    2    3 2
   5    3    4 1
   6    3    6 1
   7    4    5 2
   8    4    8 1
   9    5   35 1
  10    6    7 am
  11    6    9 2
  12    7   13 1
  13    7   36 1
  14    8   10 am
  15    8   37 1
  16   10   12 2
  17   10   11 1
  18   11   16 ar
  19   11   20 ar
  20   13   21 1
  21   13   15 1
  22   13   38 1
  23   14   15 1
  24   14   23 1
  25   14   39 1
  26   14   40 1
  27   15   41 1
  28   15   42 1
  29   16   17 ar
  30   16   25 1
  31   17   18 ar
  32   17   43 1
  33   18   19 ar
  34   18   44 1
  35   19   20 ar
  36   19   45 1
  37   20   26 1
  38   21   22 1
  39   21   46 1
  40   21   47 1
  41   22   23 1
  42   22   48 1
  43   22   49 1
  44   23   24 1
  45   23   50 1
  46   24   27 1
  47   24   28 1
  48   27   31 1
  49   27   51 1
  50   27   52 1
  51   28   29 1
  52   28   53 1
  53   28   54 1
  54   29   30 1
  55   29   55 1
  56   29   56 1
  57   30   31 1
  58   30   32 2
  59   30   33 2
  60   31   57 1
  61   31   58 1

#	End of record

