#	Name: ASD02198738
#	Creating user name:	WinNT
#	Creation time:	15. 06. 2019 20:20

#	Modifying user name:	WinNT
#	Modification time:	15. 06. 2019 20:20

#	Program:	/corina/corina34_cracker 3.40 0067  02.08.2006

@<TRIPOS>MOLECULE
ASD02198738
  53   57    0    0    0
SMALL
NO_CHARGES


@<TRIPOS>ATOM
   1 C1            -0.2510     1.3403    -0.4198 C.2     
   2 C2            -0.3011    -0.0038    -0.2403 C.2     
   3 N3             0.8153    -0.7052     0.0584 N.pl3   
   4 N4             1.9709    -0.1664     0.1907 N.2     
   5 C5             2.1598     1.1276     0.0432 C.2     
   6 C6             1.0049     1.9788    -0.2839 C.2     
   7 C7             0.7037    -2.0890     0.2324 C.ar    
   8 C8             1.1545    -2.6827     1.4108 C.ar    
   9 C9             1.0427    -4.0525     1.5800 C.ar    
  10 C10            0.4823    -4.8314     0.5765 C.ar    
  11 C11            0.0340    -4.2374    -0.5974 C.ar    
  12 C12            0.1386    -2.8717    -0.7660 C.ar    
  13 C13            3.5056     1.7146     0.2034 C.2     
  14 N14            4.1734     2.4769    -0.7134 N.pl3   
  15 N15            5.4113     2.8247    -0.1585 N.2     
  16 C16            5.4979     2.3017     1.0386 C.2     
  17 C17            4.3218     1.6017     1.3076 C.2     
  18 C18            3.7040     2.8445    -1.9808 C.ar    
  19 C19            3.8980     4.1384    -2.4464 C.ar    
  20 C20            3.4343     4.4976    -3.6968 C.ar    
  21 C21            2.7774     3.5704    -4.4849 C.ar    
  22 C22            2.5823     2.2813    -4.0240 C.ar    
  23 C23            3.0486     1.9143    -2.7768 C.ar    
  24 O24            1.1250     3.1859    -0.4320 O.2     
  25 N25            0.3692    -6.2148     0.7469 N.am    
  26 C26           -0.1326    -6.8450     1.8285 C.2     
  27 N27            0.7511    -7.1957    -0.1779 N.pl3   
  28 C28            0.4781    -8.4203     0.3627 C.2     
  29 C29           -0.0609    -8.2364     1.5850 C.2     
  30 O30           -0.5683    -6.3124     2.8334 O.2     
  31 C31            1.3407    -6.9506    -1.4964 C.3     
  32 F32            2.5455    -7.6530    -1.6064 F       
  33 F33            0.4563    -7.3831    -2.4904 F       
  34 O34            1.7031    -1.9183     2.3915 O.3     
  35 C35            2.1432    -2.5941     3.5711 C.3     
  36 H36           -1.1396     1.9039    -0.6628 H       
  37 H37           -1.2450    -0.5197    -0.3370 H       
  38 H38            1.3915    -4.5147     2.4917 H       
  39 H39           -0.4009    -4.8451    -1.3771 H       
  40 H40           -0.2103    -2.4124    -1.6791 H       
  41 H41            6.3392     2.3996     1.7087 H       
  42 H42            4.0944     1.0629     2.2156 H       
  43 H43            4.4106     4.8631    -1.8312 H       
  44 H44            3.5845     5.5038    -4.0593 H       
  45 H45            2.4158     3.8537    -5.4623 H       
  46 H46            2.0686     1.5595    -4.6417 H       
  47 H47            2.8962     0.9073    -2.4175 H       
  48 H48            0.6603    -9.3740    -0.1101 H       
  49 H49           -0.3814    -9.0158     2.2605 H       
  50 H50            1.5296    -5.8839    -1.6173 H       
  51 H51            1.2982    -3.1032     4.0348 H       
  52 H52            2.9076    -3.3250     3.3074 H       
  53 H53            2.5594    -1.8696     4.2711 H       
@<TRIPOS>BOND
   1    1    2 2
   2    1    6 1
   3    1   36 1
   4    2    3 1
   5    2   37 1
   6    3    4 1
   7    3    7 1
   8    4    5 2
   9    5    6 1
  10    5   13 1
  11    6   24 2
  12    7    8 ar
  13    7   12 ar
  14    8    9 ar
  15    8   34 1
  16    9   10 ar
  17    9   38 1
  18   10   11 ar
  19   10   25 1
  20   11   12 ar
  21   11   39 1
  22   12   40 1
  23   13   14 1
  24   13   17 2
  25   14   15 1
  26   14   18 1
  27   15   16 2
  28   16   17 1
  29   16   41 1
  30   17   42 1
  31   18   19 ar
  32   18   23 ar
  33   19   20 ar
  34   19   43 1
  35   20   21 ar
  36   20   44 1
  37   21   22 ar
  38   21   45 1
  39   22   23 ar
  40   22   46 1
  41   23   47 1
  42   25   27 1
  43   25   26 am
  44   26   30 2
  45   26   29 1
  46   27   28 1
  47   27   31 1
  48   28   29 2
  49   28   48 1
  50   29   49 1
  51   31   32 1
  52   31   33 1
  53   31   50 1
  54   34   35 1
  55   35   51 1
  56   35   52 1
  57   35   53 1

#	End of record

