#	Name: ASD09116134
#	Creating user name:	WinNT
#	Creation time:	15. 06. 2019 21:20

#	Modifying user name:	WinNT
#	Modification time:	15. 06. 2019 21:20

#	Program:	/corina/corina34_cracker 3.40 0067  02.08.2006

@<TRIPOS>MOLECULE
ASD09116134
  69   75    0    0    0
SMALL
NO_CHARGES


@<TRIPOS>ATOM
   1 N1            -0.1060     1.7945    -0.6152 N.2     
   2 C2            -0.1422     0.4021    -1.0965 C.3     
   3 C3             1.1513     2.1450    -0.5950 C.2     
   4 N4             1.9757     1.1593    -1.0046 N.2     
   5 C5             1.3201     0.0753    -1.3285 C.2     
   6 N6             1.5902     3.3916    -0.1970 N.pl3   
   7 C7             2.9631     3.6525    -0.0992 C.ar    
   8 C8             3.4467     4.9288    -0.3526 C.ar    
   9 C9             3.8395     2.6354     0.2567 C.ar    
  10 C10            5.1939     2.8931     0.3531 C.ar    
  11 C11            5.6781     4.1709     0.0935 C.ar    
  12 C12            4.8006     5.1871    -0.2568 C.ar    
  13 N13            1.8403    -1.0979    -1.7791 N.pl3   
  14 C14           -0.7305    -0.5074    -0.0488 C.ar    
  15 N15           -0.3559    -0.3620     1.2065 N.ar    
  16 N16           -1.6099    -1.4226    -0.4159 N.ar    
  17 C17           -2.1389    -2.2296     0.4772 C.ar    
  18 C18           -1.7626    -2.1098     1.8112 C.ar    
  19 C19           -0.8487    -1.1421     2.1604 C.ar    
  20 C20           -3.1573    -3.3658     0.3925 C.3     
  21 C21           -4.4298    -2.7979     1.0978 C.3     
  22 C22           -4.0098    -2.6648     2.5813 C.3     
  23 C23           -2.5305    -3.1659     2.6024 C.3     
  24 C24           -2.6085    -4.3103     1.5250 C.3     
  25 N25            7.0509     4.4333     0.1914 N.3     
  26 C26            7.5901     4.9009    -1.0919 C.3     
  27 C27            7.7790     3.2534     0.6751 C.3     
  28 C28            9.2469     3.6182     0.9078 C.3     
  29 C29            9.8584     4.1159    -0.4048 C.3     
  30 C30            9.0524     5.3149    -0.9119 C.3     
  31 N31           11.2511     4.5227    -0.1744 N.3     
  32 C32           12.0707     3.3774     0.2622 C.3     
  33 C33           13.2422     3.2475    -0.7338 C.3     
  34 C34           13.3387     4.6692    -1.3473 C.3     
  35 C35           11.8482     5.0876    -1.4033 C.3     
  36 F36            6.0470     1.9045     0.6997 F       
  37 H37           -0.7068     0.3313    -2.0262 H       
  38 H38            0.9481     4.0870     0.0150 H       
  39 H39            2.7642     5.7203    -0.6250 H       
  40 H40            3.4627     1.6436     0.4585 H       
  41 H41            5.1764     6.1793    -0.4584 H       
  42 H42            2.7993    -1.1923    -1.8903 H       
  43 H43            1.2523    -1.8402    -1.9892 H       
  44 H44           -0.5359    -1.0232     3.1872 H       
  45 H45           -3.3087    -3.8046    -0.5938 H       
  46 H46           -4.6917    -1.8231     0.6861 H       
  47 H47           -5.2640    -3.4924     0.9978 H       
  48 H48           -4.0654    -1.6247     2.9023 H       
  49 H49           -4.6355    -3.2948     3.2135 H       
  50 H50           -2.1238    -3.4264     3.5795 H       
  51 H51           -3.3214    -5.0886     1.7976 H       
  52 H52           -1.6279    -4.7206     1.2840 H       
  53 H53            7.5278     4.0978    -1.8263 H       
  54 H54            7.0106     5.7563    -1.4393 H       
  55 H55            7.3368     2.9121     1.6110 H       
  56 H56            7.7158     2.4580    -0.0676 H       
  57 H57            9.3117     4.4040     1.6605 H       
  58 H58            9.7904     2.7382     1.2519 H       
  59 H59            9.8291     3.3174    -1.1461 H       
  60 H60            9.4569     5.6471    -1.8680 H       
  61 H61            9.1141     6.1274    -0.1879 H       
  62 H62           12.4556     3.5582     1.2659 H       
  63 H63           11.4716     2.4669     0.2508 H       
  64 H64           14.1642     2.9893    -0.2129 H       
  65 H65           13.0137     2.5103    -1.5035 H       
  66 H66           13.9074     5.3363    -0.6995 H       
  67 H67           13.7723     4.6346    -2.3467 H       
  68 H68           11.3686     4.6660    -2.2867 H       
  69 H69           11.7588     6.1739    -1.4038 H       
@<TRIPOS>BOND
   1    1    2 1
   2    1    3 2
   3    2   14 1
   4    2    5 1
   5    2   37 1
   6    3    4 1
   7    3    6 1
   8    4    5 2
   9    5   13 1
  10    6    7 1
  11    6   38 1
  12    7    8 ar
  13    7    9 ar
  14    8   12 ar
  15    8   39 1
  16    9   10 ar
  17    9   40 1
  18   10   11 ar
  19   10   36 1
  20   11   12 ar
  21   11   25 1
  22   12   41 1
  23   13   42 1
  24   13   43 1
  25   14   15 ar
  26   14   16 ar
  27   15   19 ar
  28   16   17 ar
  29   17   18 ar
  30   17   20 1
  31   18   19 ar
  32   18   23 1
  33   19   44 1
  34   20   21 1
  35   20   24 1
  36   20   45 1
  37   21   22 1
  38   21   46 1
  39   21   47 1
  40   22   23 1
  41   22   48 1
  42   22   49 1
  43   23   24 1
  44   23   50 1
  45   24   51 1
  46   24   52 1
  47   25   26 1
  48   25   27 1
  49   26   30 1
  50   26   53 1
  51   26   54 1
  52   27   28 1
  53   27   55 1
  54   27   56 1
  55   28   29 1
  56   28   57 1
  57   28   58 1
  58   29   30 1
  59   29   31 1
  60   29   59 1
  61   30   60 1
  62   30   61 1
  63   31   32 1
  64   31   35 1
  65   32   33 1
  66   32   62 1
  67   32   63 1
  68   33   34 1
  69   33   64 1
  70   33   65 1
  71   34   35 1
  72   34   66 1
  73   34   67 1
  74   35   68 1
  75   35   69 1

#	End of record

