#	Name: ASD01882015
#	Creating user name:	WinNT
#	Creation time:	15. 06. 2019 19:43

#	Modifying user name:	WinNT
#	Modification time:	15. 06. 2019 19:43

#	Program:	/corina/corina34_cracker 3.40 0067  02.08.2006

@<TRIPOS>MOLECULE
ASD01882015
  54   58    0    0    0
SMALL
NO_CHARGES


@<TRIPOS>ATOM
   1 N1             0.1080     1.0515    -0.1604 N.pl3   
   2 N2             0.1766    -0.3491    -0.1957 N.2     
   3 N3             1.4091    -0.7173    -0.2050 N.2     
   4 C4             2.2199     0.3593    -0.1779 C.ar    
   5 C5             1.4072     1.5057    -0.1490 C.ar    
   6 C6             3.6138     0.5081    -0.1742 C.ar    
   7 C7             4.1645     1.7728    -0.1424 C.ar    
   8 C8             3.3460     2.8992    -0.1135 C.ar    
   9 C9             1.9857     2.7695    -0.1172 C.ar    
  10 O10            5.5165     1.9205    -0.1387 O.3     
  11 C11            6.0231     3.2563    -0.1051 C.3     
  12 N12           10.1040     3.7607     0.9896 N.am    
  13 C13            9.6260     4.6149    -0.1060 C.3     
  14 C14            8.0950     4.6524    -0.0701 C.3     
  15 C15            7.5527     3.2218    -0.1061 C.3     
  16 C16            8.0462     2.4562     1.1238 C.3     
  17 C17            9.5767     2.3939     1.1014 C.3     
  18 C18            8.0460     2.5214    -1.3738 C.3     
  19 C19           11.0132     4.2202     1.8721 C.2     
  20 O20           11.5272     5.3081     1.7038 O.2     
  21 O21           11.3607     1.8375     4.4272 O.3     
  22 N22           10.8365     2.2708     3.4276 N.2     
  23 C23           11.3863     3.3977     3.0487 C.2     
  24 C24           12.4140     3.6731     3.9932 C.2     
  25 C25           12.3497     2.6334     4.8568 C.2     
  26 C26           -1.1071     1.8698    -0.1451 C.3     
  27 C27           -1.5363     2.1185     1.3022 C.3     
  28 C28           -2.7236     3.0546     1.5360 C.3     
  29 C29           -2.8843     1.5478     1.7474 C.3     
  30 Cl30           4.6412    -0.8908    -0.2089 Cl      
  31 H31            3.7901     3.8834    -0.0880 H       
  32 H32            1.3596     3.6493    -0.0953 H       
  33 H33            5.6714     3.8004    -0.9817 H       
  34 H34            5.6715     3.7556     0.7977 H       
  35 H35           10.0193     5.6238     0.0190 H       
  36 H36            9.9592     4.2063    -1.0600 H       
  37 H37            7.7645     5.1438     0.8450 H       
  38 H38            7.7242     5.2039    -0.9340 H       
  39 H39            7.7161     2.9683     2.0277 H       
  40 H40            7.6406     1.4446     1.1096 H       
  41 H41            9.9058     1.8041     0.2458 H       
  42 H42            9.9373     1.9373     2.0231 H       
  43 H43            7.6942     3.0660    -2.2500 H       
  44 H44            9.1357     2.4967    -1.3747 H       
  45 H45            7.6594     1.5026    -1.3999 H       
  46 H46           13.0888     4.5160     4.0156 H       
  47 H47           12.9736     2.4758     5.7242 H       
  48 H48           -0.9091     2.8234    -0.6344 H       
  49 H49           -1.9034     1.3477    -0.6756 H       
  50 H50           -0.7298     2.1357     2.0354 H       
  51 H51           -2.6986     3.6874     2.4232 H       
  52 H52           -3.1990     3.4933     0.6587 H       
  53 H53           -3.4653     0.9952     1.0091 H       
  54 H54           -2.9649     1.1893     2.7735 H       
@<TRIPOS>BOND
   1    1    2 1
   2    1    5 1
   3    1   26 1
   4    2    3 2
   5    3    4 1
   6    4    5 ar
   7    4    6 ar
   8    5    9 ar
   9    6    7 ar
  10    6   30 1
  11    7    8 ar
  12    7   10 1
  13    8    9 ar
  14    8   31 1
  15    9   32 1
  16   10   11 1
  17   11   15 1
  18   11   33 1
  19   11   34 1
  20   12   13 1
  21   12   17 1
  22   12   19 am
  23   13   14 1
  24   13   35 1
  25   13   36 1
  26   14   15 1
  27   14   37 1
  28   14   38 1
  29   15   16 1
  30   15   18 1
  31   16   17 1
  32   16   39 1
  33   16   40 1
  34   17   41 1
  35   17   42 1
  36   18   43 1
  37   18   44 1
  38   18   45 1
  39   19   20 2
  40   19   23 1
  41   21   22 1
  42   21   25 1
  43   22   23 2
  44   23   24 1
  45   24   25 2
  46   24   46 1
  47   25   47 1
  48   26   27 1
  49   26   48 1
  50   26   49 1
  51   27   28 1
  52   27   29 1
  53   27   50 1
  54   28   29 1
  55   28   51 1
  56   28   52 1
  57   29   53 1
  58   29   54 1

#	End of record

