#	Name: ASD03540417
#	Creating user name:	WinNT
#	Creation time:	15. 06. 2019 20:43

#	Modifying user name:	WinNT
#	Modification time:	15. 06. 2019 20:43

#	Program:	/corina/corina34_cracker 3.40 0067  02.08.2006

@<TRIPOS>MOLECULE
ASD03540417
  55   57    0    0    0
SMALL
NO_CHARGES


@<TRIPOS>ATOM
   1 N1            -0.2767     1.2842    -0.0337 N.am    
   2 C2            -0.1668    -0.0551    -0.0232 C.2     
   3 N3             1.0160    -0.6892    -0.0412 N.am    
   4 C4             2.1785    -0.0019    -0.0714 C.2     
   5 C5             2.1175     1.4713    -0.0847 C.ar    
   6 C6             3.2683     2.2488    -0.1150 C.ar    
   7 C7             3.1519     3.6382    -0.1259 C.ar    
   8 C8             1.8861     4.2368    -0.1064 C.ar    
   9 C9             0.7545     3.4717    -0.0760 C.ar    
  10 C10            0.8508     2.0860    -0.0647 C.ar    
  11 C11            4.3649     4.4795    -0.1577 C.2     
  12 O12            5.4643     3.9606    -0.1743 O.2     
  13 N13            4.2534     5.8226    -0.1682 N.am    
  14 C14            5.4569     6.6573    -0.1997 C.3     
  15 C15            5.0600     8.1110    -0.2057 C.ar    
  16 C16            4.9016     8.7882     0.9893 C.ar    
  17 C17            4.5378    10.1209     0.9865 C.ar    
  18 C18            4.3313    10.7797    -0.2168 C.ar    
  19 C19            4.4908    10.0981    -1.4145 C.ar    
  20 C20            4.8602     8.7669    -1.4064 C.ar    
  21 O21            3.9729    12.0906    -0.2222 O.3     
  22 C22            3.7771    12.7044    -1.4977 C.3     
  23 O23            3.2466    -0.5825    -0.0868 O.2     
  24 O24           -1.1832    -0.7215     0.0042 O.2     
  25 C25            1.0468    -2.1538    -0.0274 C.3     
  26 C26            1.0283    -2.6700    -1.4431 C.2     
  27 C27            0.1183    -3.5371    -1.8123 C.2     
  28 C28           -0.8253    -4.1197    -0.7919 C.3     
  29 C29            0.0152    -3.9520    -3.2574 C.3     
  30 C30           -1.6049     1.9021    -0.0182 C.3     
  31 H31            4.2422     1.7823    -0.1297 H       
  32 H32            1.8035     5.3136    -0.1150 H       
  33 H33           -0.2162     3.9450    -0.0604 H       
  34 H34            3.3762     6.2365    -0.1550 H       
  35 H35            6.0656     6.4505     0.6805 H       
  36 H36            6.0308     6.4336    -1.0990 H       
  37 H37            5.0622     8.2747     1.9258 H       
  38 H38            4.4139    10.6492     1.9202 H       
  39 H39            4.3305    10.6088    -2.3525 H       
  40 H40            4.9892     8.2371    -2.3386 H       
  41 H41            4.7018    12.6512    -2.0723 H       
  42 H42            2.9852    12.1820    -2.0346 H       
  43 H43            3.4949    13.7481    -1.3593 H       
  44 H44            1.9546    -2.4934     0.4713 H       
  45 H45            0.1754    -2.5306     0.5081 H       
  46 H46            1.7651    -2.3251    -2.1534 H       
  47 H47           -1.6688    -3.4441    -0.6496 H       
  48 H48           -1.1885    -5.0856    -1.1427 H       
  49 H49           -0.3010    -4.2506     0.1547 H       
  50 H50            0.7739    -3.4299    -3.8403 H       
  51 H51            0.1710    -5.0277    -3.3385 H       
  52 H52           -0.9741    -3.6984    -3.6385 H       
  53 H53           -2.3676     1.1237     0.0011 H       
  54 H54           -1.7035     2.5294     0.8678 H       
  55 H55           -1.7318     2.5131    -0.9119 H       
@<TRIPOS>BOND
   1    1    2 am
   2    1   10 1
   3    1   30 1
   4    2    3 am
   5    2   24 2
   6    3    4 am
   7    3   25 1
   8    4    5 1
   9    4   23 2
  10    5    6 ar
  11    5   10 ar
  12    6    7 ar
  13    6   31 1
  14    7    8 ar
  15    7   11 1
  16    8    9 ar
  17    8   32 1
  18    9   10 ar
  19    9   33 1
  20   11   12 2
  21   11   13 am
  22   13   14 1
  23   13   34 1
  24   14   15 1
  25   14   35 1
  26   14   36 1
  27   15   16 ar
  28   15   20 ar
  29   16   17 ar
  30   16   37 1
  31   17   18 ar
  32   17   38 1
  33   18   19 ar
  34   18   21 1
  35   19   20 ar
  36   19   39 1
  37   20   40 1
  38   21   22 1
  39   22   41 1
  40   22   42 1
  41   22   43 1
  42   25   26 1
  43   25   44 1
  44   25   45 1
  45   26   27 2
  46   26   46 1
  47   27   28 1
  48   27   29 1
  49   28   47 1
  50   28   48 1
  51   28   49 1
  52   29   50 1
  53   29   51 1
  54   29   52 1
  55   30   53 1
  56   30   54 1
  57   30   55 1

#	End of record

