#	Name: ASD02448107
#	Creating user name:	WinNT
#	Creation time:	15. 06. 2019 20:21

#	Modifying user name:	WinNT
#	Modification time:	15. 06. 2019 20:21

#	Program:	/corina/corina34_cracker 3.40 0067  02.08.2006

@<TRIPOS>MOLECULE
ASD02448107
  76   81    0    0    0
SMALL
NO_CHARGES


@<TRIPOS>ATOM
   1 C1             3.3181    -7.4083    -1.0997 C.ar    
   2 C2             2.8027    -6.2967    -0.4639 C.ar    
   3 C3             2.1988    -5.2903    -1.2054 C.ar    
   4 C4             2.1125    -5.4016    -2.5865 C.ar    
   5 C5             2.6277    -6.5129    -3.2231 C.ar    
   6 C6             3.2324    -7.5198    -2.4816 C.ar    
   7 N7             3.7547    -8.6453    -3.1261 N.am    
   8 C8             4.8252    -9.5365    -2.6602 C.3     
   9 C9             5.0896   -10.6294    -3.6449 C.2     
  10 N10            4.3206   -10.5946    -4.7424 N.am    
  11 S11            3.2998    -9.2878    -4.5970 S.o2    
  12 O12            5.9342   -11.4810    -3.4652 O.2     
  13 O13            1.9822    -9.7994    -4.4498 O.2     
  14 O14            3.6786    -8.3471    -5.5923 O.2     
  15 N15            1.6748    -4.1603    -0.5585 N.pl3   
  16 C16            0.7437    -4.1584     0.4450 C.2     
  17 C17            2.0020    -2.8654    -0.8079 C.2     
  18 N18            1.3135    -2.0956    -0.0119 N.2     
  19 C19            0.5270    -2.8581     0.7745 C.2     
  20 C20           -0.4087    -2.3648     1.8147 C.ar    
  21 C21           -0.5335    -0.9959     2.0515 C.ar    
  22 C22           -1.1701    -3.2670     2.5545 C.ar    
  23 C23           -2.0393    -2.8033     3.5213 C.ar    
  24 C24           -2.1557    -1.4442     3.7568 C.ar    
  25 C25           -1.4060    -0.5425     3.0210 C.ar    
  26 Cl26          -3.2514    -0.8681     4.9739 Cl      
  27 Cl27           0.4066     0.1355     1.1296 Cl      
  28 C28            2.9983    -2.3956    -1.8363 C.3     
  29 C29            4.3370    -2.1821    -1.1780 C.ar    
  30 C30            5.2086    -3.2457    -1.0281 C.ar    
  31 C31            4.6919    -0.9222    -0.7309 C.ar    
  32 C32            5.9167    -0.7210    -0.1273 C.ar    
  33 C33            6.7962    -1.7900     0.0314 C.ar    
  34 C34            6.4358    -3.0558    -0.4258 C.ar    
  35 C35            8.1144    -1.5798     0.6797 C.ar    
  36 C36            8.4765    -0.3118     1.1319 C.ar    
  37 C37            8.9902    -2.6493     0.8431 C.ar    
  38 C38           10.2208    -2.4463     1.4504 C.ar    
  39 C39           10.5755    -1.1778     1.8933 C.ar    
  40 C40            9.7031    -0.1176     1.7348 C.ar    
  41 C41           11.9125    -0.9587     2.5533 C.3     
  42 C42           12.9780    -0.7230     1.4809 C.3     
  43 N43           11.1029    -3.5166     1.6170 N.pl3   
  44 C44           12.6749     0.5799     0.7384 C.3     
  45 C45           14.3542    -0.6247     2.1424 C.3     
  46 H46            3.7918    -8.1891    -0.5232 H       
  47 H47            2.8689    -6.2101     0.6106 H       
  48 H48            1.6420    -4.6188    -3.1629 H       
  49 H49            2.5603    -6.5995    -4.2975 H       
  50 H50            5.7366    -8.9558    -2.5182 H       
  51 H51            4.5330    -9.9776    -1.7072 H       
  52 H52            4.3513   -11.2188    -5.4843 H       
  53 H53            0.2726    -5.0230     0.8889 H       
  54 H54           -1.0806    -4.3277     2.3717 H       
  55 H55           -2.6300    -3.5021     4.0948 H       
  56 H56           -1.5005     0.5169     3.2085 H       
  57 H57            3.0943    -3.1477    -2.6194 H       
  58 H58            2.6547    -1.4580    -2.2733 H       
  59 H59            4.9281    -4.2265    -1.3826 H       
  60 H60            4.0096    -0.0943    -0.8548 H       
  61 H61            6.1930     0.2632     0.2211 H       
  62 H62            7.1138    -3.8879    -0.3053 H       
  63 H63            7.7973     0.5190     1.0101 H       
  64 H64            8.7122    -3.6344     0.4985 H       
  65 H65            9.9832     0.8664     2.0806 H       
  66 H66           11.8565    -0.0886     3.2074 H       
  67 H67           12.1763    -1.8383     3.1405 H       
  68 H68           12.9728    -1.5533     0.7748 H       
  69 H69           10.8549    -4.4020     1.3081 H       
  70 H70           11.9633    -3.3744     2.0417 H       
  71 H71           13.4340     0.7478    -0.0256 H       
  72 H72           11.6945     0.5099     0.2672 H       
  73 H73           12.6801     1.4102     1.4445 H       
  74 H74           14.5702    -1.5529     2.6714 H       
  75 H75           15.1133    -0.4568     1.3784 H       
  76 H76           14.3595     0.2056     2.8485 H       
@<TRIPOS>BOND
   1    1    2 ar
   2    1    6 ar
   3    1   46 1
   4    2    3 ar
   5    2   47 1
   6    3    4 ar
   7    3   15 1
   8    4    5 ar
   9    4   48 1
  10    5    6 ar
  11    5   49 1
  12    6    7 1
  13    7    8 1
  14    7   11 am
  15    8    9 1
  16    8   50 1
  17    8   51 1
  18    9   10 am
  19    9   12 2
  20   10   11 am
  21   10   52 1
  22   11   13 2
  23   11   14 2
  24   15   16 1
  25   15   17 1
  26   16   19 2
  27   16   53 1
  28   17   18 2
  29   17   28 1
  30   18   19 1
  31   19   20 1
  32   20   21 ar
  33   20   22 ar
  34   21   27 1
  35   21   25 ar
  36   22   23 ar
  37   22   54 1
  38   23   24 ar
  39   23   55 1
  40   24   25 ar
  41   24   26 1
  42   25   56 1
  43   28   29 1
  44   28   57 1
  45   28   58 1
  46   29   30 ar
  47   29   31 ar
  48   30   34 ar
  49   30   59 1
  50   31   32 ar
  51   31   60 1
  52   32   33 ar
  53   32   61 1
  54   33   34 ar
  55   33   35 1
  56   34   62 1
  57   35   36 ar
  58   35   37 ar
  59   36   40 ar
  60   36   63 1
  61   37   38 ar
  62   37   64 1
  63   38   39 ar
  64   38   43 1
  65   39   41 1
  66   39   40 ar
  67   40   65 1
  68   41   42 1
  69   41   66 1
  70   41   67 1
  71   42   44 1
  72   42   45 1
  73   42   68 1
  74   43   69 1
  75   43   70 1
  76   44   71 1
  77   44   72 1
  78   44   73 1
  79   45   74 1
  80   45   75 1
  81   45   76 1

#	End of record

