#	Name: ASD01881407
#	Creating user name:	WinNT
#	Creation time:	15. 06. 2019 19:42

#	Modifying user name:	WinNT
#	Modification time:	15. 06. 2019 19:42

#	Program:	/corina/corina34_cracker 3.40 0067  02.08.2006

@<TRIPOS>MOLECULE
ASD01881407
  53   57    0    0    0
SMALL
NO_CHARGES


@<TRIPOS>ATOM
   1 C1            -0.0187     1.5258     0.0104 C.3     
   2 Cl2            0.3502     8.5419     0.4559 Cl      
   3 C3             1.1237    10.0902     4.2867 C.ar    
   4 C4             1.3128     9.0027     3.4608 C.ar    
   5 C5            -0.0126    10.1709     5.0828 C.ar    
   6 C6            -0.9625     9.1543     5.0486 C.ar    
   7 C7            -0.7779     8.0647     4.2242 C.ar    
   8 C8             0.3626     7.9822     3.4242 C.ar    
   9 C9             0.5634     6.8130     2.5372 C.2     
  10 C10            0.5735     6.9722     1.1630 C.2     
  11 C11            0.7529     5.5219     3.0875 C.2     
  12 C12            0.9357     4.4608     2.2798 C.2     
  13 N13            0.9421     4.6073     0.9221 N.pl3   
  14 C14            0.7670     5.8430     0.3476 C.2     
  15 C15            1.0994     3.7357    -0.1122 C.2     
  16 N16            1.0158     4.4224    -1.2224 N.2     
  17 N17            0.8203     5.6676    -0.9639 N.2     
  18 C18            1.3287     2.2506     0.0015 C.3     
  19 Cl19          -2.3804     9.2581     6.0448 Cl      
  20 N20           -0.2012    11.2731     5.9185 N.pl3   
  21 C21            0.7982    12.3436     5.9558 C.3     
  22 C22            0.1335    13.6465     6.4046 C.3     
  23 C23            1.9077    11.9713     6.9413 C.3     
  24 C24            1.3087    11.7840     8.3367 C.3     
  25 C25            0.6440    13.0869     8.7855 C.3     
  26 C26           -0.4656    13.4592     7.7999 C.3     
  27 C27            0.0021    -0.0041     0.0020 C.3     
  28 C28           -0.3944     0.7486     1.2737 C.3     
  29 O29            0.0845    12.9119    10.0887 O.3     
  30 H30           -0.8227     2.0212    -0.5339 H       
  31 H31            1.8616    10.8783     4.3184 H       
  32 H32            2.1959     8.9411     2.8422 H       
  33 H33           -1.5149     7.2757     4.1979 H       
  34 H34            0.7506     5.3882     4.1592 H       
  35 H35            1.0799     3.4812     2.7110 H       
  36 H36            1.8633     2.0353     0.9266 H       
  37 H37            1.9198     1.9082    -0.8479 H       
  38 H38           -0.9940    11.3302     6.4744 H       
  39 H39            1.2249    12.4770     4.9617 H       
  40 H40            0.8771    14.4430     6.4323 H       
  41 H41           -0.6570    13.9117     5.7025 H       
  42 H42            2.3813    11.0431     6.6216 H       
  43 H43            2.6513    12.7678     6.9691 H       
  44 H44            0.5651    10.9875     8.3089 H       
  45 H45            2.0991    11.5187     9.0388 H       
  46 H46            1.3876    13.8834     8.8132 H       
  47 H47           -0.9391    14.3874     8.1196 H       
  48 H48           -1.2092    12.6627     7.7722 H       
  49 H49           -0.7885    -0.5151    -0.5475 H       
  50 H50            0.9756    -0.4941    -0.0099 H       
  51 H51            0.3183     0.7538     2.0984 H       
  52 H52           -1.4458     0.7328     1.5608 H       
  53 H53           -0.3543    13.6999    10.4374 H       
@<TRIPOS>BOND
   1    1   27 1
   2    1   18 1
   3    1   28 1
   4    1   30 1
   5    2   10 1
   6    3    4 ar
   7    3    5 ar
   8    3   31 1
   9    4    8 ar
  10    4   32 1
  11    5    6 ar
  12    5   20 1
  13    6    7 ar
  14    6   19 1
  15    7    8 ar
  16    7   33 1
  17    8    9 1
  18    9   10 2
  19    9   11 1
  20   10   14 1
  21   11   12 2
  22   11   34 1
  23   12   13 1
  24   12   35 1
  25   13   14 1
  26   13   15 1
  27   14   17 2
  28   15   16 2
  29   15   18 1
  30   16   17 1
  31   18   36 1
  32   18   37 1
  33   20   21 1
  34   20   38 1
  35   21   22 1
  36   21   23 1
  37   21   39 1
  38   22   26 1
  39   22   40 1
  40   22   41 1
  41   23   24 1
  42   23   42 1
  43   23   43 1
  44   24   25 1
  45   24   44 1
  46   24   45 1
  47   25   26 1
  48   25   29 1
  49   25   46 1
  50   26   47 1
  51   26   48 1
  52   27   28 1
  53   27   49 1
  54   27   50 1
  55   28   51 1
  56   28   52 1
  57   29   53 1

#	End of record

