#	Name: ASD02030723
#	Creating user name:	WinNT
#	Creation time:	15. 06. 2019 20:15

#	Modifying user name:	WinNT
#	Modification time:	15. 06. 2019 20:15

#	Program:	/corina/corina34_cracker 3.40 0067  02.08.2006

@<TRIPOS>MOLECULE
ASD02030723
  31   33    0    0    0
SMALL
NO_CHARGES


@<TRIPOS>ATOM
   1 N1            -0.0169     1.3957     0.0097 N.2     
   2 N2             0.0021    -0.0041     0.0020 N.am    
   3 C3             1.1646    -0.6797    -0.0123 C.2     
   4 N4             2.3448    -0.0325    -0.0200 N.am    
   5 C5             2.3757     1.3164    -0.0131 C.2     
   6 C6             1.1074     2.0610     0.0026 C.2     
   7 O7             1.1494    -1.8958    -0.0178 O.2     
   8 O8             3.4386     1.9089    -0.0192 O.2     
   9 O9             1.1051     3.4197     0.0094 O.3     
  10 C10           -1.2627    -0.7434     0.0101 C.3     
  11 C11           -1.6892    -1.0085     1.4554 C.3     
  12 C12           -3.0692    -3.1133     1.3594 C.ar    
  13 C13           -4.4439    -3.4148     1.4096 C.ar    
  14 C14           -4.8585    -4.7459     1.3297 C.ar    
  15 C15           -3.8880    -5.7223     1.2031 C.ar    
  16 C16           -2.5525    -5.3532     1.1602 C.ar    
  17 N17           -2.1830    -4.0924     1.2371 N.ar    
  18 N18           -2.9539    -1.7478     1.4635 N.pl3   
  19 C19           -5.1387    -2.1335     1.5457 C.2     
  20 C20           -4.1946    -1.1798     1.5766 C.2     
  21 H21            3.1737    -0.5362    -0.0303 H       
  22 H22            0.2211     3.8114     0.0197 H       
  23 H23           -2.0303    -0.1556    -0.4933 H       
  24 H24           -1.1322    -1.6923    -0.5101 H       
  25 H25           -0.9215    -1.5962     1.9587 H       
  26 H26           -1.8197    -0.0596     1.9756 H       
  27 H27           -5.9063    -5.0050     1.3660 H       
  28 H28           -4.1678    -6.7634     1.1386 H       
  29 H29           -1.7971    -6.1187     1.0612 H       
  30 H30           -6.2062    -1.9845     1.6140 H       
  31 H31           -4.3855    -0.1212     1.6728 H       
@<TRIPOS>BOND
   1    1    2 1
   2    1    6 2
   3    2    3 am
   4    2   10 1
   5    3    4 am
   6    3    7 2
   7    4    5 am
   8    4   21 1
   9    5    6 1
  10    5    8 2
  11    6    9 1
  12    9   22 1
  13   10   11 1
  14   10   23 1
  15   10   24 1
  16   11   18 1
  17   11   25 1
  18   11   26 1
  19   12   13 ar
  20   12   17 ar
  21   12   18 1
  22   13   14 ar
  23   13   19 1
  24   14   15 ar
  25   14   27 1
  26   15   16 ar
  27   15   28 1
  28   16   17 ar
  29   16   29 1
  30   18   20 1
  31   19   20 2
  32   19   30 1
  33   20   31 1

#	End of record

