#	Name: ASD02030592
#	Creating user name:	WinNT
#	Creation time:	15. 06. 2019 20:15

#	Modifying user name:	WinNT
#	Modification time:	15. 06. 2019 20:15

#	Program:	/corina/corina34_cracker 3.40 0067  02.08.2006

@<TRIPOS>MOLECULE
ASD02030592
  52   54    0    0    0
SMALL
NO_CHARGES


@<TRIPOS>ATOM
   1 C1            -0.0169     1.3915     0.0097 C.ar    
   2 C2             0.0021    -0.0041     0.0020 C.ar    
   3 C3             1.2235    -0.6793    -0.0133 C.ar    
   4 C4             2.4034     0.0357    -0.0207 C.ar    
   5 C5             2.3776     1.4190    -0.0130 C.ar    
   6 C6             1.1702     2.0945     0.0021 C.ar    
   7 C7            -1.2662    -0.7638     0.0105 C.2     
   8 N8            -1.2445    -2.1114     0.0031 N.am    
   9 O9            -2.3285    -0.1731     0.0243 O.2     
  10 N10           -2.4464    -2.8314     0.0112 N.am    
  11 C11           -2.4247    -4.1789     0.0037 C.2     
  12 C12           -3.6930    -4.9387     0.0122 C.ar    
  13 O13           -1.3624    -4.7696    -0.0100 O.2     
  14 C14           -4.8611    -7.0373     0.0126 C.ar    
  15 C15           -6.0685    -6.3618     0.0283 C.ar    
  16 C16           -6.0943    -4.9784     0.0302 C.ar    
  17 C17           -4.9145    -4.2635     0.0222 C.ar    
  18 C18           -3.6740    -6.3343     0.0046 C.ar    
  19 C19           -7.3613    -7.1362     0.0370 C.3     
  20 N20           -7.7664    -7.3946     1.4209 N.am    
  21 S21           -9.3111    -7.8909     1.7526 S.o2    
  22 O22           -9.3767    -8.0860     3.1586 O.2     
  23 O23          -10.1755    -7.0094     1.0490 O.2     
  24 C24           -9.5171    -9.4799     1.0196 C.ar    
  25 C25           -9.2151   -10.6186     1.7431 C.ar    
  26 C26           -9.3752   -11.8671     1.1705 C.ar    
  27 C27           -9.8375   -11.9794    -0.1262 C.ar    
  28 C28          -10.1417   -10.8381    -0.8543 C.ar    
  29 C29           -9.9856    -9.5871    -0.2757 C.ar    
  30 O30          -10.5963   -10.9459    -2.1304 O.3     
  31 C31          -10.7373   -12.2658    -2.6596 C.3     
  32 H32           -0.9587     1.9200     0.0170 H       
  33 H33            1.2450    -1.7591    -0.0189 H       
  34 H34            3.3492    -0.4856    -0.0322 H       
  35 H35            3.3041     1.9740    -0.0185 H       
  36 H36            1.1570     3.1744     0.0081 H       
  37 H37           -0.3968    -2.5828    -0.0079 H       
  38 H38           -3.2941    -2.3600     0.0221 H       
  39 H39           -4.8478    -8.1172     0.0115 H       
  40 H40           -7.0401    -4.4572     0.0424 H       
  41 H41           -4.9360    -3.1837     0.0241 H       
  42 H42           -2.7322    -6.8627    -0.0080 H       
  43 H43           -8.1353    -6.5567    -0.4661 H       
  44 H44           -7.2207    -8.0837    -0.4834 H       
  45 H45           -7.1299    -7.2750     2.1430 H       
  46 H46           -8.8531   -10.5329     2.7570 H       
  47 H47           -9.1382   -12.7552     1.7377 H       
  48 H48           -9.9617   -12.9547    -0.5731 H       
  49 H49          -10.2218    -8.6972    -0.8404 H       
  50 H50          -11.4430   -12.8287    -2.0487 H       
  51 H51          -11.1073   -12.2093    -3.6833 H       
  52 H52           -9.7690   -12.7663    -2.6503 H       
@<TRIPOS>BOND
   1    1    2 ar
   2    1    6 ar
   3    1   32 1
   4    2    3 ar
   5    2    7 1
   6    3    4 ar
   7    3   33 1
   8    4    5 ar
   9    4   34 1
  10    5    6 ar
  11    5   35 1
  12    6   36 1
  13    7    8 am
  14    7    9 2
  15    8   10 1
  16    8   37 1
  17   10   11 am
  18   10   38 1
  19   11   12 1
  20   11   13 2
  21   12   18 ar
  22   12   17 ar
  23   14   15 ar
  24   14   18 ar
  25   14   39 1
  26   15   16 ar
  27   15   19 1
  28   16   17 ar
  29   16   40 1
  30   17   41 1
  31   18   42 1
  32   19   20 1
  33   19   43 1
  34   19   44 1
  35   20   21 am
  36   20   45 1
  37   21   22 2
  38   21   23 2
  39   21   24 1
  40   24   25 ar
  41   24   29 ar
  42   25   26 ar
  43   25   46 1
  44   26   27 ar
  45   26   47 1
  46   27   28 ar
  47   27   48 1
  48   28   29 ar
  49   28   30 1
  50   29   49 1
  51   30   31 1
  52   31   50 1
  53   31   51 1
  54   31   52 1

#	End of record

