#	Name: ASD04590264
#	Creating user name:	WinNT
#	Creation time:	15. 06. 2019 20:50

#	Modifying user name:	WinNT
#	Modification time:	15. 06. 2019 20:50

#	Program:	/corina/corina34_cracker 3.40 0067  02.08.2006

@<TRIPOS>MOLECULE
ASD04590264
  29   31    0    0    0
SMALL
NO_CHARGES


@<TRIPOS>ATOM
   1 C1            -0.0157     1.3069     0.0092 C.2     
   2 N2             0.0021    -0.0041     0.0020 N.2     
   3 N3             1.2661     1.7876    -0.0004 N.pl3   
   4 C4             2.1124     0.6949    -0.0144 C.ar    
   5 C5             1.2849    -0.4421    -0.0126 C.ar    
   6 C6             3.4917     0.5471    -0.0279 C.ar    
   7 C7             4.0468    -0.7154    -0.0396 C.ar    
   8 C8             3.2353    -1.8408    -0.0384 C.ar    
   9 C9             1.8649    -1.7144    -0.0254 C.ar    
  10 C10           -1.2358     2.1402     0.0198 C.2     
  11 N11           -1.2743     3.4582     0.0262 N.2     
  12 C12           -2.5674     1.6645     0.0186 C.2     
  13 C13           -3.3908     2.7410     0.0304 C.2     
  14 N14           -2.6166     3.8577     0.0353 N.pl3   
  15 N15           -2.9655     0.3174     0.0067 N.am    
  16 C16           -4.2759     0.0019     0.0070 C.2     
  17 C17           -4.7030    -1.4433    -0.0057 C.3     
  18 O18           -5.1114     0.8812     0.0174 O.2     
  19 F19           -6.1000    -1.5167    -0.0029 F       
  20 F20           -4.2055    -2.0665    -1.1552 F       
  21 F21           -4.1998    -2.0882     1.1292 F       
  22 H22            1.5310     2.7207     0.0021 H       
  23 H23            4.1294     1.4187    -0.0297 H       
  24 H24            5.1208    -0.8289    -0.0502 H       
  25 H25            3.6825    -2.8238    -0.0480 H       
  26 H26            1.2396    -2.5950    -0.0243 H       
  27 H27           -4.4705     2.7157     0.0321 H       
  28 H28           -2.9379     4.7729     0.0435 H       
  29 H29           -2.2974    -0.3858    -0.0016 H       
@<TRIPOS>BOND
   1    1    2 2
   2    1    3 1
   3    1   10 1
   4    2    5 1
   5    3    4 1
   6    3   22 1
   7    4    5 ar
   8    4    6 ar
   9    5    9 ar
  10    6    7 ar
  11    6   23 1
  12    7    8 ar
  13    7   24 1
  14    8    9 ar
  15    8   25 1
  16    9   26 1
  17   10   11 2
  18   10   12 1
  19   11   14 1
  20   12   13 2
  21   12   15 1
  22   13   14 1
  23   13   27 1
  24   14   28 1
  25   15   16 am
  26   15   29 1
  27   16   17 1
  28   16   18 2
  29   17   19 1
  30   17   20 1
  31   17   21 1

#	End of record

