#	Name: ASD08710053
#	Creating user name:	WinNT
#	Creation time:	15. 06. 2019 21:19

#	Modifying user name:	WinNT
#	Modification time:	15. 06. 2019 21:19

#	Program:	/corina/corina34_cracker 3.40 0067  02.08.2006

@<TRIPOS>MOLECULE
ASD08710053
  57   59    0    0    0
SMALL
NO_CHARGES


@<TRIPOS>ATOM
   1 C1            -0.3400     1.7508     0.6810 C.ar    
   2 C2            -0.2246     0.3816     0.5300 C.ar    
   3 C3             0.7950     2.5324     0.7888 C.ar    
   4 C4             2.0455     1.9448     0.7455 C.ar    
   5 C5             2.1609     0.5755     0.5948 C.ar    
   6 C6             1.0258    -0.2060     0.4866 C.ar    
   7 S7             1.1729    -1.9514     0.2952 S.o2    
   8 O8            -0.0286    -2.3898    -0.3240 O.2     
   9 O9             2.4617    -2.1876    -0.2548 O.2     
  10 N10            1.1844    -2.6119     1.8137 N.am    
  11 C11           -0.0709    -3.0126     2.4647 C.3     
  12 C12            2.4505    -2.8135     2.5322 C.3     
  13 C13            2.5534    -4.2885     2.9395 C.3     
  14 N14            1.2977    -4.6840     3.5926 N.am    
  15 C15            0.0374    -4.4872     2.8721 C.3     
  16 C16            1.3071    -5.2224     4.8282 C.2     
  17 C17            2.5897    -5.5393     5.4850 C.ar    
  18 O18            0.2587    -5.4469     5.4015 O.2     
  19 C19            2.7811    -5.2559     6.8384 C.ar    
  20 N20            3.9250    -5.5388     7.4254 N.ar    
  21 C21            4.9282    -6.0974     6.7616 C.ar    
  22 C22            4.8068    -6.4076     5.4084 C.ar    
  23 C23            3.6325    -6.1353     4.7596 C.ar    
  24 C24            0.6692     4.0251     0.9530 C.3     
  25 F25            0.6065     4.3408     2.3145 F       
  26 F26            1.7803     4.6527     0.3795 F       
  27 F27           -0.4959     4.4677     0.3176 F       
  28 N28            6.1127    -6.3760     7.4221 N.pl3   
  29 C29            7.2638    -6.8909     6.6763 C.3     
  30 C30            6.2151    -6.1558     8.8669 C.3     
  31 C31            8.1143    -5.7203     6.1791 C.3     
  32 C32            5.8008    -7.4289     9.6074 C.3     
  33 H33           -1.3169     2.2104     0.7103 H       
  34 H34           -1.1115    -0.2291     0.4461 H       
  35 H35            2.9323     2.5555     0.8290 H       
  36 H36            3.1379     0.1165     0.5603 H       
  37 H37           -0.2355    -2.3994     3.3506 H       
  38 H38           -0.9005    -2.8851     1.7692 H       
  39 H39            3.2857    -2.5546     1.8813 H       
  40 H40            2.4696    -2.1858     3.4231 H       
  41 H41            2.7139    -4.9024     2.0532 H       
  42 H42            3.3837    -4.4193     3.6334 H       
  43 H43           -0.7993    -4.7448     3.5215 H       
  44 H44            0.0217    -5.1181     1.9834 H       
  45 H45            1.9847    -4.8006     7.4083 H       
  46 H46            5.6300    -6.8624     4.8775 H       
  47 H47            3.5141    -6.3668     3.7114 H       
  48 H48            7.8645    -7.5255     7.3279 H       
  49 H49            6.9135    -7.4733     5.8241 H       
  50 H50            7.2440    -5.9043     9.1241 H       
  51 H51            5.5574    -5.3364     9.1570 H       
  52 H52            8.9707    -6.1034     5.6242 H       
  53 H53            7.5136    -5.0857     5.5276 H       
  54 H54            8.4646    -5.1380     7.0313 H       
  55 H55            4.7719    -7.6804     9.3502 H       
  56 H56            6.4585    -8.2483     9.3173 H       
  57 H57            5.8769    -7.2651    10.6823 H       
@<TRIPOS>BOND
   1    1    2 ar
   2    1    3 ar
   3    1   33 1
   4    2    6 ar
   5    2   34 1
   6    3    4 ar
   7    3   24 1
   8    4    5 ar
   9    4   35 1
  10    5    6 ar
  11    5   36 1
  12    6    7 1
  13    7    8 2
  14    7    9 2
  15    7   10 am
  16   10   11 1
  17   10   12 1
  18   11   15 1
  19   11   37 1
  20   11   38 1
  21   12   13 1
  22   12   39 1
  23   12   40 1
  24   13   14 1
  25   13   41 1
  26   13   42 1
  27   14   15 1
  28   14   16 am
  29   15   43 1
  30   15   44 1
  31   16   17 1
  32   16   18 2
  33   17   19 ar
  34   17   23 ar
  35   19   20 ar
  36   19   45 1
  37   20   21 ar
  38   21   22 ar
  39   21   28 1
  40   22   23 ar
  41   22   46 1
  42   23   47 1
  43   24   25 1
  44   24   26 1
  45   24   27 1
  46   28   29 1
  47   28   30 1
  48   29   31 1
  49   29   48 1
  50   29   49 1
  51   30   32 1
  52   30   50 1
  53   30   51 1
  54   31   52 1
  55   31   53 1
  56   31   54 1
  57   32   55 1
  58   32   56 1
  59   32   57 1

#	End of record

