#	Name: ASD04880280
#	Creating user name:	WinNT
#	Creation time:	15. 06. 2019 20:53

#	Modifying user name:	WinNT
#	Modification time:	15. 06. 2019 20:53

#	Program:	/corina/corina34_cracker 3.40 0067  02.08.2006

@<TRIPOS>MOLECULE
ASD04880280
  36   39    0    0    0
SMALL
NO_CHARGES


@<TRIPOS>ATOM
   1 C1            -0.0121     1.4644     0.0385 C.3     
   2 N2             0.0038    -0.0070     0.0403 N.am    
   3 N3             1.3266    -0.4432     0.0808 N.2     
   4 C4             2.1941     0.5088     0.1062 C.2     
   5 C5             1.4817     1.8422     0.0834 C.3     
   6 C6            -1.0834    -0.8029     0.0088 C.2     
   7 C7            -0.9244    -2.2648    -0.1121 C.ar    
   8 O8            -2.1957    -0.3160     0.0799 O.2     
   9 C9             0.3402    -2.8158    -0.3383 C.ar    
  10 C10            0.4848    -4.1844    -0.4503 C.ar    
  11 C11           -0.6312    -5.0153    -0.3377 C.ar    
  12 C12           -1.8866    -4.4670    -0.1134 C.ar    
  13 C13           -2.0363    -3.1022     0.0051 C.ar    
  14 C14            3.6569     0.3261     0.1507 C.ar    
  15 C15            4.2033    -0.9597     0.1679 C.ar    
  16 C16            5.5721    -1.1235     0.2096 C.ar    
  17 C17            6.4043    -0.0183     0.2349 C.ar    
  18 C18            5.8703     1.2588     0.2180 C.ar    
  19 C19            4.5023     1.4375     0.1701 C.ar    
  20 Br20           7.0176     2.7617     0.2528 Br      
  21 O21           -0.2262    -6.3092    -0.4840 O.3     
  22 C22            1.1985    -6.2929    -0.2776 C.3     
  23 O23            1.5862    -4.9619    -0.6664 O.3     
  24 H24           -0.4760     1.8419    -0.8728 H       
  25 H25           -0.5303     1.8435     0.9193 H       
  26 H26            1.7597     2.4091    -0.8052 H       
  27 H27            1.7054     2.4107     0.9862 H       
  28 H28            1.2029    -2.1719    -0.4257 H       
  29 H29           -2.7481    -5.1125    -0.0266 H       
  30 H30           -3.0147    -2.6795     0.1796 H       
  31 H31            3.5552    -1.8234     0.1490 H       
  32 H32            5.9954    -2.1170     0.2230 H       
  33 H33            7.4754    -0.1527     0.2682 H       
  34 H34            4.0867     2.4342     0.1566 H       
  35 H35            1.4354    -6.4696     0.7716 H       
  36 H36            1.6857    -7.0341    -0.9112 H       
@<TRIPOS>BOND
   1    1    2 1
   2    1    5 1
   3    1   24 1
   4    1   25 1
   5    2    3 1
   6    2    6 am
   7    3    4 2
   8    4    5 1
   9    4   14 1
  10    5   26 1
  11    5   27 1
  12    6    7 1
  13    6    8 2
  14    7    9 ar
  15    7   13 ar
  16    9   10 ar
  17    9   28 1
  18   10   11 ar
  19   10   23 1
  20   11   12 ar
  21   11   21 1
  22   12   13 ar
  23   12   29 1
  24   13   30 1
  25   14   15 ar
  26   14   19 ar
  27   15   16 ar
  28   15   31 1
  29   16   17 ar
  30   16   32 1
  31   17   18 ar
  32   17   33 1
  33   18   19 ar
  34   18   20 1
  35   19   34 1
  36   21   22 1
  37   22   23 1
  38   22   35 1
  39   22   36 1

#	End of record

