#	Name: ASD00111033
#	Creating user name:	WinNT
#	Creation time:	15. 06. 2019 18:30

#	Modifying user name:	WinNT
#	Modification time:	15. 06. 2019 18:30

#	Program:	/corina/corina34_cracker 3.40 0067  02.08.2006

@<TRIPOS>MOLECULE
ASD00111033
  27   28    0    0    0
SMALL
NO_CHARGES


@<TRIPOS>ATOM
   1 C1            -0.0167     1.3802     0.0096 C.ar    
   2 C2             0.0021    -0.0041     0.0020 C.ar    
   3 C3            -1.1856    -0.7130     0.0094 C.ar    
   4 C4            -2.3886    -0.0319     0.0242 C.ar    
   5 C5            -2.4083     1.3417     0.0324 C.ar    
   6 C6            -1.2259     2.0570     0.0306 C.ar    
   7 C7            -3.6910    -0.8052     0.0303 C.3     
   8 C8            -4.3538    -0.6204     1.3991 C.3     
   9 N9            -5.1338     0.6059     1.4350 N.3     
  10 C10           -4.3889     1.8541     1.4157 C.3     
  11 C11           -3.7327     2.0767     0.0491 C.3     
  12 C12           -3.4956     3.5720    -0.1718 C.3     
  13 F13            1.1441     2.0714     0.0023 F       
  14 H14            0.9448    -0.5308    -0.0100 H       
  15 H15           -1.1732    -1.7929     0.0032 H       
  16 H16           -1.2440     3.1368     0.0372 H       
  17 H17           -4.3486    -0.4237    -0.7508 H       
  18 H18           -3.4911    -1.8629    -0.1413 H       
  19 H19           -5.0095    -1.4683     1.5973 H       
  20 H20           -3.5824    -0.5773     2.1680 H       
  21 H21           -5.8489     0.6005     0.7232 H       
  22 H22           -5.0681     2.6802     1.6260 H       
  23 H23           -3.6159     1.8222     2.1835 H       
  24 H24           -4.3795     1.6867    -0.7369 H       
  25 H25           -2.8403     3.9553     0.6104 H       
  26 H26           -3.0289     3.7261    -1.1447 H       
  27 H27           -4.4487     4.0999    -0.1383 H       
@<TRIPOS>BOND
   1    1    2 ar
   2    1   13 1
   3    1    6 ar
   4    2    3 ar
   5    2   14 1
   6    3    4 ar
   7    3   15 1
   8    4    5 ar
   9    4    7 1
  10    5    6 ar
  11    5   11 1
  12    6   16 1
  13    7    8 1
  14    7   17 1
  15    7   18 1
  16    8    9 1
  17    8   19 1
  18    8   20 1
  19    9   10 1
  20    9   21 1
  21   10   11 1
  22   10   22 1
  23   10   23 1
  24   11   12 1
  25   11   24 1
  26   12   25 1
  27   12   26 1
  28   12   27 1

#	End of record

