#	Name: ASD01940012
#	Creating user name:	WinNT
#	Creation time:	15. 06. 2019 20:11

#	Modifying user name:	WinNT
#	Modification time:	15. 06. 2019 20:11

#	Program:	/corina/corina34_cracker 3.40 0067  02.08.2006

@<TRIPOS>MOLECULE
ASD01940012
  49   51    0    0    0
SMALL
NO_CHARGES


@<TRIPOS>ATOM
   1 C1            -0.0174     1.3869     0.0363 C.ar    
   2 C2            -0.0993     0.1349    -0.5602 C.ar    
   3 C3            -1.2870    -0.5688    -0.5246 C.ar    
   4 C4            -2.3942    -0.0283     0.1035 C.ar    
   5 C5            -2.3163     1.2179     0.6979 C.ar    
   6 C6            -1.1298     1.9242     0.6718 C.ar    
   7 N7             1.1828     2.1017     0.0021 N.pl3   
   8 C8             1.1635     3.4818    -0.0948 C.2     
   9 C9             2.2471     4.3452    -0.0202 C.2     
  10 C10            1.9002     5.6904    -0.1551 C.2     
  11 N11            0.6412     5.9568    -0.3286 N.2     
  12 S12           -0.2078     4.4905    -0.3406 S.3     
  13 O13            2.8353     6.6744    -0.1067 O.3     
  14 C14            3.6310     3.8861     0.1819 C.2     
  15 N15            4.1334     3.7520     1.4594 N.pl3   
  16 N16            4.3835     3.6056    -0.8491 N.2     
  17 C17            5.5108     3.2951     1.6606 C.3     
  18 C18            6.4627     4.4893     1.5693 C.3     
  19 C19            5.6366     2.6469     3.0407 C.3     
  20 O20            5.4136     3.6319     4.0517 O.3     
  21 S21           -3.9078    -0.9294     0.1461 S.o2    
  22 C22           -3.8864    -1.9162     1.6057 C.ar    
  23 C23           -4.3920    -1.4111     2.7890 C.ar    
  24 C24           -4.3752    -2.1852     3.9341 C.ar    
  25 C25           -3.8533    -3.4647     3.8959 C.ar    
  26 C26           -3.3485    -3.9701     2.7124 C.ar    
  27 C27           -3.3693    -3.1975     1.5662 C.ar    
  28 O28           -4.9409     0.0298     0.3253 O.2     
  29 O29           -3.8678    -1.8330    -0.9498 O.2     
  30 H30            0.7647    -0.2875    -1.0515 H       
  31 H31           -1.3514    -1.5421    -0.9881 H       
  32 H32           -3.1830     1.6374     1.1870 H       
  33 H33           -1.0697     2.8974     1.1362 H       
  34 H34            2.0294     1.6303     0.0462 H       
  35 H35            3.2143     6.8996    -0.9673 H       
  36 H36            3.5749     3.9602     2.2246 H       
  37 H37            5.2955     3.3031    -0.7159 H       
  38 H38            5.7676     2.5661     0.8920 H       
  39 H39            6.2059     5.2183     2.3378 H       
  40 H40            7.4875     4.1494     1.7189 H       
  41 H41            6.3731     4.9511     0.5860 H       
  42 H42            4.8966     1.8525     3.1379 H       
  43 H43            6.6364     2.2281     3.1557 H       
  44 H44            5.4781     3.2907     4.9542 H       
  45 H45           -4.7998    -0.4114     2.8189 H       
  46 H46           -4.7696    -1.7903     4.8587 H       
  47 H47           -3.8395    -4.0692     4.7907 H       
  48 H48           -2.9404    -4.9696     2.6826 H       
  49 H49           -2.9749    -3.5924     0.6416 H       
@<TRIPOS>BOND
   1    1    2 ar
   2    1    7 1
   3    1    6 ar
   4    2    3 ar
   5    2   30 1
   6    3    4 ar
   7    3   31 1
   8    4    5 ar
   9    4   21 1
  10    5    6 ar
  11    5   32 1
  12    6   33 1
  13    7    8 1
  14    7   34 1
  15    8    9 2
  16    8   12 1
  17    9   10 1
  18    9   14 1
  19   10   11 2
  20   10   13 1
  21   11   12 1
  22   13   35 1
  23   14   15 1
  24   14   16 2
  25   15   17 1
  26   15   36 1
  27   16   37 1
  28   17   18 1
  29   17   19 1
  30   17   38 1
  31   18   39 1
  32   18   40 1
  33   18   41 1
  34   19   20 1
  35   19   42 1
  36   19   43 1
  37   20   44 1
  38   21   22 1
  39   21   28 2
  40   21   29 2
  41   22   23 ar
  42   22   27 ar
  43   23   24 ar
  44   23   45 1
  45   24   25 ar
  46   24   46 1
  47   25   26 ar
  48   25   47 1
  49   26   27 ar
  50   26   48 1
  51   27   49 1

#	End of record

