#	Name: ASD03430158
#	Creating user name:	WinNT
#	Creation time:	15. 06. 2019 20:40

#	Modifying user name:	WinNT
#	Modification time:	15. 06. 2019 20:40

#	Program:	/corina/corina34_cracker 3.40 0067  02.08.2006

@<TRIPOS>MOLECULE
ASD03430158
  54   59    0    0    0
SMALL
NO_CHARGES


@<TRIPOS>ATOM
   1 C1            -0.9742     2.6426     0.0461 C.ar    
   2 C2            -0.6438     1.3055     0.0471 C.ar    
   3 C3             0.6802     0.9196     0.0592 C.ar    
   4 C4             1.6917     1.8765     0.0792 C.ar    
   5 C5             1.3500     3.2236     0.0674 C.ar    
   6 C6             0.0172     3.6168     0.0477 C.ar    
   7 O7             2.9221     1.2910     0.1220 O.3     
   8 C8             1.3585    -0.4234     0.0428 C.3     
   9 C9             2.8127    -0.0789    -0.3090 C.3     
  10 C10            0.6422    -2.3529     1.0844 C.ar    
  11 C11            1.2558    -1.1335     1.3603 C.ar    
  12 C12            0.7489    -1.3583    -0.9616 C.2     
  13 N13            0.3601    -2.4543    -0.2797 N.am    
  14 O14            0.6296    -1.1653    -2.1531 O.2     
  15 C15            1.6271    -0.8115     2.6461 C.ar    
  16 C16            1.3928    -1.7019     3.6793 C.ar    
  17 C17            0.7840    -2.9153     3.4170 C.ar    
  18 C18            0.4096    -3.2426     2.1303 C.ar    
  19 C19           -2.3075     3.3641     0.0529 C.3     
  20 C20           -1.8923     4.8002     0.4513 C.3     
  21 O21           -0.5230     4.8670     0.0182 O.3     
  22 C22           -0.2830    -3.6166    -0.8977 C.3     
  23 C23           -1.7780    -3.4268    -0.8897 C.2     
  24 O24           -2.6067    -3.8164     0.0916 O.3     
  25 C25           -3.8728    -3.5040    -0.2012 C.2     
  26 C26           -3.8935    -2.8855    -1.4169 C.2     
  27 C27           -2.4925    -2.8362    -1.8598 C.2     
  28 C28           -5.0732    -2.3694    -2.1339 C.2     
  29 O29           -5.9935    -1.8734    -1.5126 O.2     
  30 N30           -5.1321    -2.4471    -3.4781 N.am    
  31 C31           -6.3281    -1.9851    -4.1868 C.3     
  32 C32           -4.0000    -2.9935    -4.2305 C.3     
  33 H33           -1.4230     0.5577     0.0388 H       
  34 H34            2.1281     3.9725     0.0743 H       
  35 H35            2.9811    -0.1614    -1.3827 H       
  36 H36            3.5053    -0.7146     0.2425 H       
  37 H37            2.1021     0.1370     2.8489 H       
  38 H38            1.6852    -1.4498     4.6879 H       
  39 H39            0.6010    -3.6102     4.2233 H       
  40 H40           -0.0652    -4.1924     1.9332 H       
  41 H41           -2.7625     3.3509    -0.9375 H       
  42 H42           -2.9799     2.9331     0.7946 H       
  43 H43           -2.4997     5.5375    -0.0735 H       
  44 H44           -1.9632     4.9374     1.5304 H       
  45 H45            0.0646    -3.7204    -1.9255 H       
  46 H46           -0.0278    -4.5147    -0.3353 H       
  47 H47           -4.7332    -3.7067     0.4193 H       
  48 H48           -2.1160    -2.4166    -2.7810 H       
  49 H49           -6.2184    -0.9293    -4.4348 H       
  50 H50           -6.4533    -2.5623    -5.1029 H       
  51 H51           -7.2025    -2.1198    -3.5501 H       
  52 H52           -3.2524    -3.3757    -3.5355 H       
  53 H53           -4.3473    -3.8034    -4.8722 H       
  54 H54           -3.5583    -2.2081    -4.8437 H       
@<TRIPOS>BOND
   1    1    2 ar
   2    1    6 ar
   3    1   19 1
   4    2    3 ar
   5    2   33 1
   6    3    4 ar
   7    3    8 1
   8    4    5 ar
   9    4    7 1
  10    5    6 ar
  11    5   34 1
  12    6   21 1
  13    7    9 1
  14    8    9 1
  15    8   11 1
  16    8   12 1
  17    9   35 1
  18    9   36 1
  19   10   11 ar
  20   10   13 1
  21   10   18 ar
  22   11   15 ar
  23   12   13 am
  24   12   14 2
  25   13   22 1
  26   15   16 ar
  27   15   37 1
  28   16   17 ar
  29   16   38 1
  30   17   18 ar
  31   17   39 1
  32   18   40 1
  33   19   20 1
  34   19   41 1
  35   19   42 1
  36   20   21 1
  37   20   43 1
  38   20   44 1
  39   22   23 1
  40   22   45 1
  41   22   46 1
  42   23   24 1
  43   23   27 2
  44   24   25 1
  45   25   26 2
  46   25   47 1
  47   26   27 1
  48   26   28 1
  49   27   48 1
  50   28   29 2
  51   28   30 am
  52   30   31 1
  53   30   32 1
  54   31   49 1
  55   31   50 1
  56   31   51 1
  57   32   52 1
  58   32   53 1
  59   32   54 1

#	End of record

