#	Name: ASD01881595
#	Creating user name:	WinNT
#	Creation time:	15. 06. 2019 19:43

#	Modifying user name:	WinNT
#	Modification time:	15. 06. 2019 19:43

#	Program:	/corina/corina34_cracker 3.40 0067  02.08.2006

@<TRIPOS>MOLECULE
ASD01881595
  53   56    0    0    0
SMALL
NO_CHARGES


@<TRIPOS>ATOM
   1 C1            -0.0170     1.4027     0.0098 C.ar    
   2 C2             0.0021    -0.0041     0.0020 C.ar    
   3 C3             1.2376    -0.6607    -0.0133 C.ar    
   4 C4             2.3899     0.1062    -0.0201 C.ar    
   5 C5             2.2905     1.4869    -0.0118 C.ar    
   6 N6             1.1178     2.0875     0.0026 N.ar    
   7 C7            -1.2202    -0.7501     0.0101 C.1     
   8 N8            -2.1899    -1.3419     0.0166 N.1     
   9 C9            -1.3119     2.1222     0.0198 C.ar    
  10 C10           -1.4407     3.3222     0.7188 C.ar    
  11 C11           -2.6492     3.9879     0.7241 C.ar    
  12 C12           -3.7319     3.4674     0.0377 C.ar    
  13 C13           -3.6105     2.2775    -0.6570 C.ar    
  14 C14           -2.4052     1.6053    -0.6744 C.ar    
  15 C15           -2.7902     5.2844     1.4793 C.3     
  16 O16           -2.4639     6.3760     0.6167 O.3     
  17 N17           -2.6958    11.5122     2.5060 N.pl3   
  18 N18           -2.3007    12.1340     1.3123 N.2     
  19 N19           -2.0904    11.2389     0.4127 N.2     
  20 C20           -2.3184    10.0084     0.9136 C.ar    
  21 C21           -2.7082    10.1590     2.2558 C.ar    
  22 C22           -2.2384     8.7213     0.3644 C.ar    
  23 C23           -2.5411     7.6260     1.1467 C.ar    
  24 C24           -2.9255     7.7912     2.4751 C.ar    
  25 C25           -3.0093     9.0398     3.0237 C.ar    
  26 C26           -3.0244    12.1729     3.7717 C.3     
  27 C27           -4.5193    12.4969     3.8048 C.3     
  28 C28           -5.3247    11.2018     3.6814 C.3     
  29 C29           -4.8625    13.1868     5.1266 C.3     
  30 C30           -4.8658    13.4259     2.6395 C.3     
  31 Br31          -1.7176     8.4875    -1.4383 Br      
  32 H32            1.2909    -1.7393    -0.0192 H       
  33 H33            3.3595    -0.3693    -0.0316 H       
  34 H34            3.1911     2.0830    -0.0172 H       
  35 H35           -0.5964     3.7293     1.2552 H       
  36 H36           -4.6759     3.9921     0.0447 H       
  37 H37           -4.4592     1.8759    -1.1906 H       
  38 H38           -2.3103     0.6786    -1.2208 H       
  39 H39           -3.8172     5.3916     1.8284 H       
  40 H40           -2.1141     5.2823     2.3342 H       
  41 H41           -3.1601     6.9252     3.0764 H       
  42 H42           -3.3086     9.1574     4.0548 H       
  43 H43           -2.7776    11.5110     4.6018 H       
  44 H44           -2.4506    13.0955     3.8596 H       
  45 H45           -5.0778    10.5400     4.5115 H       
  46 H46           -6.3897    11.4326     3.7050 H       
  47 H47           -5.0802    10.7103     2.7397 H       
  48 H48           -4.2887    14.1094     5.2145 H       
  49 H49           -5.9275    13.4176     5.1502 H       
  50 H50           -4.6157    12.5250     5.9567 H       
  51 H51           -4.6213    12.9343     1.6979 H       
  52 H52           -5.9308    13.6567     2.6631 H       
  53 H53           -4.2920    14.3485     2.7275 H       
@<TRIPOS>BOND
   1    1    2 ar
   2    1    6 ar
   3    1    9 1
   4    2    3 ar
   5    2    7 1
   6    3    4 ar
   7    3   32 1
   8    4    5 ar
   9    4   33 1
  10    5    6 ar
  11    5   34 1
  12    7    8 3
  13    9   10 ar
  14    9   14 ar
  15   10   11 ar
  16   10   35 1
  17   11   12 ar
  18   11   15 1
  19   12   13 ar
  20   12   36 1
  21   13   14 ar
  22   13   37 1
  23   14   38 1
  24   15   16 1
  25   15   39 1
  26   15   40 1
  27   16   23 1
  28   17   18 1
  29   17   21 1
  30   17   26 1
  31   18   19 2
  32   19   20 1
  33   20   21 ar
  34   20   22 ar
  35   21   25 ar
  36   22   23 ar
  37   22   31 1
  38   23   24 ar
  39   24   25 ar
  40   24   41 1
  41   25   42 1
  42   26   27 1
  43   26   43 1
  44   26   44 1
  45   27   28 1
  46   27   29 1
  47   27   30 1
  48   28   45 1
  49   28   46 1
  50   28   47 1
  51   29   48 1
  52   29   49 1
  53   29   50 1
  54   30   51 1
  55   30   52 1
  56   30   53 1

#	End of record

