#	Name: ASD01940360
#	Creating user name:	WinNT
#	Creation time:	15. 06. 2019 20:12

#	Modifying user name:	WinNT
#	Modification time:	15. 06. 2019 20:12

#	Program:	/corina/corina34_cracker 3.40 0067  02.08.2006

@<TRIPOS>MOLECULE
ASD01940360
  47   50    0    0    0
SMALL
NO_CHARGES


@<TRIPOS>ATOM
   1 C1             2.1751     3.3955     3.3028 C.3     
   2 C2             2.9786     2.6400     4.3633 C.3     
   3 C3             3.6788     3.1832     3.1160 C.3     
   4 S4             1.0559     2.4280     2.2531 S.o2    
   5 O5             1.7887     1.4985     1.4667 O.2     
   6 O6            -0.0908     2.0223     2.9879 O.2     
   7 N7             0.4715     3.5209     1.1548 N.am    
   8 C8             1.3554     4.2097     0.3136 C.ar    
   9 C9             1.1086     5.5411    -0.0192 C.ar    
  10 C10            1.9877     6.2186    -0.8530 C.ar    
  11 C11            3.1068     5.5703    -1.3518 C.ar    
  12 C12            3.3493     4.2486    -1.0203 C.ar    
  13 C13            2.4802     3.5704    -0.1850 C.ar    
  14 F14            3.9622     6.2298    -2.1633 F       
  15 F15            1.7525     7.5085    -1.1786 F       
  16 N16           -0.0241     6.1934     0.4865 N.pl3   
  17 C17            0.2979     8.6068     3.8696 C.ar    
  18 C18           -0.9559     8.3486     3.3137 C.ar    
  19 C19           -1.0610     7.5494     2.1945 C.ar    
  20 C20            0.0836     7.0017     1.6194 C.ar    
  21 C21            1.3324     7.2585     2.1726 C.ar    
  22 C22            1.4416     8.0565     3.2916 C.ar    
  23 C23            0.4144     9.4699     5.0683 C.ar    
  24 C24            1.6690     9.7272     5.6230 C.ar    
  25 C25            1.7785    10.5291     6.7360 C.ar    
  26 C26            0.6325    11.0860     7.3111 C.ar    
  27 C27           -0.6235    10.8275     6.7546 C.ar    
  28 C28           -0.7300    10.0297     5.6383 C.ar    
  29 F29           -2.2740     7.2981     1.6555 F       
  30 C30            0.7451    11.9202     8.4696 C.1     
  31 N31            0.8345    12.5819     9.3886 N.1     
  32 H32            1.8358     4.4013     3.5503 H       
  33 H33            3.1678     3.1488     5.3085 H       
  34 H34            2.8346     1.5616     4.4302 H       
  35 H35            3.9955     2.4622     2.3624 H       
  36 H36            4.3287     4.0493     3.2407 H       
  37 H37           -0.4827     3.6843     1.0937 H       
  38 H38            4.2220     3.7468    -1.4115 H       
  39 H39            2.6753     2.5405     0.0753 H       
  40 H40           -0.8829     6.0832     0.0491 H       
  41 H41           -1.8429     8.7734     3.7599 H       
  42 H42            2.2183     6.8322     1.7256 H       
  43 H43            2.4126     8.2556     3.7203 H       
  44 H44            2.5542     9.2966     5.1787 H       
  45 H45            2.7495    10.7277     7.1652 H       
  46 H46           -1.5097    11.2569     7.1982 H       
  47 H47           -1.6999     9.8332     5.2058 H       
@<TRIPOS>BOND
   1    1    2 1
   2    1    3 1
   3    1    4 1
   4    1   32 1
   5    2    3 1
   6    2   33 1
   7    2   34 1
   8    3   35 1
   9    3   36 1
  10    4    5 2
  11    4    6 2
  12    4    7 am
  13    7    8 1
  14    7   37 1
  15    8    9 ar
  16    8   13 ar
  17    9   10 ar
  18    9   16 1
  19   10   11 ar
  20   10   15 1
  21   11   12 ar
  22   11   14 1
  23   12   13 ar
  24   12   38 1
  25   13   39 1
  26   16   20 1
  27   16   40 1
  28   17   18 ar
  29   17   22 ar
  30   17   23 1
  31   18   19 ar
  32   18   41 1
  33   19   20 ar
  34   19   29 1
  35   20   21 ar
  36   21   22 ar
  37   21   42 1
  38   22   43 1
  39   23   24 ar
  40   23   28 ar
  41   24   25 ar
  42   24   44 1
  43   25   26 ar
  44   25   45 1
  45   26   27 ar
  46   26   30 1
  47   27   28 ar
  48   27   46 1
  49   28   47 1
  50   30   31 3

#	End of record

