#	Name: ASD01810595
#	Creating user name:	WinNT
#	Creation time:	15. 06. 2019 19:24

#	Modifying user name:	WinNT
#	Modification time:	15. 06. 2019 19:24

#	Program:	/corina/corina34_cracker 3.40 0067  02.08.2006

@<TRIPOS>MOLECULE
ASD01810595
  73   77    0    0    0
SMALL
NO_CHARGES


@<TRIPOS>ATOM
   1 C1            -0.1040     1.1660    -0.4755 C.ar    
   2 N2             0.0162    -0.0208    -1.0560 N.ar    
   3 C3             1.1831    -0.6349    -1.1077 C.ar    
   4 C4             2.3031    -0.0147    -0.5382 C.ar    
   5 C5             2.1326     1.2385     0.0649 C.ar    
   6 N6             0.9319     1.7859     0.0749 N.ar    
   7 C7             3.6272    -0.6644    -0.5723 C.2     
   8 O8             3.7571    -1.7524    -1.0995 O.2     
   9 N9             4.6928    -0.0520    -0.0191 N.am    
  10 O10           -3.6157     2.8715     0.7816 O.3     
  11 C11           -2.6495     3.7436     0.1889 C.3     
  12 C12           -1.2722     3.0764     0.2340 C.3     
  13 N13           -1.3409     1.7759    -0.4483 N.3     
  14 C14           -2.3429     0.9071     0.1861 C.3     
  15 C15           -3.7094     1.5961     0.1415 C.3     
  16 C16            5.9223    -0.7154     0.0507 C.ar    
  17 C17            7.1068     0.0013    -0.0742 C.ar    
  18 C18            8.3242    -0.6495    -0.0064 C.ar    
  19 C19            8.3720    -2.0155     0.1858 C.ar    
  20 C20            7.1884    -2.7442     0.3129 C.ar    
  21 C21            5.9598    -2.0866     0.2502 C.ar    
  22 C22            9.7022    -2.7201     0.2580 C.3     
  23 C23            7.0634     1.4929    -0.2847 C.3     
  24 C24            6.9511     2.1961     1.0695 C.3     
  25 C25            7.2367    -4.2076     0.5189 C.2     
  26 O26            7.8343    -4.9130    -0.2703 O.2     
  27 N27            6.6183    -4.7594     1.5817 N.am    
  28 C28            6.7314    -6.1996     1.8491 C.3     
  29 C29            7.2195    -6.3972     3.2876 C.3     
  30 C30            6.2874    -5.6514     4.2453 C.3     
  31 C31            6.3169    -4.1549     3.9265 C.3     
  32 C32            5.8231    -3.9310     2.4983 C.3     
  33 F33            4.9828    -6.1341     4.0963 F       
  34 C34            6.7449    -5.8715     5.6642 C.ar    
  35 C35            5.9861    -5.3737     6.7086 C.ar    
  36 C36            6.4085    -5.5778     8.0101 C.ar    
  37 C37            7.5984    -6.2869     8.2181 C.ar    
  38 C38            8.3058    -6.7563     7.1101 C.ar    
  39 N39            7.8592    -6.5404     5.8902 N.ar    
  40 C40            8.0811    -6.5259     9.5450 C.1     
  41 N41            8.4641    -6.7155    10.5975 N.1     
  42 H42            1.2735    -1.6011    -1.5816 H       
  43 H43            2.9713     1.7487     0.5152 H       
  44 H44            4.6070     0.8487     0.3306 H       
  45 H45           -2.9245     3.9410    -0.8472 H       
  46 H46           -2.6177     4.6818     0.7429 H       
  47 H47           -0.5430     3.7125    -0.2677 H       
  48 H48           -0.9736     2.9277     1.2717 H       
  49 H49           -2.3953    -0.0402    -0.3505 H       
  50 H50           -2.0614     0.7237     1.2230 H       
  51 H51           -4.4442     0.9811     0.6612 H       
  52 H52           -4.0153     1.7311    -0.8959 H       
  53 H53            9.2411    -0.0874    -0.1044 H       
  54 H54            5.0407    -2.6445     0.3522 H       
  55 H55           10.0848    -2.6705     1.2774 H       
  56 H56            9.5770    -3.7632    -0.0327 H       
  57 H57           10.4068    -2.2364    -0.4185 H       
  58 H58            7.9753     1.8156    -0.7872 H       
  59 H59            6.2002     1.7481    -0.8993 H       
  60 H60            6.9197     3.2749     0.9172 H       
  61 H61            6.0392     1.8734     1.5719 H       
  62 H62            7.8144     1.9409     1.6841 H       
  63 H63            5.7568    -6.6718     1.7258 H       
  64 H64            7.4457    -6.6449     1.1565 H       
  65 H65            7.2160    -7.4598     3.5303 H       
  66 H66            8.2316    -6.0045     3.3856 H       
  67 H67            5.6709    -3.6215     4.6238 H       
  68 H68            7.3375    -3.7833     4.0184 H       
  69 H69            5.9383    -2.8798     2.2339 H       
  70 H70            4.7729    -4.2144     2.4291 H       
  71 H71            5.0737    -4.8310     6.5099 H       
  72 H72            5.8358    -5.1999     8.8441 H       
  73 H73            9.2249    -7.3047     7.2547 H       
@<TRIPOS>BOND
   1    1    2 ar
   2    1    6 ar
   3    1   13 1
   4    2    3 ar
   5    3    4 ar
   6    3   42 1
   7    4    5 ar
   8    4    7 1
   9    5    6 ar
  10    5   43 1
  11    7    8 2
  12    7    9 am
  13    9   16 1
  14    9   44 1
  15   10   11 1
  16   10   15 1
  17   11   12 1
  18   11   45 1
  19   11   46 1
  20   12   13 1
  21   12   47 1
  22   12   48 1
  23   13   14 1
  24   14   15 1
  25   14   49 1
  26   14   50 1
  27   15   51 1
  28   15   52 1
  29   16   17 ar
  30   16   21 ar
  31   17   18 ar
  32   17   23 1
  33   18   19 ar
  34   18   53 1
  35   19   20 ar
  36   19   22 1
  37   20   21 ar
  38   20   25 1
  39   21   54 1
  40   22   55 1
  41   22   56 1
  42   22   57 1
  43   23   24 1
  44   23   58 1
  45   23   59 1
  46   24   60 1
  47   24   61 1
  48   24   62 1
  49   25   26 2
  50   25   27 am
  51   27   28 1
  52   27   32 1
  53   28   29 1
  54   28   63 1
  55   28   64 1
  56   29   30 1
  57   29   65 1
  58   29   66 1
  59   30   31 1
  60   30   33 1
  61   30   34 1
  62   31   32 1
  63   31   67 1
  64   31   68 1
  65   32   69 1
  66   32   70 1
  67   34   35 ar
  68   34   39 ar
  69   35   36 ar
  70   35   71 1
  71   36   37 ar
  72   36   72 1
  73   37   38 ar
  74   37   40 1
  75   38   39 ar
  76   38   73 1
  77   40   41 3

#	End of record

