#	Name: ASD04930062
#	Creating user name:	WinNT
#	Creation time:	15. 06. 2019 20:56

#	Modifying user name:	WinNT
#	Modification time:	15. 06. 2019 20:56

#	Program:	/corina/corina34_cracker 3.40 0067  02.08.2006

@<TRIPOS>MOLECULE
ASD04930062
  48   49    0    0    0
SMALL
NO_CHARGES


@<TRIPOS>ATOM
   1 N1             1.4343     1.3614    -1.2660 N.am    
   2 C2             1.4484     0.0177    -1.2700 C.2     
   3 C3             1.2741    -0.7384    -0.0307 C.2     
   4 C4             1.0916    -0.0439     1.1678 C.2     
   5 C5             1.0833     1.4216     1.1271 C.ar    
   6 C6             0.9036     2.1655     2.2995 C.ar    
   7 C7             0.8980     3.5296     2.2444 C.ar    
   8 C8             1.0694     4.1867     1.0320 C.ar    
   9 C9             1.2479     3.4732    -0.1349 C.ar    
  10 C10            1.2567     2.0817    -0.1026 C.ar    
  11 C11            1.2901    -2.2062    -0.0457 C.2     
  12 O12            2.3460    -2.8021    -0.1487 O.2     
  13 N13            0.1353    -2.8937     0.0548 N.am    
  14 N14            0.1378    -4.2892    -0.0692 N.am    
  15 O15            1.6082    -0.5785    -2.3202 O.2     
  16 C16           -1.0170    -4.9768     0.0312 C.2     
  17 C17           -1.0143    -6.4779    -0.1021 C.3     
  18 C18           -2.4421    -7.0061     0.0506 C.3     
  19 C19           -2.4393    -8.5300    -0.0848 C.3     
  20 C20           -3.8671    -9.0582     0.0679 C.3     
  21 C21           -3.8643   -10.5822    -0.0675 C.3     
  22 C22           -5.2921   -11.1104     0.0852 C.3     
  23 C23           -5.2894   -12.6344    -0.0502 C.3     
  24 O24           -2.0584    -4.3875     0.2289 O.2     
  25 O25            0.9267    -0.7049     2.3327 O.3     
  26 Cl26           1.0582     5.9220     0.9855 Cl      
  27 H27            1.5562     1.8374    -2.1023 H       
  28 H28            0.7695     1.6615     3.2452 H       
  29 H29            0.7590     4.1022     3.1495 H       
  30 H30            1.3800     3.9934    -1.0721 H       
  31 H31           -0.6977    -2.4224     0.2129 H       
  32 H32            0.9707    -4.7606    -0.2273 H       
  33 H33           -0.6274    -6.7548    -1.0828 H       
  34 H34           -0.3820    -6.9104     0.6733 H       
  35 H35           -2.8290    -6.7291     1.0312 H       
  36 H36           -3.0744    -6.5735    -0.7249 H       
  37 H37           -2.0524    -8.8070    -1.0655 H       
  38 H38           -1.8071    -8.9626     0.6906 H       
  39 H39           -4.2540    -8.7813     1.0485 H       
  40 H40           -4.4994    -8.6257    -0.7076 H       
  41 H41           -3.4774   -10.8592    -1.0482 H       
  42 H42           -3.2321   -11.0147     0.7079 H       
  43 H43           -5.6790   -10.8335     1.0658 H       
  44 H44           -5.9244   -10.6779    -0.6903 H       
  45 H45           -4.6571   -13.0669     0.7252 H       
  46 H46           -6.3066   -13.0107     0.0585 H       
  47 H47           -4.9025   -12.9113    -1.0309 H       
  48 H48            0.8694    -1.6652     2.2352 H       
@<TRIPOS>BOND
   1    1    2 am
   2    1   10 1
   3    1   27 1
   4    2    3 1
   5    2   15 2
   6    3    4 2
   7    3   11 1
   8    4    5 1
   9    4   25 1
  10    5    6 ar
  11    5   10 ar
  12    6    7 ar
  13    6   28 1
  14    7    8 ar
  15    7   29 1
  16    8    9 ar
  17    8   26 1
  18    9   10 ar
  19    9   30 1
  20   11   12 2
  21   11   13 am
  22   13   14 1
  23   13   31 1
  24   14   16 am
  25   14   32 1
  26   16   17 1
  27   16   24 2
  28   17   18 1
  29   17   33 1
  30   17   34 1
  31   18   19 1
  32   18   35 1
  33   18   36 1
  34   19   20 1
  35   19   37 1
  36   19   38 1
  37   20   21 1
  38   20   39 1
  39   20   40 1
  40   21   22 1
  41   21   41 1
  42   21   42 1
  43   22   23 1
  44   22   43 1
  45   22   44 1
  46   23   45 1
  47   23   46 1
  48   23   47 1
  49   25   48 1

#	End of record

