#	Name: ASD01813013
#	Creating user name:	WinNT
#	Creation time:	15. 06. 2019 19:29

#	Modifying user name:	WinNT
#	Modification time:	15. 06. 2019 19:29

#	Program:	/corina/corina34_cracker 3.40 0067  02.08.2006

@<TRIPOS>MOLECULE
ASD01813013
  41   43    0    0    0
SMALL
NO_CHARGES


@<TRIPOS>ATOM
   1 C1            -0.7252     1.4881    -0.1481 C.2     
   2 C2            -0.4496     0.1586    -0.1740 C.2     
   3 N3            -1.4312    -0.7747     0.0288 N.pl3   
   4 C4            -2.7068    -0.4558     0.2715 C.2     
   5 C5            -3.1139     0.8642     0.3305 C.2     
   6 C6            -2.1083     1.9133     0.1128 C.2     
   7 O7            -2.4089     3.0949     0.1539 O.2     
   8 C8            -1.0657    -2.1924    -0.0233 C.3     
   9 C9            -1.1604    -2.6837    -1.4449 C.ar    
  10 C10           -0.0268    -2.7331    -2.2350 C.ar    
  11 C11           -0.1110    -3.1830    -3.5384 C.ar    
  12 C12           -1.3343    -3.5855    -4.0544 C.ar    
  13 C13           -2.4702    -3.5349    -3.2596 C.ar    
  14 C14           -2.3797    -3.0895    -1.9550 C.ar    
  15 C15            0.3263     2.5352    -0.3814 C.3     
  16 C16            1.7239     1.9977    -0.0849 C.3     
  17 C17            1.9503     0.7145    -0.8962 C.3     
  18 C18            0.9380    -0.3041    -0.4175 C.2     
  19 O19            1.2508    -1.4575    -0.2391 O.2     
  20 O20           -1.4198    -4.0280    -5.3365 O.3     
  21 C21           -2.7113    -4.4261    -5.8006 C.3     
  22 C22           -4.5192     1.2096     0.5995 C.2     
  23 O23           -5.3387     0.3291     0.7734 O.2     
  24 O24           -4.8971     2.5022     0.6532 O.3     
  25 H25           -3.4311    -1.2423     0.4238 H       
  26 H26           -0.0447    -2.3179     0.3372 H       
  27 H27           -1.7462    -2.7665     0.6056 H       
  28 H28            0.9252    -2.4193    -1.8329 H       
  29 H29            0.7747    -3.2211    -4.1553 H       
  30 H30           -3.4237    -3.8477    -3.6590 H       
  31 H31           -3.2637    -3.0500    -1.3358 H       
  32 H32            0.2821     2.8593    -1.4212 H       
  33 H33            0.1282     3.3897     0.2658 H       
  34 H34            2.4682     2.7428    -0.3660 H       
  35 H35            1.8113     1.7766     0.9789 H       
  36 H36            1.8011     0.9152    -1.9572 H       
  37 H37            2.9604     0.3417    -0.7267 H       
  38 H38           -3.0832    -5.2437    -5.1831 H       
  39 H39           -3.3969    -3.5812    -5.7361 H       
  40 H40           -2.6390    -4.7571    -6.8366 H       
  41 H41           -5.8305     2.6796     0.8327 H       
@<TRIPOS>BOND
   1    1    2 2
   2    1   15 1
   3    1    6 1
   4    2    3 1
   5    2   18 1
   6    3    4 1
   7    3    8 1
   8    4    5 2
   9    4   25 1
  10    5    6 1
  11    5   22 1
  12    6    7 2
  13    8    9 1
  14    8   26 1
  15    8   27 1
  16    9   10 ar
  17    9   14 ar
  18   10   11 ar
  19   10   28 1
  20   11   12 ar
  21   11   29 1
  22   12   13 ar
  23   12   20 1
  24   13   14 ar
  25   13   30 1
  26   14   31 1
  27   15   16 1
  28   15   32 1
  29   15   33 1
  30   16   17 1
  31   16   34 1
  32   16   35 1
  33   17   18 1
  34   17   36 1
  35   17   37 1
  36   18   19 2
  37   20   21 1
  38   21   38 1
  39   21   39 1
  40   21   40 1
  41   22   23 2
  42   22   24 1
  43   24   41 1

#	End of record

