#	Name: ASD01880491
#	Creating user name:	WinNT
#	Creation time:	15. 06. 2019 19:40

#	Modifying user name:	WinNT
#	Modification time:	15. 06. 2019 19:40

#	Program:	/corina/corina34_cracker 3.40 0067  02.08.2006

@<TRIPOS>MOLECULE
ASD01880491
  54   57    0    0    0
SMALL
NO_CHARGES


@<TRIPOS>ATOM
   1 N1            -0.0168     1.3115     0.0133 N.ar    
   2 C2             0.0031    -0.0058     0.0027 C.ar    
   3 N3             1.1330    -0.6839    -0.0157 N.ar    
   4 C4             2.3031    -0.0611    -0.0244 C.ar    
   5 C5             2.3315     1.3197    -0.0139 C.ar    
   6 C6             1.1165     2.0074     0.0056 C.ar    
   7 C7             3.6410     2.0654    -0.0233 C.3     
   8 O8             4.7202     1.1342     0.0782 O.3     
   9 C9             5.9771     1.6459     0.0836 C.ar    
  10 C10            7.0737     0.7948     0.1800 C.ar    
  11 C11            8.3446     1.3136     0.1849 C.ar    
  12 C12            8.5455     2.6950     0.0936 C.ar    
  13 C13            7.4407     3.5453    -0.0034 C.ar    
  14 C14            6.1680     3.0191    -0.0129 C.ar    
  15 C15            9.7148     0.6891     0.2742 C.3     
  16 N16           10.6744     1.7982     0.2271 N.am    
  17 C17            9.9956     2.9535     0.1228 C.2     
  18 O18           10.5057     4.0554     0.0611 O.2     
  19 N19            1.0919     3.3926     0.0163 N.3     
  20 C20            0.5156     3.8949    -1.1620 C.3     
  21 C21            0.6574     5.4297    -1.2501 C.3     
  22 C22           -0.3311     6.0719    -0.3109 C.3     
  23 O23            0.2185     6.3147     1.0003 O.3     
  24 C24            1.0452     5.2695     1.5442 C.3     
  25 C25            0.4805     3.9011     1.2598 C.3     
  26 C26           14.2103     1.3836    -1.0733 C.3     
  27 C27           12.6876     1.5199    -1.1334 C.3     
  28 C28           12.1324     1.6677     0.2846 C.3     
  29 H29           -0.9327    -0.5450     0.0097 H       
  30 H30            3.2231    -0.6266    -0.0392 H       
  31 H31            3.7324     2.6276    -0.9526 H       
  32 H32            3.6737     2.7529     0.8220 H       
  33 H33            6.9251    -0.2726     0.2512 H       
  34 H34            7.5848     4.6133    -0.0741 H       
  35 H35            5.3147     3.6768    -0.0882 H       
  36 H36            9.8178     0.1442     1.2126 H       
  37 H37            9.8763     0.0178    -0.5692 H       
  38 H38            1.0092     3.4415    -2.0216 H       
  39 H39           -0.5423     3.6331    -1.1810 H       
  40 H40            1.6696     5.7189    -0.9673 H       
  41 H41            0.4557     5.7563    -2.2703 H       
  42 H42           -0.6553     7.0212    -0.7373 H       
  43 H43           -1.1983     5.4188    -0.2130 H       
  44 H44            2.0408     5.3405     1.1064 H       
  45 H45            1.1231     5.4039     2.6231 H       
  46 H46           -0.6002     3.9694     1.1353 H       
  47 H47            0.7155     3.2290     2.0851 H       
  48 H48           14.6365     2.2719    -0.6070 H       
  49 H49           14.4735     0.5035    -0.4865 H       
  50 H50           14.6059     1.2783    -2.0835 H       
  51 H51           12.4245     2.4000    -1.7201 H       
  52 H52           12.2615     0.6316    -1.5997 H       
  53 H53           12.5586     2.5560     0.7510 H       
  54 H54           12.3955     0.7876     0.8714 H       
@<TRIPOS>BOND
   1    1    2 ar
   2    1    6 ar
   3    2    3 ar
   4    2   29 1
   5    3    4 ar
   6    4    5 ar
   7    4   30 1
   8    5    6 ar
   9    5    7 1
  10    6   19 1
  11    7    8 1
  12    7   31 1
  13    7   32 1
  14    8    9 1
  15    9   10 ar
  16    9   14 ar
  17   10   11 ar
  18   10   33 1
  19   11   12 ar
  20   11   15 1
  21   12   13 ar
  22   12   17 1
  23   13   14 ar
  24   13   34 1
  25   14   35 1
  26   15   16 1
  27   15   36 1
  28   15   37 1
  29   16   17 am
  30   16   28 1
  31   17   18 2
  32   19   20 1
  33   19   25 1
  34   20   21 1
  35   20   38 1
  36   20   39 1
  37   21   22 1
  38   21   40 1
  39   21   41 1
  40   22   23 1
  41   22   42 1
  42   22   43 1
  43   23   24 1
  44   24   25 1
  45   24   44 1
  46   24   45 1
  47   25   46 1
  48   25   47 1
  49   26   27 1
  50   26   48 1
  51   26   49 1
  52   26   50 1
  53   27   28 1
  54   27   51 1
  55   27   52 1
  56   28   53 1
  57   28   54 1

#	End of record

