#	Name: ASD01813757
#	Creating user name:	WinNT
#	Creation time:	15. 06. 2019 19:31

#	Modifying user name:	WinNT
#	Modification time:	15. 06. 2019 19:31

#	Program:	/corina/corina34_cracker 3.40 0067  02.08.2006

@<TRIPOS>MOLECULE
ASD01813757
  55   59    0    0    0
SMALL
NO_CHARGES


@<TRIPOS>ATOM
   1 O1            -0.0173     1.4248     0.0099 O.3     
   2 C2             0.0021    -0.0041     0.0020 C.3     
   3 H3             0.5118    -0.3584    -0.8939 H       
   4 C4             0.7210    -0.5066     1.2247 C.3     
   5 C5             1.5039    -1.8060     0.9558 C.3     
   6 C6             0.7219    -2.8046     0.0813 C.3     
   7 C7            -0.7311    -2.8897     0.4633 C.3     
   8 C8            -1.5304    -1.9204    -0.4314 C.3     
   9 C9            -1.4434    -0.5420     0.0227 C.3     
  10 H10           -1.8266    -0.4850     1.0415 H       
  11 N11           -2.2749     0.2989    -0.8420 N.am    
  12 C12           -1.9779     0.4091    -2.1610 C.2     
  13 N13           -2.6715     1.1364    -2.9876 N.2     
  14 C14           -3.7441     1.8372    -2.5831 C.ar    
  15 C15           -4.1327     1.7875    -1.2319 C.ar    
  16 C16           -5.2493     2.5110    -0.7849 C.ar    
  17 C17           -5.9798     3.2718    -1.6345 C.ar    
  18 C18           -7.1712     4.0313    -1.1103 C.3     
  19 C19           -8.4211     3.2183    -1.3292 C.ar    
  20 C20           -9.1451     3.3471    -2.5048 C.ar    
  21 C21          -10.2882     2.5793    -2.6634 C.ar    
  22 C22          -10.6660     1.7159    -1.6506 C.ar    
  23 Cl23         -12.0951     0.7479    -1.8363 Cl      
  24 N24           -9.9518     1.6197    -0.5449 N.ar    
  25 C25           -8.8565     2.3312    -0.3632 C.ar    
  26 C26           -5.6443     3.3661    -3.0014 C.ar    
  27 C27           -6.4029     4.1562    -3.8787 C.ar    
  28 C28           -6.0559     4.2294    -5.1948 C.ar    
  29 C29           -4.9577     3.5305    -5.6854 C.ar    
  30 C30           -4.1987     2.7527    -4.8603 C.ar    
  31 C31           -4.5269     2.6559    -3.5043 C.ar    
  32 C32           -3.3369     0.9555    -0.3203 C.2     
  33 O33           -3.6197     0.8629     0.8607 O.2     
  34 H34            0.8606     1.8301     0.0037 H       
  35 H35            1.4168     0.2604     1.5648 H       
  36 H36           -0.0096    -0.6915     2.0122 H       
  37 H37            2.4384    -1.5558     0.4537 H       
  38 H38            1.7358    -2.2803     1.9094 H       
  39 H39            0.7949    -2.4933    -0.9608 H       
  40 H40            1.1721    -3.7918     0.1848 H       
  41 H41           -1.0903    -3.9077     0.3126 H       
  42 H42           -0.8519    -2.6068     1.5090 H       
  43 H43           -1.1436    -1.9787    -1.4487 H       
  44 H44           -2.5768    -2.2255    -0.4356 H       
  45 H45           -1.1252    -0.1323    -2.5433 H       
  46 H46           -5.5316     2.4597     0.2563 H       
  47 H47           -7.0420     4.2193    -0.0444 H       
  48 H48           -7.2581     4.9807    -1.6388 H       
  49 H49           -8.8262     4.0299    -3.2784 H       
  50 H50          -10.8765     2.6543    -3.5660 H       
  51 H51           -8.2954     2.2226     0.5532 H       
  52 H52           -7.2586     4.7039    -3.5125 H       
  53 H53           -6.6424     4.8387    -5.8666 H       
  54 H54           -4.7029     3.6042    -6.7323 H       
  55 H55           -3.3488     2.2141    -5.2526 H       
@<TRIPOS>BOND
   1    1    2 1
   2    1   34 1
   3    2    3 1
   4    2    9 1
   5    2    4 1
   6    4    5 1
   7    4   35 1
   8    4   36 1
   9    5    6 1
  10    5   37 1
  11    5   38 1
  12    6    7 1
  13    6   39 1
  14    6   40 1
  15    7    8 1
  16    7   41 1
  17    7   42 1
  18    8    9 1
  19    8   43 1
  20    8   44 1
  21    9   10 1
  22    9   11 1
  23   11   32 am
  24   11   12 1
  25   12   13 2
  26   12   45 1
  27   13   14 1
  28   14   31 ar
  29   14   15 ar
  30   15   16 ar
  31   15   32 1
  32   16   17 ar
  33   16   46 1
  34   17   18 1
  35   17   26 ar
  36   18   19 1
  37   18   47 1
  38   18   48 1
  39   19   25 ar
  40   19   20 ar
  41   20   21 ar
  42   20   49 1
  43   21   22 ar
  44   21   50 1
  45   22   23 1
  46   22   24 ar
  47   24   25 ar
  48   25   51 1
  49   26   31 ar
  50   26   27 ar
  51   27   28 ar
  52   27   52 1
  53   28   29 ar
  54   28   53 1
  55   29   30 ar
  56   29   54 1
  57   30   31 ar
  58   30   55 1
  59   32   33 2

#	End of record

