#	Name: ASD03091076
#	Creating user name:	WinNT
#	Creation time:	15. 06. 2019 20:30

#	Modifying user name:	WinNT
#	Modification time:	15. 06. 2019 20:30

#	Program:	/corina/corina34_cracker 3.40 0067  02.08.2006

@<TRIPOS>MOLECULE
ASD03091076
  48   50    0    0    0
SMALL
NO_CHARGES


@<TRIPOS>ATOM
   1 C1            -0.0395     1.4498    -0.3766 C.2     
   2 C2            -0.0083    -0.0162    -0.1859 C.ar    
   3 C3             1.2138    -0.6879    -0.1194 C.ar    
   4 C4             1.2404    -2.0559     0.0586 C.ar    
   5 C5             0.0598    -2.7661     0.1722 C.ar    
   6 C6            -1.1621    -2.1070     0.1073 C.ar    
   7 C7            -1.1994    -0.7316    -0.0661 C.ar    
   8 O8             0.4813     1.9465    -1.3561 O.2     
   9 N9            -0.6504     2.2348     0.5329 N.am    
  10 N10            2.4810     0.0674    -0.2403 N.pl3   
  11 O11            3.5415    -0.5283    -0.3032 O.2     
  12 O12            2.4633     1.2848    -0.2769 O.2     
  13 C13           -0.6813     3.6872     0.3440 C.3     
  14 C14           -1.8842     4.2726     1.0865 C.3     
  15 C15            0.6069     4.3009     0.8961 C.3     
  16 N16           -5.0884    -3.7007    -0.5027 N.3     
  17 C17           -4.8146    -2.6599     0.5000 C.3     
  18 C18           -3.5160    -1.9354     0.1813 C.3     
  19 N19           -2.3525    -2.8292     0.2220 N.3     
  20 C20           -2.4498    -3.8542    -0.8266 C.3     
  21 C21           -3.0825    -5.1220    -0.2726 C.3     
  22 C22           -4.5739    -4.9960    -0.0357 C.3     
  23 C23           -4.6996    -3.3973    -1.8632 C.3     
  24 C24           -3.1924    -3.2782    -2.0184 C.3     
  25 H25            2.1869    -2.5737     0.1091 H       
  26 H26            0.0870    -3.8368     0.3114 H       
  27 H27           -2.1476    -0.2168    -0.1127 H       
  28 H28           -1.0695     1.8381     1.3125 H       
  29 H29           -0.7652     3.9136    -0.7190 H       
  30 H30           -1.8003     4.0462     2.1495 H       
  31 H31           -1.9072     5.3532     0.9460 H       
  32 H32           -2.8019     3.8354     0.6932 H       
  33 H33            0.6907     4.0744     1.9590 H       
  34 H34            1.4638     3.8838     0.3670 H       
  35 H35            0.5839     5.3815     0.7555 H       
  36 H36           -5.6345    -1.9417     0.5051 H       
  37 H37           -4.7361    -3.1214     1.4843 H       
  38 H38           -3.5908    -1.4983    -0.8144 H       
  39 H39           -3.3715    -1.1345     0.9065 H       
  40 H40           -1.4394    -4.0963    -1.1562 H       
  41 H41           -2.9080    -5.9360    -0.9763 H       
  42 H42           -2.5984    -5.3703     0.6719 H       
  43 H43           -4.7744    -5.0949     1.0311 H       
  44 H44           -5.0877    -5.7961    -0.5687 H       
  45 H45           -5.0609    -4.1894    -2.5191 H       
  46 H46           -5.1612    -2.4559    -2.1613 H       
  47 H47           -2.9293    -2.2258    -2.1248 H       
  48 H48           -2.8856    -3.8111    -2.9183 H       
@<TRIPOS>BOND
   1    1    2 1
   2    1    8 2
   3    1    9 am
   4    2    3 ar
   5    2    7 ar
   6    3    4 ar
   7    3   10 1
   8    4    5 ar
   9    4   25 1
  10    5    6 ar
  11    5   26 1
  12    6    7 ar
  13    6   19 1
  14    7   27 1
  15    9   13 1
  16    9   28 1
  17   10   11 2
  18   10   12 2
  19   13   14 1
  20   13   15 1
  21   13   29 1
  22   14   30 1
  23   14   31 1
  24   14   32 1
  25   15   33 1
  26   15   34 1
  27   15   35 1
  28   16   17 1
  29   16   22 1
  30   16   23 1
  31   17   18 1
  32   17   36 1
  33   17   37 1
  34   18   19 1
  35   18   38 1
  36   18   39 1
  37   19   20 1
  38   20   21 1
  39   20   24 1
  40   20   40 1
  41   21   22 1
  42   21   41 1
  43   21   42 1
  44   22   43 1
  45   22   44 1
  46   23   24 1
  47   23   45 1
  48   23   46 1
  49   24   47 1
  50   24   48 1

#	End of record

