#	Name: ASD04910042
#	Creating user name:	WinNT
#	Creation time:	15. 06. 2019 20:55

#	Modifying user name:	WinNT
#	Modification time:	15. 06. 2019 20:55

#	Program:	/corina/corina34_cracker 3.40 0067  02.08.2006

@<TRIPOS>MOLECULE
ASD04910042
  63   66    0    0    0
SMALL
NO_CHARGES


@<TRIPOS>ATOM
   1 C1             0.9814     1.5253     0.9155 C.2     
   2 C2             0.8610     0.1212     0.7906 C.2     
   3 C3             1.9655    -0.6421     0.6724 C.2     
   4 O4             2.0822     2.0438     0.9161 O.2     
   5 O5            -0.1247     2.2900     1.0282 O.3     
   6 C6             2.9532    -2.7668     0.4331 C.2     
   7 C7             2.8274    -4.2334     0.3027 C.ar    
   8 C8             3.9696    -5.0270     0.1801 C.ar    
   9 C9             3.8450    -6.3955     0.0591 C.ar    
  10 C10            2.5917    -6.9819     0.0592 C.ar    
  11 C11            1.4557    -6.2013     0.1799 C.ar    
  12 C12            1.5662    -4.8322     0.3074 C.ar    
  13 O13            4.0527    -2.2489     0.4338 O.2     
  14 N14            1.8487    -2.0036     0.5513 N.am    
  15 C15            2.4635    -8.4776    -0.0733 C.3     
  16 N16            1.4069    -8.9582     0.8205 N.pl3   
  17 C17            2.9782    -9.0457     2.6571 C.ar    
  18 C18            1.6866    -9.1949     2.1701 C.ar    
  19 C19            0.6726    -9.5830     3.0435 C.ar    
  20 C20            0.9957    -9.8057     4.3704 C.ar    
  21 C21            2.3106    -9.6364     4.7850 C.ar    
  22 N22            3.2486    -9.2668     3.9283 N.ar    
  23 N23            2.6472    -9.8594     6.1251 N.pl3   
  24 N24            1.7681   -10.2525     7.1426 N.2     
  25 C25            2.4495   -10.3587     8.2546 C.2     
  26 C26            3.7846   -10.0376     7.9858 C.2     
  27 C27            3.8853    -9.7389     6.6699 C.2     
  28 C28            4.9127   -10.0308     8.9849 C.3     
  29 F29            4.4238   -10.3992    10.2429 F       
  30 F30            5.8973   -10.9398     8.5827 F       
  31 F31            5.4645    -8.7472     9.0566 F       
  32 C32            2.1096    -8.8331    -1.5187 C.3     
  33 C33            2.0956   -10.3544    -1.6810 C.3     
  34 C34            1.7417   -10.7099    -3.1264 C.3     
  35 C35            0.3597   -10.1480    -3.4661 C.3     
  36 C36            0.3737    -8.6267    -3.3038 C.3     
  37 C37            0.7276    -8.2712    -1.8584 C.3     
  38 H38           -0.1161    -0.3391     0.7900 H       
  39 H39            2.9425    -0.1818     0.6730 H       
  40 H40            0.0578     3.2362     1.1085 H       
  41 H41            4.9483    -4.5705     0.1795 H       
  42 H42            4.7276    -7.0105    -0.0362 H       
  43 H43            0.4805    -6.6653     0.1789 H       
  44 H44            0.6789    -4.2244     0.4060 H       
  45 H45            0.9712    -2.4170     0.5508 H       
  46 H46            3.4089    -8.9486     0.1957 H       
  47 H47            0.5132    -9.1122     0.4762 H       
  48 H48            3.7710    -8.7495     1.9862 H       
  49 H49           -0.3415    -9.7067     2.6932 H       
  50 H50            0.2349   -10.1073     5.0751 H       
  51 H51            2.0496   -10.6453     9.2160 H       
  52 H52            4.7867    -9.4538     6.1479 H       
  53 H53            2.8520    -8.4028    -2.1909 H       
  54 H54            3.0801   -10.7547    -1.4390 H       
  55 H55            1.3532   -10.7847    -1.0088 H       
  56 H56            2.4841   -10.2796    -3.7986 H       
  57 H57            1.7317   -11.7937    -3.2420 H       
  58 H58            0.1076   -10.4013    -4.4958 H       
  59 H59           -0.3827   -10.5783    -2.7939 H       
  60 H60            1.1161    -8.1964    -3.9760 H       
  61 H61           -0.6108    -8.2264    -3.5458 H       
  62 H62           -0.0148    -8.7015    -1.1862 H       
  63 H63            0.7376    -7.1874    -1.7428 H       
@<TRIPOS>BOND
   1    1    2 1
   2    1    4 2
   3    1    5 1
   4    2    3 2
   5    2   38 1
   6    3   14 1
   7    3   39 1
   8    5   40 1
   9    6    7 1
  10    6   13 2
  11    6   14 am
  12    7    8 ar
  13    7   12 ar
  14    8    9 ar
  15    8   41 1
  16    9   10 ar
  17    9   42 1
  18   10   11 ar
  19   10   15 1
  20   11   12 ar
  21   11   43 1
  22   12   44 1
  23   14   45 1
  24   15   16 1
  25   15   32 1
  26   15   46 1
  27   16   18 1
  28   16   47 1
  29   17   18 ar
  30   17   22 ar
  31   17   48 1
  32   18   19 ar
  33   19   20 ar
  34   19   49 1
  35   20   21 ar
  36   20   50 1
  37   21   22 ar
  38   21   23 1
  39   23   24 1
  40   23   27 1
  41   24   25 2
  42   25   26 1
  43   25   51 1
  44   26   27 2
  45   26   28 1
  46   27   52 1
  47   28   29 1
  48   28   30 1
  49   28   31 1
  50   32   33 1
  51   32   37 1
  52   32   53 1
  53   33   34 1
  54   33   54 1
  55   33   55 1
  56   34   35 1
  57   34   56 1
  58   34   57 1
  59   35   36 1
  60   35   58 1
  61   35   59 1
  62   36   37 1
  63   36   60 1
  64   36   61 1
  65   37   62 1
  66   37   63 1

#	End of record

