#	Name: ASD01915622
#	Creating user name:	WinNT
#	Creation time:	15. 06. 2019 20:05

#	Modifying user name:	WinNT
#	Modification time:	15. 06. 2019 20:05

#	Program:	/corina/corina34_cracker 3.40 0067  02.08.2006

@<TRIPOS>MOLECULE
ASD01915622
  39   42    0    0    0
SMALL
NO_CHARGES


@<TRIPOS>ATOM
   1 C1            -0.0166     1.3728     0.0096 C.2     
   2 N2             0.0021    -0.0041     0.0020 N.pl3   
   3 C3            -1.2433    -0.7807    -0.0179 C.3     
   4 C4            -2.3411     0.0068     0.6954 C.3     
   5 N5            -2.4042     1.3989     0.2636 N.am    
   6 C6            -1.2811     2.1228     0.0392 C.2     
   7 C7             1.2846     1.7904    -0.0006 C.2     
   8 C8             2.0437     0.6125    -0.0024 C.2     
   9 N9             1.2133    -0.4042     0.0045 N.2     
  10 C10            3.5483     0.5278    -0.0111 C.3     
  11 O11            4.0996     1.8461    -0.0175 O.3     
  12 C12            5.4547     1.9482    -0.0258 C.ar    
  13 O13           -1.3168     3.3270    -0.1281 O.2     
  14 C14            6.0574     3.1977    -0.0322 C.ar    
  15 C15            6.2378     0.8030    -0.0220 C.ar    
  16 C16            7.6151     0.9094    -0.0305 C.ar    
  17 C17            8.2133     2.1559    -0.0427 C.ar    
  18 C18            7.4351     3.2988    -0.0407 C.ar    
  19 C19           -3.6442     1.9957     0.0779 C.ar    
  20 N20           -3.7006     3.2593    -0.3141 N.ar    
  21 C21           -4.8650     3.8585    -0.5005 C.ar    
  22 C22           -6.0348     3.1464    -0.2803 C.ar    
  23 C23           -5.9383     1.8247     0.1297 C.ar    
  24 N24           -4.7413     1.2857     0.2918 N.ar    
  25 Cl25          -7.5850     3.8927    -0.5120 Cl      
  26 H26           -1.5404    -0.9656    -1.0502 H       
  27 H27           -1.0875    -1.7313     0.4922 H       
  28 H28           -3.3017    -0.4679     0.4954 H       
  29 H29           -2.1536    -0.0208     1.7688 H       
  30 H30            1.6488     2.8072    -0.0066 H       
  31 H31            3.8875    -0.0036     0.8781 H       
  32 H32            3.8769    -0.0077    -0.9018 H       
  33 H33            5.4500     4.0908    -0.0310 H       
  34 H34            5.7710    -0.1709    -0.0121 H       
  35 H35            8.2251     0.0182    -0.0273 H       
  36 H36            9.2902     2.2370    -0.0494 H       
  37 H37            7.9047     4.2713    -0.0506 H       
  38 H38           -4.9043     4.8895    -0.8199 H       
  39 H39           -6.8294     1.2419     0.3103 H       
@<TRIPOS>BOND
   1    1    2 1
   2    1    7 2
   3    1    6 1
   4    2    3 1
   5    2    9 1
   6    3    4 1
   7    3   26 1
   8    3   27 1
   9    4    5 1
  10    4   28 1
  11    4   29 1
  12    5    6 am
  13    5   19 1
  14    6   13 2
  15    7    8 1
  16    7   30 1
  17    8    9 2
  18    8   10 1
  19   10   11 1
  20   10   31 1
  21   10   32 1
  22   11   12 1
  23   12   14 ar
  24   12   15 ar
  25   14   18 ar
  26   14   33 1
  27   15   16 ar
  28   15   34 1
  29   16   17 ar
  30   16   35 1
  31   17   18 ar
  32   17   36 1
  33   18   37 1
  34   19   20 ar
  35   19   24 ar
  36   20   21 ar
  37   21   22 ar
  38   21   38 1
  39   22   23 ar
  40   22   25 1
  41   23   24 ar
  42   23   39 1

#	End of record

