#	Name: ASD01941044
#	Creating user name:	WinNT
#	Creation time:	15. 06. 2019 20:13

#	Modifying user name:	WinNT
#	Modification time:	15. 06. 2019 20:13

#	Program:	/corina/corina34_cracker 3.40 0067  02.08.2006

@<TRIPOS>MOLECULE
ASD01941044
  46   48    0    0    0
SMALL
NO_CHARGES


@<TRIPOS>ATOM
   1 N1            -0.0130     1.4144    -0.4127 N.am    
   2 C2             0.0277     0.0614    -0.4208 C.2     
   3 N3            -1.0431    -0.6737    -0.2920 N.2     
   4 C4            -2.2537    -0.1188    -0.1432 C.2     
   5 C5            -2.3650     1.2788    -0.1263 C.2     
   6 C6            -1.1914     2.0612    -0.2622 C.2     
   7 N7            -3.3748    -0.8888    -0.0093 N.am    
   8 C8            -4.5913    -0.3380     0.1389 C.2     
   9 C9            -4.7770     1.0469     0.1643 C.2     
  10 C10           -3.6833     1.8887     0.0359 C.2     
  11 C11           -3.2473    -2.3481    -0.0283 C.3     
  12 O12           -5.5622    -1.0683     0.2542 O.2     
  13 O13           -1.2431     3.2784    -0.2524 O.2     
  14 N14           -3.8349     3.2605     0.0576 N.pl3   
  15 C15           -3.2897     4.0082     1.1072 C.ar    
  16 C16           -2.7095     3.3646     2.1915 C.ar    
  17 C17           -2.1719     4.1053     3.2267 C.ar    
  18 C18           -2.2113     5.4870     3.1845 C.ar    
  19 C19           -2.7890     6.1332     2.1058 C.ar    
  20 C20           -3.3228     5.3983     1.0636 C.ar    
  21 F21           -3.8870     6.0290     0.0104 F       
  22 I22           -1.3950     6.6044     4.7574 I       
  23 C23            1.2260     2.1818    -0.5614 C.3     
  24 C24            1.4833     2.4524    -2.0452 C.3     
  25 N25            2.7257     3.2219    -2.1944 N.3     
  26 C26            3.8896     2.4288    -1.7768 C.3     
  27 C27            2.8842     3.7037    -3.5730 C.3     
  28 H28            0.9829    -0.4286    -0.5388 H       
  29 H29           -5.7679     1.4593     0.2841 H       
  30 H30           -3.0922    -2.7125     0.9872 H       
  31 H31           -4.1576    -2.7870    -0.4368 H       
  32 H32           -2.3974    -2.6305    -0.6495 H       
  33 H33           -4.3193     3.7063    -0.6548 H       
  34 H34           -2.6786     2.2856     2.2263 H       
  35 H35           -1.7205     3.6044     4.0703 H       
  36 H36           -2.8188     7.2124     2.0761 H       
  37 H37            1.1327     3.1290    -0.0302 H       
  38 H38            2.0579     1.6129    -0.1463 H       
  39 H39            1.5767     1.5052    -2.5764 H       
  40 H40            0.6515     3.0213    -2.4604 H       
  41 H41            3.9579     1.5320    -2.3925 H       
  42 H42            4.7959     3.0223    -1.8974 H       
  43 H43            3.7785     2.1437    -0.7306 H       
  44 H44            2.0423     4.3455    -3.8327 H       
  45 H45            3.8118     4.2702    -3.6556 H       
  46 H46            2.9162     2.8531    -4.2538 H       
@<TRIPOS>BOND
   1    1    2 1
   2    1   23 1
   3    1    6 am
   4    2    3 2
   5    2   28 1
   6    3    4 1
   7    4    5 2
   8    4    7 1
   9    5    6 1
  10    5   10 1
  11    6   13 2
  12    7    8 am
  13    7   11 1
  14    8    9 1
  15    8   12 2
  16    9   10 2
  17    9   29 1
  18   10   14 1
  19   11   30 1
  20   11   31 1
  21   11   32 1
  22   14   15 1
  23   14   33 1
  24   15   16 ar
  25   15   20 ar
  26   16   17 ar
  27   16   34 1
  28   17   18 ar
  29   17   35 1
  30   18   19 ar
  31   18   22 1
  32   19   20 ar
  33   19   36 1
  34   20   21 1
  35   23   24 1
  36   23   37 1
  37   23   38 1
  38   24   25 1
  39   24   39 1
  40   24   40 1
  41   25   26 1
  42   25   27 1
  43   26   41 1
  44   26   42 1
  45   26   43 1
  46   27   44 1
  47   27   45 1
  48   27   46 1

#	End of record

