#	Name: ASD01680062
#	Creating user name:	WinNT
#	Creation time:	15. 06. 2019 19:22

#	Modifying user name:	WinNT
#	Modification time:	15. 06. 2019 19:22

#	Program:	/corina/corina34_cracker 3.40 0067  02.08.2006

@<TRIPOS>MOLECULE
ASD01680062
  89   92    0    0    0
SMALL
NO_CHARGES


@<TRIPOS>ATOM
   1 N1            -0.4976    -1.5695    -2.3231 N.am    
   2 C2            -0.2139    -2.9366    -2.7965 C.3     
   3 C3             1.0715    -3.3588    -2.0422 C.3     
   4 C4             1.8654    -2.0261    -2.0094 C.3     
   5 C5             0.7554    -0.9665    -1.8456 C.3     
   6 C6            -1.7045    -0.9698    -2.3319 C.2     
   7 O7            -2.6549    -1.5247    -2.8470 O.2     
   8 O8            -1.8571     0.2442    -1.7700 O.3     
   9 C9            -1.3708    -3.8733    -2.4430 C.3     
  10 N10           -1.7126    -3.7144    -1.0273 N.pl3   
  11 C11           -2.7991    -4.3982    -0.4935 C.ar    
  12 C12           -3.5559    -5.2302    -1.3086 C.ar    
  13 C13           -4.6385    -5.9069    -0.7612 C.ar    
  14 C14           -4.9216    -5.7211     0.5919 C.ar    
  15 C15           -4.1250    -4.8792     1.3372 C.ar    
  16 N16           -3.0991    -4.2540     0.7889 N.ar    
  17 O17           -5.4029    -6.7287    -1.5249 O.3     
  18 C18           -6.4961    -7.3840    -0.8787 C.3     
  19 O19            2.7598    -1.9977    -0.8953 O.3     
  20 C20            3.9414    -1.2256    -1.1180 C.3     
  21 C21            4.8072    -1.2651     0.1148 C.2     
  22 N22            5.9809    -0.6030     0.1355 N.am    
  23 O23            4.4477    -1.8926     1.0884 O.2     
  24 C24            6.8226    -0.6414     1.3340 C.3     
  25 C25            8.0877     0.1853     1.0955 C.3     
  26 N26            7.7148     1.5418     0.6867 N.am    
  27 S27            8.6457     2.3613    -0.4107 S.o2    
  28 O28            8.0094     3.6144    -0.6201 O.2     
  29 O29            9.9904     2.2367     0.0314 O.2     
  30 C30            8.5411     1.4887    -1.9379 C.ar    
  31 C31            9.4339     0.4702    -2.2145 C.ar    
  32 C32            9.3519    -0.2143    -3.4127 C.ar    
  33 C33            8.3769     0.1195    -4.3341 C.ar    
  34 C34            7.4836     1.1374    -4.0571 C.ar    
  35 C35            7.5629     1.8190    -2.8571 C.ar    
  36 C36            6.5858     2.9253    -2.5529 C.3     
  37 C37            8.2882    -0.6261    -5.6407 C.3     
  38 C38           10.4967     0.1063    -1.2101 C.3     
  39 C39            8.8942     0.2476     2.3670 C.2     
  40 O40            9.1330     1.3156     2.8792 O.2     
  41 O41            9.3473    -0.8833     2.9305 O.3     
  42 C42           -3.1850     0.8298    -1.8164 C.3     
  43 C43           -3.1631     2.1782    -1.1438 C.ar    
  44 C44           -2.8881     3.3143    -1.8818 C.ar    
  45 C45           -2.8680     4.5512    -1.2649 C.ar    
  46 C46           -3.1233     4.6520     0.0900 C.ar    
  47 C47           -3.3991     3.5160     0.8278 C.ar    
  48 C48           -3.4235     2.2796     0.2100 C.ar    
  49 H49           -0.0398    -2.9369    -3.8725 H       
  50 H50            0.8384    -3.6996    -1.0334 H       
  51 H51            1.6156    -4.1242    -2.5955 H       
  52 H52            2.4065    -1.8765    -2.9436 H       
  53 H53            0.9933    -0.0853    -2.4414 H       
  54 H54            0.6577    -0.6913    -0.7954 H       
  55 H55           -2.2379    -3.6272    -3.0559 H       
  56 H56           -1.0736    -4.9049    -2.6314 H       
  57 H57           -1.1809    -3.1322    -0.4623 H       
  58 H58           -3.3065    -5.3489    -2.3526 H       
  59 H59           -5.7559    -6.2312     1.0503 H       
  60 H60           -4.3399    -4.7320     2.3853 H       
  61 H61           -6.1185    -8.0057    -0.0670 H       
  62 H62           -7.1807    -6.6374    -0.4763 H       
  63 H63           -7.0228    -8.0088    -1.6001 H       
  64 H64            4.4924    -1.6400    -1.9623 H       
  65 H65            3.6656    -0.1937    -1.3354 H       
  66 H66            6.2684    -0.1011    -0.6432 H       
  67 H67            6.2716    -0.2270     2.1783 H       
  68 H68            7.0984    -1.6733     1.5514 H       
  69 H69            8.6831    -0.2801     0.3100 H       
  70 H70            6.9226     1.9600     1.0589 H       
  71 H71           10.0498    -1.0096    -3.6291 H       
  72 H72            6.7221     1.3984    -4.7771 H       
  73 H73            7.0455     3.8879    -2.7770 H       
  74 H74            5.6919     2.7986    -3.1636 H       
  75 H75            6.3133     2.8896    -1.4981 H       
  76 H76            7.6271    -1.4849    -5.5248 H       
  77 H77            7.8921     0.0360    -6.4107 H       
  78 H78            9.2812    -0.9686    -5.9318 H       
  79 H79           10.0642    -0.5293    -0.4375 H       
  80 H80           11.3028    -0.4290    -1.7118 H       
  81 H81           10.8920     1.0142    -0.7544 H       
  82 H82            9.8600    -0.7929     3.7453 H       
  83 H83           -3.4944     0.9468    -2.8550 H       
  84 H84           -3.8882     0.1771    -1.2991 H       
  85 H85           -2.6887     3.2355    -2.9403 H       
  86 H86           -2.6525     5.4387    -1.8413 H       
  87 H87           -3.1068     5.6183     0.5721 H       
  88 H88           -3.5982     3.5947     1.8863 H       
  89 H89           -3.6426     1.3925     0.7857 H       
@<TRIPOS>BOND
   1    1    2 1
   2    1    5 1
   3    1    6 am
   4    2    3 1
   5    2    9 1
   6    2   49 1
   7    3    4 1
   8    3   50 1
   9    3   51 1
  10    4    5 1
  11    4   19 1
  12    4   52 1
  13    5   53 1
  14    5   54 1
  15    6    7 2
  16    6    8 1
  17    8   42 1
  18    9   10 1
  19    9   55 1
  20    9   56 1
  21   10   11 1
  22   10   57 1
  23   11   12 ar
  24   11   16 ar
  25   12   13 ar
  26   12   58 1
  27   13   14 ar
  28   13   17 1
  29   14   15 ar
  30   14   59 1
  31   15   16 ar
  32   15   60 1
  33   17   18 1
  34   18   61 1
  35   18   62 1
  36   18   63 1
  37   19   20 1
  38   20   21 1
  39   20   64 1
  40   20   65 1
  41   21   22 am
  42   21   23 2
  43   22   24 1
  44   22   66 1
  45   24   25 1
  46   24   67 1
  47   24   68 1
  48   25   26 1
  49   25   39 1
  50   25   69 1
  51   26   27 am
  52   26   70 1
  53   27   28 2
  54   27   29 2
  55   27   30 1
  56   30   31 ar
  57   30   35 ar
  58   31   32 ar
  59   31   38 1
  60   32   33 ar
  61   32   71 1
  62   33   34 ar
  63   33   37 1
  64   34   35 ar
  65   34   72 1
  66   35   36 1
  67   36   73 1
  68   36   74 1
  69   36   75 1
  70   37   76 1
  71   37   77 1
  72   37   78 1
  73   38   79 1
  74   38   80 1
  75   38   81 1
  76   39   40 2
  77   39   41 1
  78   41   82 1
  79   42   43 1
  80   42   83 1
  81   42   84 1
  82   43   44 ar
  83   43   48 ar
  84   44   45 ar
  85   44   85 1
  86   45   46 ar
  87   45   86 1
  88   46   47 ar
  89   46   87 1
  90   47   48 ar
  91   47   88 1
  92   48   89 1

#	End of record

