#	Name: ASD03450007
#	Creating user name:	WinNT
#	Creation time:	15. 06. 2019 20:42

#	Modifying user name:	WinNT
#	Modification time:	15. 06. 2019 20:42

#	Program:	/corina/corina34_cracker 3.40 0067  02.08.2006

@<TRIPOS>MOLECULE
ASD03450007
  22   21    0    0    0
SMALL
NO_CHARGES


@<TRIPOS>ATOM
   1 C1            -0.0187     1.5258     0.0104 C.3     
   2 O2             0.6709    -0.4649    -1.1737 O.3     
   3 C3             0.0021    -0.0041     0.0020 C.3     
   4 O4             2.8337    -1.8202    -2.4948 O.3     
   5 C5             0.7457    -1.8880    -1.2798 C.3     
   6 C6             1.4779    -2.2655    -2.5691 C.3     
   7 C7             3.6098    -2.1246    -3.6554 C.3     
   8 C8             5.0361    -1.6043    -3.4660 C.3     
   9 H9             1.0039     1.9031     0.0027 H       
  10 H10           -0.5459     1.8868    -0.8726 H       
  11 H11           -0.5289     1.8773     0.9072 H       
  12 H12            0.5293    -0.3651     0.8851 H       
  13 H13           -1.0205    -0.3814     0.0098 H       
  14 H14            1.2883    -2.2882    -0.4233 H       
  15 H15           -0.2614    -2.3044    -1.2986 H       
  16 H16            0.9858    -1.7917    -3.4184 H       
  17 H17            1.4574    -3.3481    -2.6949 H       
  18 H18            3.6336    -3.2042    -3.8038 H       
  19 H19            3.1620    -1.6478    -4.5273 H       
  20 H20            5.4840    -2.0811    -2.5941 H       
  21 H21            5.6282    -1.8365    -4.3512 H       
  22 H22            5.0124    -0.5247    -3.3176 H       
@<TRIPOS>BOND
   1    1    3 1
   2    1    9 1
   3    1   10 1
   4    1   11 1
   5    2    3 1
   6    2    5 1
   7    3   12 1
   8    3   13 1
   9    4    6 1
  10    4    7 1
  11    5    6 1
  12    5   14 1
  13    5   15 1
  14    6   16 1
  15    6   17 1
  16    7    8 1
  17    7   18 1
  18    7   19 1
  19    8   20 1
  20    8   21 1
  21    8   22 1

#	End of record

