#	Name: ASD07930039
#	Creating user name:	WinNT
#	Creation time:	15. 06. 2019 21:11

#	Modifying user name:	WinNT
#	Modification time:	15. 06. 2019 21:11

#	Program:	/corina/corina34_cracker 3.40 0067  02.08.2006

@<TRIPOS>MOLECULE
ASD07930039
  49   52    0    0    0
SMALL
NO_CHARGES


@<TRIPOS>ATOM
   1 C1            -0.0167     1.3807     0.0096 C.2     
   2 N2             0.0021    -0.0041     0.0020 N.am    
   3 N3             1.2023     2.0320     0.0015 N.pl3   
   4 C4             2.2545     1.5040    -0.8785 C.3     
   5 C5             2.4301    -0.0046    -0.6026 C.3     
   6 C6             1.1260    -0.6674    -0.3006 C.2     
   7 C7             3.6038     2.1081    -0.4355 C.3     
   8 N8             4.2432     1.1401     0.4737 N.3     
   9 C9             3.3350    -0.0129     0.6493 C.3     
  10 C10            4.5423     1.7266     1.6925 C.ar    
  11 N11            5.1230     0.9985     2.6336 N.ar    
  12 C12            5.4244     1.5246     3.8121 C.ar    
  13 C13            5.1254     2.8530     4.0554 C.ar    
  14 C14            4.5132     3.5936     3.0428 C.ar    
  15 N15            4.2449     3.0032     1.8849 N.ar    
  16 F16            5.4186     3.4205     5.2459 F       
  17 C17            6.0848     0.6849     4.8750 C.3     
  18 C18            1.9625     1.7955    -2.3280 C.ar    
  19 C19            0.5390     2.7393    -4.0067 C.ar    
  20 C20            1.4252     2.3327    -4.9894 C.ar    
  21 C21            2.5851     1.6607    -4.6399 C.ar    
  22 N22           -1.1378     2.0425     0.0186 N.2     
  23 C23           -1.2164    -0.7493     0.3279 C.3     
  24 O24            1.0819    -1.8787    -0.3312 O.2     
  25 C25            0.8084     2.4704    -2.6777 C.ar    
  26 C26            2.8536     1.3921    -3.3081 C.ar    
  27 F27            1.1615     2.5956    -6.2880 F       
  28 F28            3.9845     0.7373    -2.9653 F       
  29 Cl29           3.6975     1.1494    -5.8708 Cl      
  30 O30            4.2023     4.8986     3.2374 O.3     
  31 C31            3.5776     5.5856     2.1513 C.3     
  32 F32            2.3700     4.9549     1.8334 F       
  33 F33            3.3280     6.9119     2.5202 F       
  34 F34            4.4231     5.5628     1.0369 F       
  35 H35            1.3581     2.8114     0.5575 H       
  36 H36            2.9183    -0.4925    -1.4462 H       
  37 H37            4.2388     2.2739    -1.3058 H       
  38 H38            3.4343     3.0500     0.0861 H       
  39 H39            2.7352     0.1114     1.5509 H       
  40 H40            3.9056    -0.9403     0.6980 H       
  41 H41            7.1677     0.7556     4.7731 H       
  42 H42            5.7881     1.0461     5.8597 H       
  43 H43            5.7762    -0.3543     4.7610 H       
  44 H44           -0.3652     3.2635    -4.2787 H       
  45 H45           -1.9825     1.5657     0.0200 H       
  46 H46           -2.0230    -0.0493     0.5458 H       
  47 H47           -1.4972    -1.3749    -0.5194 H       
  48 H48           -1.0355    -1.3781     1.1996 H       
  49 H49            0.1161     2.7879    -1.9120 H       
@<TRIPOS>BOND
   1    1    2 1
   2    1    3 1
   3    1   22 2
   4    2   23 1
   5    2    6 am
   6    3    4 1
   7    3   35 1
   8    4    7 1
   9    4   18 1
  10    4    5 1
  11    5    6 1
  12    5    9 1
  13    5   36 1
  14    6   24 2
  15    7    8 1
  16    7   37 1
  17    7   38 1
  18    8    9 1
  19    8   10 1
  20    9   39 1
  21    9   40 1
  22   10   11 ar
  23   10   15 ar
  24   11   12 ar
  25   12   13 ar
  26   12   17 1
  27   13   14 ar
  28   13   16 1
  29   14   15 ar
  30   14   30 1
  31   17   41 1
  32   17   42 1
  33   17   43 1
  34   18   25 ar
  35   18   26 ar
  36   19   20 ar
  37   19   25 ar
  38   19   44 1
  39   20   21 ar
  40   20   27 1
  41   21   26 ar
  42   21   29 1
  43   22   45 1
  44   23   46 1
  45   23   47 1
  46   23   48 1
  47   25   49 1
  48   26   28 1
  49   30   31 1
  50   31   32 1
  51   31   33 1
  52   31   34 1

#	End of record

