#	Name: ASD01140527
#	Creating user name:	WinNT
#	Creation time:	15. 06. 2019 19:01

#	Modifying user name:	WinNT
#	Modification time:	15. 06. 2019 19:01

#	Program:	/corina/corina34_cracker 3.40 0067  02.08.2006

@<TRIPOS>MOLECULE
ASD01140527
  39   42    0    0    0
SMALL
NO_CHARGES


@<TRIPOS>ATOM
   1 C1            -0.0166     1.3739     0.0096 C.ar    
   2 C2             0.0021    -0.0041     0.0020 C.ar    
   3 C3             1.2144    -0.6864    -0.0127 C.ar    
   4 C4             2.4117     0.0082    -0.0204 C.ar    
   5 C5             2.4096     1.3977    -0.0130 C.ar    
   6 C6             1.1821     2.0817     0.0020 C.ar    
   7 O7             1.2232    -2.0449    -0.0192 O.3     
   8 C8            -0.0457    -2.7019    -0.0102 C.3     
   9 N9             3.6037     2.0978    -0.0206 N.pl3   
  10 C10            3.6649     3.4392    -0.0141 C.2     
  11 C11            2.5317     4.2133     0.0008 C.2     
  12 C12            1.2046     3.5565     0.0096 C.2     
  13 C13            2.2478     5.6452     0.0119 C.2     
  14 N14            0.9024     5.7620     0.0258 N.am    
  15 N15            0.3056     4.4987     0.0240 N.2     
  16 C16            0.2045     6.9769     0.0400 C.ar    
  17 O17            3.0623     6.5539     0.0098 O.2     
  18 C18           -1.1842     6.9803     0.0537 C.ar    
  19 C19           -1.8712     8.1779     0.0676 C.ar    
  20 C20           -1.1745     9.3777     0.0676 C.ar    
  21 C21            0.2128     9.3751     0.0539 C.ar    
  22 C22            0.9012     8.1783     0.0462 C.ar    
  23 O23           -1.8517    10.5566     0.0804 O.3     
  24 C24           -1.0708    11.7533     0.0795 C.3     
  25 H25           -0.9581     1.9030     0.0169 H       
  26 H26           -0.9265    -0.5555     0.0079 H       
  27 H27            3.3479    -0.5301    -0.0318 H       
  28 H28           -0.6130    -2.4085    -0.8935 H       
  29 H29            0.1041    -3.7816    -0.0167 H       
  30 H30           -0.5961    -2.4169     0.8864 H       
  31 H31            4.4341     1.5965    -0.0308 H       
  32 H32            4.6312     3.9215    -0.0204 H       
  33 H33           -1.7267     6.0464     0.0530 H       
  34 H34           -2.9511     8.1807     0.0783 H       
  35 H35            0.7544    10.3095     0.0535 H       
  36 H36            1.9812     8.1765     0.0359 H       
  37 H37           -0.4335    11.7720     0.9636 H       
  38 H38           -0.4504    11.7817    -0.8162 H       
  39 H39           -1.7328    12.6192     0.0905 H       
@<TRIPOS>BOND
   1    1    2 ar
   2    1    6 ar
   3    1   25 1
   4    2    3 ar
   5    2   26 1
   6    3    4 ar
   7    3    7 1
   8    4    5 ar
   9    4   27 1
  10    5    6 ar
  11    5    9 1
  12    6   12 1
  13    7    8 1
  14    8   28 1
  15    8   29 1
  16    8   30 1
  17    9   10 1
  18    9   31 1
  19   10   11 2
  20   10   32 1
  21   11   12 1
  22   11   13 1
  23   12   15 2
  24   13   14 am
  25   13   17 2
  26   14   15 1
  27   14   16 1
  28   16   18 ar
  29   16   22 ar
  30   18   19 ar
  31   18   33 1
  32   19   20 ar
  33   19   34 1
  34   20   21 ar
  35   20   23 1
  36   21   22 ar
  37   21   35 1
  38   22   36 1
  39   23   24 1
  40   24   37 1
  41   24   38 1
  42   24   39 1

#	End of record

