#	Name: ASD06340089
#	Creating user name:	WinNT
#	Creation time:	15. 06. 2019 21:06

#	Modifying user name:	WinNT
#	Modification time:	15. 06. 2019 21:06

#	Program:	/corina/corina34_cracker 3.40 0067  02.08.2006

@<TRIPOS>MOLECULE
ASD06340089
  34   35    0    0    0
SMALL
NO_CHARGES


@<TRIPOS>ATOM
   1 S1            -0.0210     1.6939     0.0114 S.3     
   2 N2             0.0021    -0.0041     0.0020 N.am    
   3 C3             1.2962    -0.3594    -0.0122 C.2     
   4 N4             2.1856     0.6226    -0.0155 N.am    
   5 C5             1.6912     1.8721    -0.0040 C.2     
   6 O6             1.6365    -1.5277    -0.0214 O.2     
   7 O7             2.3224     2.9128    -0.0052 O.2     
   8 C8             3.6269     0.3610    -0.0302 C.3     
   9 C9             4.1080     0.2785    -1.4559 C.ar    
  10 C10            4.5424     1.4190    -2.1053 C.ar    
  11 C11            4.9842     1.3446    -3.4127 C.ar    
  12 C12            4.9917     0.1271    -4.0721 C.ar    
  13 C13            4.5563    -1.0145    -3.4206 C.ar    
  14 C14            4.1199    -0.9385    -2.1116 C.ar    
  15 F15            5.4229     0.0532    -5.3503 F       
  16 C16           -1.1568    -0.9002     0.0087 C.3     
  17 C17           -1.4972    -1.3045    -1.4271 C.3     
  18 C18           -2.7076    -2.2404    -1.4202 C.3     
  19 C19           -3.0480    -2.6446    -2.8560 C.3     
  20 H20            4.1482     1.1691     0.4830 H       
  21 H21            3.8302    -0.5822     0.4770 H       
  22 H22            4.5362     2.3686    -1.5909 H       
  23 H23            5.3232     2.2357    -3.9199 H       
  24 H24            4.5617    -1.9647    -3.9340 H       
  25 H25            3.7842    -1.8295    -1.6019 H       
  26 H26           -0.9237    -1.7914     0.5914 H       
  27 H27           -2.0097    -0.3879     0.4538 H       
  28 H28           -1.7304    -0.4133    -2.0099 H       
  29 H29           -0.6443    -1.8168    -1.8723 H       
  30 H30           -2.4744    -3.1315    -0.8374 H       
  31 H31           -3.5605    -1.7281    -0.9750 H       
  32 H32           -3.2811    -1.7535    -3.4388 H       
  33 H33           -2.1950    -3.1569    -3.3011 H       
  34 H34           -3.9102    -3.3114    -2.8510 H       
@<TRIPOS>BOND
   1    1    2 1
   2    1    5 1
   3    2    3 am
   4    2   16 1
   5    3    4 am
   6    3    6 2
   7    4    5 am
   8    4    8 1
   9    5    7 2
  10    8    9 1
  11    8   20 1
  12    8   21 1
  13    9   10 ar
  14    9   14 ar
  15   10   11 ar
  16   10   22 1
  17   11   12 ar
  18   11   23 1
  19   12   13 ar
  20   12   15 1
  21   13   14 ar
  22   13   24 1
  23   14   25 1
  24   16   17 1
  25   16   26 1
  26   16   27 1
  27   17   18 1
  28   17   28 1
  29   17   29 1
  30   18   19 1
  31   18   30 1
  32   18   31 1
  33   19   32 1
  34   19   33 1
  35   19   34 1

#	End of record

