#	Name: ASD02508432
#	Creating user name:	WinNT
#	Creation time:	15. 06. 2019 20:24

#	Modifying user name:	WinNT
#	Modification time:	15. 06. 2019 20:24

#	Program:	/corina/corina34_cracker 3.40 0067  02.08.2006

@<TRIPOS>MOLECULE
ASD02508432
  36   38    0    0    0
SMALL
NO_CHARGES


@<TRIPOS>ATOM
   1 C1            -0.5317     1.5394     0.3987 C.2     
   2 C2            -0.2818     0.1842     0.1545 C.2     
   3 C3             1.0551     0.0231     0.0244 C.2     
   4 N4             1.6333     1.2421     0.1821 N.pl3   
   5 N5             0.6127     2.1731     0.4155 N.2     
   6 C6             3.0029     1.5184     0.1228 C.ar    
   7 C7             3.4338     2.7959    -0.2175 C.ar    
   8 N8             3.8765     0.5634     0.3962 N.ar    
   9 C9             5.1767     0.7810     0.3522 C.ar    
  10 C10            5.6761     2.0243     0.0167 C.ar    
  11 C11            4.7933     3.0556    -0.2724 C.ar    
  12 S12           -1.4950    -1.0883     0.0376 S.o2    
  13 O13           -0.8435    -2.2982     0.3992 O.2     
  14 O14           -2.6531    -0.6008     0.7011 O.2     
  15 N15           -1.8992    -1.2347    -1.5617 N.am    
  16 C16           -2.4746    -0.1560    -2.2385 C.ar    
  17 C17           -2.0078     0.2054    -3.4958 C.ar    
  18 C18           -2.5783     1.2719    -4.1625 C.ar    
  19 C19           -3.6140     1.9803    -3.5790 C.ar    
  20 C20           -4.0807     1.6228    -2.3263 C.ar    
  21 C21           -3.5181     0.5532    -1.6577 C.ar    
  22 Cl22          -4.3287     3.3204    -4.4198 Cl      
  23 Cl23           2.2839     4.0480    -0.5692 Cl      
  24 C24            7.1638     2.2603    -0.0290 C.3     
  25 F25            7.8338     1.0784     0.3047 F       
  26 F26            7.5335     2.6578    -1.3183 F       
  27 F27            7.5051     3.2636     0.8843 F       
  28 H28           -1.5039     1.9866     0.5440 H       
  29 H29            1.5696    -0.9065    -0.1691 H       
  30 H30            5.8597    -0.0234     0.5819 H       
  31 H31            5.1581     4.0369    -0.5374 H       
  32 H32           -1.7366    -2.0693    -2.0286 H       
  33 H33           -1.1993    -0.3469    -3.9515 H       
  34 H34           -2.2156     1.5535    -5.1400 H       
  35 H35           -4.8886     2.1778    -1.8729 H       
  36 H36           -3.8829     0.2744    -0.6802 H       
@<TRIPOS>BOND
   1    1    2 1
   2    1    5 2
   3    1   28 1
   4    2    3 2
   5    2   12 1
   6    3    4 1
   7    3   29 1
   8    4    5 1
   9    4    6 1
  10    6    7 ar
  11    6    8 ar
  12    7   23 1
  13    7   11 ar
  14    8    9 ar
  15    9   10 ar
  16    9   30 1
  17   10   11 ar
  18   10   24 1
  19   11   31 1
  20   12   13 2
  21   12   14 2
  22   12   15 am
  23   15   16 1
  24   15   32 1
  25   16   17 ar
  26   16   21 ar
  27   17   18 ar
  28   17   33 1
  29   18   19 ar
  30   18   34 1
  31   19   20 ar
  32   19   22 1
  33   20   21 ar
  34   20   35 1
  35   21   36 1
  36   24   25 1
  37   24   26 1
  38   24   27 1

#	End of record

