#	Name: ASD03540571
#	Creating user name:	WinNT
#	Creation time:	15. 06. 2019 20:43

#	Modifying user name:	WinNT
#	Modification time:	15. 06. 2019 20:43

#	Program:	/corina/corina34_cracker 3.40 0067  02.08.2006

@<TRIPOS>MOLECULE
ASD03540571
  78   81    0    0    0
SMALL
NO_CHARGES


@<TRIPOS>ATOM
   1 C1             0.1231     1.4709     0.1469 C.2     
   2 C2             0.1071    -0.0057     0.1038 C.ar    
   3 C3            -0.0714    -0.7396     1.2782 C.ar    
   4 C4            -0.0858    -2.1182     1.2307 C.ar    
   5 C5             0.0765    -2.7737     0.0230 C.ar    
   6 C6             0.2542    -2.0526    -1.1445 C.ar    
   7 C7             0.2645    -0.6735    -1.1122 C.ar    
   8 O8            -0.0191     2.0492     1.2056 O.2     
   9 O9             0.3011     2.1759    -0.9871 O.3     
  10 C10            0.0601    -4.2800    -0.0210 C.3     
  11 N11           -1.3038    -6.1463     2.8475 N.am    
  12 C12           -0.4835    -5.6384     1.9121 C.2     
  13 N13           -0.9005    -4.7868     0.9622 N.am    
  14 C14           -2.1895    -4.3880     0.8963 C.2     
  15 C15           -3.1344    -4.9140     1.8986 C.ar    
  16 C16           -4.4753    -4.5514     1.8979 C.ar    
  17 C17           -5.3245    -5.0790     2.8699 C.ar    
  18 C18           -4.8246    -5.9640     3.8332 C.ar    
  19 C19           -3.5056    -6.3204     3.8336 C.ar    
  20 C20           -2.6447    -5.8048     2.8730 C.ar    
  21 O21           -2.5605    -3.6157     0.0337 O.2     
  22 O22            0.6874    -5.9648     1.9267 O.2     
  23 C23           -0.3488    -4.7449    -1.4201 C.3     
  24 C24           -6.7524    -4.7037     2.8838 C.2     
  25 N25           -7.5739    -5.2132     3.8230 N.am    
  26 O26           -7.1871    -3.9351     2.0481 O.2     
  27 C27           -8.9907    -4.8408     3.8368 C.3     
  28 C28           -9.6833    -5.5418     4.9770 C.ar    
  29 C29           -9.7504    -4.9385     6.2193 C.ar    
  30 C30          -10.3847    -5.5790     7.2661 C.ar    
  31 C31          -10.9545    -6.8286     7.0701 C.ar    
  32 C32          -10.8858    -7.4318     5.8227 C.ar    
  33 C33          -10.2553    -6.7847     4.7776 C.ar    
  34 O34          -11.5787    -7.4609     8.0985 O.3     
  35 C35          -12.1425    -8.7450     7.8240 C.3     
  36 C36            0.3057     3.6231    -0.8696 C.3     
  37 C37            1.7342     4.1098    -0.6180 C.3     
  38 C38            2.2179     3.5921     0.7381 C.3     
  39 C39           -0.2229     4.2416    -2.1654 C.3     
  40 N40           -1.6330     3.8709    -2.3453 N.3     
  41 C41           -2.4731     4.4739    -1.3020 C.3     
  42 C42           -2.1084     4.2430    -3.6845 C.3     
  43 H43           -0.1975    -0.2292     2.2216 H       
  44 H44           -0.2238    -2.6871     2.1382 H       
  45 H45            0.3810    -2.5705    -2.0836 H       
  46 H46            0.3985    -0.1118    -2.0248 H       
  47 H47            1.0542    -4.6611     0.2125 H       
  48 H48           -0.9528    -6.7618     3.5101 H       
  49 H49           -4.8558    -3.8683     1.1530 H       
  50 H50           -5.4880    -6.3685     4.5833 H       
  51 H51           -3.1317    -7.0035     4.5819 H       
  52 H52           -1.3430    -4.3638    -1.6535 H       
  53 H53            0.3659    -4.3679    -2.1516 H       
  54 H54           -0.3607    -5.8344    -1.4519 H       
  55 H55           -7.2271    -5.8264     4.4897 H       
  56 H56           -9.0817    -3.7621     3.9645 H       
  57 H57           -9.4530    -5.1354     2.8947 H       
  58 H58           -9.3064    -3.9658     6.3714 H       
  59 H59          -10.4366    -5.1074     8.2363 H       
  60 H60          -11.3285    -8.4046     5.6676 H       
  61 H61          -10.2056    -7.2518     3.8051 H       
  62 H62          -12.8927    -8.6521     7.0388 H       
  63 H63          -11.3558    -9.4247     7.4965 H       
  64 H64          -12.6089    -9.1376     8.7276 H       
  65 H65           -0.3319     3.9222    -0.0377 H       
  66 H66            2.3895     3.7355    -1.4045 H       
  67 H67            1.7521     5.1997    -0.6182 H       
  68 H68            1.5627     3.9665     1.5247 H       
  69 H69            2.2000     2.5023     0.7384 H       
  70 H70            3.2356     3.9388     0.9174 H       
  71 H71           -0.1367     5.3269    -2.1115 H       
  72 H72            0.3604     3.8722    -3.0088 H       
  73 H73           -2.3884     5.5595    -1.3496 H       
  74 H74           -3.5119     4.1832    -1.4589 H       
  75 H75           -2.1425     4.1263    -0.3232 H       
  76 H76           -1.5126     3.7275    -4.4378 H       
  77 H77           -3.1549     3.9573    -3.7909 H       
  78 H78           -2.0105     5.3203    -3.8184 H       
@<TRIPOS>BOND
   1    1    2 1
   2    1    8 2
   3    1    9 1
   4    2    3 ar
   5    2    7 ar
   6    3    4 ar
   7    3   43 1
   8    4    5 ar
   9    4   44 1
  10    5    6 ar
  11    5   10 1
  12    6    7 ar
  13    6   45 1
  14    7   46 1
  15    9   36 1
  16   10   13 1
  17   10   23 1
  18   10   47 1
  19   11   12 am
  20   11   20 1
  21   11   48 1
  22   12   13 am
  23   12   22 2
  24   13   14 am
  25   14   15 1
  26   14   21 2
  27   15   16 ar
  28   15   20 ar
  29   16   17 ar
  30   16   49 1
  31   17   18 ar
  32   17   24 1
  33   18   19 ar
  34   18   50 1
  35   19   20 ar
  36   19   51 1
  37   23   52 1
  38   23   53 1
  39   23   54 1
  40   24   25 am
  41   24   26 2
  42   25   27 1
  43   25   55 1
  44   27   28 1
  45   27   56 1
  46   27   57 1
  47   28   29 ar
  48   28   33 ar
  49   29   30 ar
  50   29   58 1
  51   30   31 ar
  52   30   59 1
  53   31   32 ar
  54   31   34 1
  55   32   33 ar
  56   32   60 1
  57   33   61 1
  58   34   35 1
  59   35   62 1
  60   35   63 1
  61   35   64 1
  62   36   37 1
  63   36   39 1
  64   36   65 1
  65   37   38 1
  66   37   66 1
  67   37   67 1
  68   38   68 1
  69   38   69 1
  70   38   70 1
  71   39   40 1
  72   39   71 1
  73   39   72 1
  74   40   41 1
  75   40   42 1
  76   41   73 1
  77   41   74 1
  78   41   75 1
  79   42   76 1
  80   42   77 1
  81   42   78 1

#	End of record

