#	Name: ASD01180177
#	Creating user name:	WinNT
#	Creation time:	15. 06. 2019 19:06

#	Modifying user name:	WinNT
#	Modification time:	15. 06. 2019 19:06

#	Program:	/corina/corina34_cracker 3.40 0067  02.08.2006

@<TRIPOS>MOLECULE
ASD01180177
  57   59    0    0    0
SMALL
NO_CHARGES


@<TRIPOS>ATOM
   1 C1             0.5397     1.4323     0.5238 C.ar    
   2 C2             0.4619     0.0574     0.4319 C.ar    
   3 C3             1.6283    -0.6992     0.3394 C.ar    
   4 C4             2.8676    -0.0624     0.3403 C.ar    
   5 C5             2.9338     1.3131     0.4327 C.ar    
   6 C6             1.7727     2.0593     0.5244 C.ar    
   7 C7             1.8513     3.5609     0.6251 C.3     
   8 F8             1.8300     4.1161    -0.6589 F       
   9 F9             0.7584     4.0370     1.3572 F       
  10 F10            3.0385     3.9235     1.2703 F       
  11 C11            1.5509    -2.1778     0.2407 C.ar    
  12 C12            2.7173    -2.9344     0.1482 C.ar    
  13 C13            2.6394    -4.3094     0.0566 C.ar    
  14 C14            1.4065    -4.9363     0.0561 C.ar    
  15 C15            0.2454    -4.1901     0.1477 C.ar    
  16 C16            0.3118    -2.8150     0.2460 C.ar    
  17 C17            1.3279    -6.4379    -0.0451 C.3     
  18 C18            1.1005    -7.0316     1.3465 C.3     
  19 N19            0.2156    -6.8106    -0.9227 N.pl3   
  20 C20            1.1524    -8.5585     1.2642 C.3     
  21 C21            0.3865    -6.8067    -2.2961 C.ar    
  22 N22           -0.6464    -7.0493    -3.0942 N.ar    
  23 C23           -0.4831    -7.0455    -4.4046 C.ar    
  24 C24            0.7737    -6.7869    -4.9494 C.ar    
  25 N25            1.8102    -6.5434    -4.1477 N.ar    
  26 C26            1.6463    -6.5415    -2.8434 C.ar    
  27 C27            0.9569    -6.7831    -6.4162 C.2     
  28 N28            2.1721    -6.5330    -6.9429 N.am    
  29 O29            0.0116    -7.0055    -7.1474 O.2     
  30 C30            2.3536    -6.5293    -8.3966 C.3     
  31 C31            3.8153    -6.2210    -8.7272 C.3     
  32 C32            4.0021    -6.2172   -10.2226 C.2     
  33 O33            5.2123    -5.9681   -10.7471 O.3     
  34 O34            3.0626    -6.4383   -10.9493 O.2     
  35 H35           -0.3638     2.0201     0.5911 H       
  36 H36           -0.5013    -0.4311     0.4319 H       
  37 H37            3.7748    -0.6441     0.2692 H       
  38 H38            3.8938     1.8077     0.4335 H       
  39 H39            3.6804    -2.4458     0.1478 H       
  40 H40            3.5429    -4.8968    -0.0151 H       
  41 H41           -0.7147    -4.6848     0.1469 H       
  42 H42           -0.5954    -2.2333     0.3174 H       
  43 H43            2.2605    -6.8236    -0.4568 H       
  44 H44            1.8776    -6.6777     2.0240 H       
  45 H45            0.1245    -6.7208     1.7191 H       
  46 H46           -0.6406    -7.0600    -0.5412 H       
  47 H47            0.3199    -8.9183     0.6596 H       
  48 H48            2.0929    -8.8660     0.8071 H       
  49 H49            1.0814    -8.9791     2.2673 H       
  50 H50           -1.3231    -7.2432    -5.0541 H       
  51 H51            2.4863    -6.3439    -2.1940 H       
  52 H52            2.9264    -6.3555    -6.3595 H       
  53 H53            2.0887    -7.5073    -8.7984 H       
  54 H54            1.7123    -5.7681    -8.8409 H       
  55 H55            4.0803    -5.2430    -8.3254 H       
  56 H56            4.4567    -6.9822    -8.2829 H       
  57 H57            5.2829    -5.9764   -11.7115 H       
@<TRIPOS>BOND
   1    1    2 ar
   2    1    6 ar
   3    1   35 1
   4    2    3 ar
   5    2   36 1
   6    3    4 ar
   7    3   11 1
   8    4    5 ar
   9    4   37 1
  10    5    6 ar
  11    5   38 1
  12    6    7 1
  13    7    8 1
  14    7    9 1
  15    7   10 1
  16   11   12 ar
  17   11   16 ar
  18   12   13 ar
  19   12   39 1
  20   13   14 ar
  21   13   40 1
  22   14   15 ar
  23   14   17 1
  24   15   16 ar
  25   15   41 1
  26   16   42 1
  27   17   18 1
  28   17   19 1
  29   17   43 1
  30   18   20 1
  31   18   44 1
  32   18   45 1
  33   19   21 1
  34   19   46 1
  35   20   47 1
  36   20   48 1
  37   20   49 1
  38   21   22 ar
  39   21   26 ar
  40   22   23 ar
  41   23   24 ar
  42   23   50 1
  43   24   25 ar
  44   24   27 1
  45   25   26 ar
  46   26   51 1
  47   27   28 am
  48   27   29 2
  49   28   30 1
  50   28   52 1
  51   30   31 1
  52   30   53 1
  53   30   54 1
  54   31   32 1
  55   31   55 1
  56   31   56 1
  57   32   33 1
  58   32   34 2
  59   33   57 1

#	End of record

