#	Name: ASD03080044
#	Creating user name:	WinNT
#	Creation time:	15. 06. 2019 20:26

#	Modifying user name:	WinNT
#	Modification time:	15. 06. 2019 20:26

#	Program:	/corina/corina34_cracker 3.40 0067  02.08.2006

@<TRIPOS>MOLECULE
ASD03080044
  30   32    0    0    0
SMALL
NO_CHARGES


@<TRIPOS>ATOM
   1 C1            -0.0180     1.4744     0.0101 C.2     
   2 C2             0.0021    -0.0041     0.0020 C.ar    
   3 C3             1.2172    -0.6859    -0.0132 C.ar    
   4 C4             1.2272    -2.0787    -0.0203 C.ar    
   5 C5             0.0207    -2.7828    -0.0121 C.ar    
   6 C6            -1.1798    -2.1011     0.0025 C.ar    
   7 C7            -1.1967    -0.7203     0.0155 C.ar    
   8 O8             1.0263     2.0964     0.0035 O.2     
   9 N9            -1.1942     2.1323     0.0193 N.am    
  10 O10            3.7399    -2.2694    -0.0463 O.3     
  11 N11            4.5776    -3.1462    -0.0589 N.2     
  12 C12            4.0046    -4.3224    -0.0592 C.2     
  13 N13            2.6704    -4.1205    -0.0452 N.2     
  14 C14            2.5119    -2.8104    -0.0370 C.2     
  15 C15            3.9615    -6.8212    -0.0726 C.ar    
  16 C16            4.6947    -5.6366    -0.0734 C.ar    
  17 C17            6.0900    -5.7055    -0.0881 C.ar    
  18 C18            6.6858    -6.9553    -0.1014 C.ar    
  19 C19            5.8881    -8.0847    -0.0997 C.ar    
  20 N20            4.5725    -7.9880    -0.0856 N.ar    
  21 H21            2.1472    -0.1368    -0.0199 H       
  22 H22            0.0270    -3.8627    -0.0176 H       
  23 H23           -2.1097    -2.6502     0.0081 H       
  24 H24           -2.1392    -0.1932     0.0314 H       
  25 H25           -2.0276     1.6360     0.0206 H       
  26 H26           -1.2074     3.1022     0.0246 H       
  27 H27            2.8823    -6.7824    -0.0568 H       
  28 H28            6.6888    -4.8067    -0.0894 H       
  29 H29            7.7618    -7.0470    -0.1133 H       
  30 H30            6.3492    -9.0613    -0.1103 H       
@<TRIPOS>BOND
   1    1    2 1
   2    1    8 2
   3    1    9 am
   4    2    3 ar
   5    2    7 ar
   6    3    4 ar
   7    3   21 1
   8    4    5 ar
   9    4   14 1
  10    5    6 ar
  11    5   22 1
  12    6    7 ar
  13    6   23 1
  14    7   24 1
  15    9   25 1
  16    9   26 1
  17   10   11 1
  18   10   14 1
  19   11   12 2
  20   12   13 1
  21   12   16 1
  22   13   14 2
  23   15   16 ar
  24   15   20 ar
  25   15   27 1
  26   16   17 ar
  27   17   18 ar
  28   17   28 1
  29   18   19 ar
  30   18   29 1
  31   19   20 ar
  32   19   30 1

#	End of record

