#	Name: ASD01208613
#	Creating user name:	WinNT
#	Creation time:	15. 06. 2019 19:10

#	Modifying user name:	WinNT
#	Modification time:	15. 06. 2019 19:10

#	Program:	/corina/corina34_cracker 3.40 0067  02.08.2006

@<TRIPOS>MOLECULE
ASD01208613
  80   82    0    0    0
SMALL
NO_CHARGES


@<TRIPOS>ATOM
   1 C1            -3.0646     7.4294     1.7703 C.3     
   2 C2            -3.8703     6.1454     1.5625 C.3     
   3 O3            -1.6242     8.6843     4.8081 O.3     
   4 C4            -1.6747     7.3399     4.9258 C.2     
   5 N5            -2.4923     6.7721     4.0879 N.2     
   6 C6            -3.1024     7.8216     3.2487 C.3     
   7 C7            -2.1782     9.0328     3.5229 C.3     
   8 N8            -0.0009     7.1273     6.8174 N.pl3   
   9 C9            -0.8799     6.5886     5.9078 C.2     
  10 C10           -0.8855     5.2211     6.0777 C.2     
  11 C11            0.0063     4.9233     7.1093 C.2     
  12 C12            0.5418     6.1114     7.5527 C.2     
  13 C13            1.5341     6.2623     8.6378 C.ar    
  14 C14            1.9980     7.5304     8.9904 C.ar    
  15 C15            2.9273     7.6673    10.0079 C.ar    
  16 C16            3.3976     6.5458    10.6763 C.ar    
  17 C17            2.9391     5.2834    10.3289 C.ar    
  18 C18            2.0053     5.1379     9.3162 C.ar    
  19 O19            3.4029     4.1883    10.9867 O.3     
  20 Si20           2.4235     3.6687    12.1829 Si      
  21 C21            1.9115     1.3568    13.6338 C.3     
  22 C22            3.0068     2.0047    12.7844 C.3     
  23 C23            3.3180     1.1088    11.5838 C.3     
  24 C24            3.9102     5.3051    13.8634 C.3     
  25 C25            2.4637     4.8872    13.5917 C.3     
  26 C26            1.6371     6.1207    13.2227 C.3     
  27 C27            0.5893     2.3264    10.5875 C.3     
  28 C28            0.6816     3.5208    11.5392 C.3     
  29 C29           -0.2795     3.3141    12.7116 C.3     
  30 O30            3.3797     8.9017    10.3521 O.3     
  31 C31            3.9690    11.1358     9.6436 C.3     
  32 C32            2.9501     9.9989     9.5436 C.3     
  33 C33            1.5870    10.4910    10.0343 C.3     
  34 O34            3.9923    11.6383    10.9812 O.3     
  35 C35            4.9164    12.7093    11.1837 C.3     
  36 O36           -1.7102     7.2120     1.3696 O.3     
  37 H37           -3.4967     8.2306     1.1707 H       
  38 H38           -4.9033     6.3113     1.8681 H       
  39 H39           -3.8433     5.8660     0.5092 H       
  40 H40           -3.4381     5.3443     2.1621 H       
  41 H41           -4.1232     8.0309     3.5683 H       
  42 H42           -2.7523     9.9575     3.5820 H       
  43 H43           -1.3963     9.1073     2.7671 H       
  44 H44            0.2031     8.0703     6.9177 H       
  45 H45           -1.4729     4.5099     5.5159 H       
  46 H46            0.2348     3.9391     7.4906 H       
  47 H47            1.6330     8.4037     8.4703 H       
  48 H48            4.1229     6.6560    11.4689 H       
  49 H49            1.6457     4.1551     9.0492 H       
  50 H50            1.0909     1.0412    12.9894 H       
  51 H51            2.3196     0.4899    14.1533 H       
  52 H52            1.5435     2.0779    14.3637 H       
  53 H53            3.9066     2.1309    13.3865 H       
  54 H54            2.4002     0.9124    11.0295 H       
  55 H55            4.0352     1.6093    10.9333 H       
  56 H56            3.7401     0.1666    11.9332 H       
  57 H57            4.3284     5.7687    12.9700 H       
  58 H58            3.9336     6.0180    14.6876 H       
  59 H59            4.4990     4.4263    14.1263 H       
  60 H60            2.0454     4.4236    14.4851 H       
  61 H61            0.6470     5.8086    12.8906 H       
  62 H62            1.5407     6.7676    14.0947 H       
  63 H63            2.1349     6.6648    12.4199 H       
  64 H64            0.5955     1.4012    11.1638 H       
  65 H65           -0.3348     2.3903    10.0129 H       
  66 H66            1.4413     2.3368     9.9077 H       
  67 H67            0.4128     4.4323    11.0055 H       
  68 H68           -0.0840     4.0639    13.4782 H       
  69 H69           -1.3069     3.4123    12.3609 H       
  70 H70           -0.1324     2.3188    13.1310 H       
  71 H71            4.9580    10.7618     9.3787 H       
  72 H72            3.6882    11.9366     8.9595 H       
  73 H73            2.8676     9.6752     8.5060 H       
  74 H74            0.8611     9.6810     9.9630 H       
  75 H75            1.6695    10.8147    11.0718 H       
  76 H76            1.2593    11.3278     9.4175 H       
  77 H77            5.9250    12.3679    10.9508 H       
  78 H78            4.6552    13.5427    10.5316 H       
  79 H79            4.8738    13.0342    12.2233 H       
  80 H80           -1.6103     6.9595     0.4415 H       
@<TRIPOS>BOND
   1    1    2 1
   2    1   36 1
   3    1    6 1
   4    1   37 1
   5    2   38 1
   6    2   39 1
   7    2   40 1
   8    3    4 1
   9    3    7 1
  10    4    5 2
  11    4    9 1
  12    5    6 1
  13    6    7 1
  14    6   41 1
  15    7   42 1
  16    7   43 1
  17    8    9 1
  18    8   12 1
  19    8   44 1
  20    9   10 2
  21   10   11 1
  22   10   45 1
  23   11   12 2
  24   11   46 1
  25   12   13 1
  26   13   14 ar
  27   13   18 ar
  28   14   15 ar
  29   14   47 1
  30   15   16 ar
  31   15   30 1
  32   16   17 ar
  33   16   48 1
  34   17   18 ar
  35   17   19 1
  36   18   49 1
  37   19   20 1
  38   20   22 1
  39   20   25 1
  40   20   28 1
  41   21   22 1
  42   21   50 1
  43   21   51 1
  44   21   52 1
  45   22   23 1
  46   22   53 1
  47   23   54 1
  48   23   55 1
  49   23   56 1
  50   24   25 1
  51   24   57 1
  52   24   58 1
  53   24   59 1
  54   25   26 1
  55   25   60 1
  56   26   61 1
  57   26   62 1
  58   26   63 1
  59   27   28 1
  60   27   64 1
  61   27   65 1
  62   27   66 1
  63   28   29 1
  64   28   67 1
  65   29   68 1
  66   29   69 1
  67   29   70 1
  68   30   32 1
  69   31   32 1
  70   31   34 1
  71   31   71 1
  72   31   72 1
  73   32   33 1
  74   32   73 1
  75   33   74 1
  76   33   75 1
  77   33   76 1
  78   34   35 1
  79   35   77 1
  80   35   78 1
  81   35   79 1
  82   36   80 1

#	End of record

