#	Name: ASD03730788
#	Creating user name:	WinNT
#	Creation time:	15. 06. 2019 20:44

#	Modifying user name:	WinNT
#	Modification time:	15. 06. 2019 20:44

#	Program:	/corina/corina34_cracker 3.40 0067  02.08.2006

@<TRIPOS>MOLECULE
ASD03730788
  59   65    0    0    0
SMALL
NO_CHARGES


@<TRIPOS>ATOM
   1 C1            -0.0182     1.4735     0.0147 C.2     
   2 C2             0.0015    -0.0045     0.0117 C.ar    
   3 C3             1.2177    -0.6894     0.0011 C.ar    
   4 C4             1.2290    -2.0689    -0.0012 C.ar    
   5 C5             0.0382    -2.7735     0.0069 C.ar    
   6 C6            -1.1708    -2.1008     0.0169 C.ar    
   7 C7            -1.1962    -0.7215     0.0251 C.ar    
   8 O8             1.0264     2.0953     0.0081 O.2     
   9 N9            -1.1942     2.1319     0.0193 N.am    
  10 C10            0.0582    -4.2803     0.0043 C.3     
  11 O11           -2.0700    -1.5092     6.2878 O.3     
  12 C12           -2.3002    -1.5888     7.7068 C.3     
  13 O13           -2.7991    -2.9258     7.8981 O.3     
  14 C14           -2.2718    -3.6627     6.8765 C.ar    
  15 C15           -1.8246    -2.7911     5.8862 C.ar    
  16 C16           -2.1341    -5.0290     6.7092 C.ar    
  17 C17           -1.5518    -5.5427     5.5544 C.ar    
  18 C18           -1.1164    -4.6624     4.5685 C.ar    
  19 C19           -1.2467    -3.2995     4.7350 C.ar    
  20 O20           -1.3085    -6.8379     5.2027 O.3     
  21 C21           -0.5685    -5.5080     3.4501 C.3     
  22 C22           -1.0943    -6.9116     3.7799 C.3     
  23 N23            0.0754    -4.7709     1.3846 N.am    
  24 C24           -1.0340    -5.0381     2.1020 C.2     
  25 C25            0.9297    -5.4719     3.3884 C.ar    
  26 C26            1.9267    -5.7801     4.2869 C.ar    
  27 C27            3.2543    -5.6404     3.9237 C.ar    
  28 C28            3.5776    -5.1899     2.6567 C.ar    
  29 C29            2.5826    -4.8789     1.7535 C.ar    
  30 C30            1.2434    -5.0169     2.1103 C.ar    
  31 O31           -2.1830    -4.9223     1.7313 O.2     
  32 C32           -1.2149     3.5255     0.1325 C.ar    
  33 C33           -2.1829     4.2634    -0.5361 C.ar    
  34 C34           -2.2004     5.6417    -0.4219 C.ar    
  35 C35           -1.2530     6.2846     0.3582 C.ar    
  36 C36           -0.2889     5.5510     1.0237 C.ar    
  37 C37           -0.2709     4.1738     0.9184 C.ar    
  38 F38           -3.1413     6.3612    -1.0715 F       
  39 H39            2.1479    -0.1406    -0.0055 H       
  40 H40            2.1693    -2.6000    -0.0097 H       
  41 H41           -2.0967    -2.6567     0.0224 H       
  42 H42           -2.1405    -0.1976     0.0379 H       
  43 H43           -2.0262     1.6389    -0.0560 H       
  44 H44           -0.8308    -4.6546    -0.5033 H       
  45 H45            0.9489    -4.6310    -0.5171 H       
  46 H46           -1.3687    -1.4457     8.2545 H       
  47 H47           -3.0441    -0.8546     8.0159 H       
  48 H48           -2.4809    -5.7014     7.4799 H       
  49 H49           -0.8974    -2.6270     3.9655 H       
  50 H50           -0.3497    -7.6704     3.5394 H       
  51 H51           -2.0306    -7.1070     3.2571 H       
  52 H52            1.6719    -6.1316     5.2758 H       
  53 H53            4.0365    -5.8829     4.6278 H       
  54 H54            4.6140    -5.0807     2.3733 H       
  55 H55            2.8429    -4.5271     0.7661 H       
  56 H56           -2.9208     3.7618    -1.1446 H       
  57 H57           -1.2677     7.3609     0.4462 H       
  58 H58            0.4486     6.0551     1.6308 H       
  59 H59            0.4801     3.6016     1.4428 H       
@<TRIPOS>BOND
   1    1    2 1
   2    1    8 2
   3    1    9 am
   4    2    3 ar
   5    2    7 ar
   6    3    4 ar
   7    3   39 1
   8    4    5 ar
   9    4   40 1
  10    5    6 ar
  11    5   10 1
  12    6    7 ar
  13    6   41 1
  14    7   42 1
  15    9   32 1
  16    9   43 1
  17   10   23 1
  18   10   44 1
  19   10   45 1
  20   11   12 1
  21   11   15 1
  22   12   13 1
  23   12   46 1
  24   12   47 1
  25   13   14 1
  26   14   15 ar
  27   14   16 ar
  28   15   19 ar
  29   16   17 ar
  30   16   48 1
  31   17   18 ar
  32   17   20 1
  33   18   19 ar
  34   18   21 1
  35   19   49 1
  36   20   22 1
  37   21   22 1
  38   21   24 1
  39   21   25 1
  40   22   50 1
  41   22   51 1
  42   23   24 am
  43   23   30 1
  44   24   31 2
  45   25   26 ar
  46   25   30 ar
  47   26   27 ar
  48   26   52 1
  49   27   28 ar
  50   27   53 1
  51   28   29 ar
  52   28   54 1
  53   29   30 ar
  54   29   55 1
  55   32   33 ar
  56   32   37 ar
  57   33   34 ar
  58   33   56 1
  59   34   35 ar
  60   34   38 1
  61   35   36 ar
  62   35   57 1
  63   36   37 ar
  64   36   58 1
  65   37   59 1

#	End of record

