#	Name: ASD01882482
#	Creating user name:	WinNT
#	Creation time:	15. 06. 2019 19:44

#	Modifying user name:	WinNT
#	Modification time:	15. 06. 2019 19:44

#	Program:	/corina/corina34_cracker 3.40 0067  02.08.2006

@<TRIPOS>MOLECULE
ASD01882482
  56   61    0    0    0
SMALL
NO_CHARGES


@<TRIPOS>ATOM
   1 C1            -0.0170     1.4050     0.0098 C.2     
   2 C2             0.0021    -0.0041     0.0020 C.2     
   3 C3             1.1991    -0.6521    -0.0129 C.2     
   4 C4             2.3930     0.0893    -0.0203 C.2     
   5 C5             2.3588     1.4383    -0.0123 C.2     
   6 N6             1.1665     2.1012     0.0022 N.pl3   
   7 N7            -0.4824     3.4846     0.0225 N.2     
   8 N8            -0.9895     2.3019     0.0186 N.2     
   9 C9             0.8240     3.4179     0.0121 C.2     
  10 C10            1.2438    -2.1584    -0.0209 C.3     
  11 N11            1.3656    -2.6373    -1.4043 N.3     
  12 C12            1.6494    -4.0776    -1.4395 C.3     
  13 C13            1.9131    -4.5118    -2.8831 C.3     
  14 C14            0.6841    -4.1937    -3.7392 C.3     
  15 C15            0.3812    -2.6956    -3.6467 C.3     
  16 C16            0.1619    -2.3141    -2.1809 C.3     
  17 N17            0.9524    -4.5537    -5.1338 N.pl3   
  18 C18            1.9548    -4.0278    -5.9025 C.2     
  19 C19            1.9235    -4.5712    -7.1295 C.2     
  20 C20            0.8101    -5.5229    -7.1482 C.ar    
  21 C21            0.2811    -6.3789    -8.1161 C.ar    
  22 C22           -0.7954    -7.1635    -7.8124 C.ar    
  23 C23           -1.3680    -7.1166    -6.5485 C.ar    
  24 C24           -0.8625    -6.2790    -5.5788 C.ar    
  25 C25            0.2372    -5.4759    -5.8643 C.ar    
  26 C26            1.7759     4.5862     0.0100 C.3     
  27 C27            2.0856     4.9891    -1.4332 C.3     
  28 C28            2.9459     6.2357    -1.6495 C.3     
  29 C29            3.5319     4.8469    -1.9116 C.3     
  30 Cl30          -1.4832    -0.9027     0.0120 Cl      
  31 H31            3.3434    -0.4236    -0.0322 H       
  32 H32            3.2826     1.9976    -0.0178 H       
  33 H33            2.1017    -2.4995     0.5585 H       
  34 H34            0.3279    -2.5514     0.4204 H       
  35 H35            2.5280    -4.2897    -0.8302 H       
  36 H36            0.7936    -4.6261    -1.0459 H       
  37 H37            2.7773    -3.9737    -3.2728 H       
  38 H38            2.1084    -5.5838    -2.9108 H       
  39 H39           -0.1714    -4.7616    -3.3736 H       
  40 H40            1.2213    -2.1290    -4.0484 H       
  41 H41           -0.5180    -2.4701    -4.2199 H       
  42 H42           -0.6869    -2.8709    -1.7838 H       
  43 H43           -0.0399    -1.2453    -2.1101 H       
  44 H44            2.6657    -3.2852    -5.5711 H       
  45 H45            2.5924    -4.3489    -7.9478 H       
  46 H46            0.7211    -6.4205    -9.1016 H       
  47 H47           -1.2044    -7.8252    -8.5615 H       
  48 H48           -2.2187    -7.7428    -6.3235 H       
  49 H49           -1.3152    -6.2494    -4.5987 H       
  50 H50            1.3200     5.4273     0.5322 H       
  51 H51            2.6998     4.3030     0.5143 H       
  52 H52            1.2942     4.7920    -2.1564 H       
  53 H53            2.7208     6.8585    -2.5153 H       
  54 H54            3.2913     6.7687    -0.7637 H       
  55 H55            4.2628     4.4662    -1.1982 H       
  56 H56            3.6923     4.5560    -2.9497 H       
@<TRIPOS>BOND
   1    1    2 1
   2    1    6 1
   3    1    8 2
   4    2    3 2
   5    2   30 1
   6    3    4 1
   7    3   10 1
   8    4    5 2
   9    4   31 1
  10    5    6 1
  11    5   32 1
  12    6    9 1
  13    7    8 1
  14    7    9 2
  15    9   26 1
  16   10   11 1
  17   10   33 1
  18   10   34 1
  19   11   12 1
  20   11   16 1
  21   12   13 1
  22   12   35 1
  23   12   36 1
  24   13   14 1
  25   13   37 1
  26   13   38 1
  27   14   15 1
  28   14   17 1
  29   14   39 1
  30   15   16 1
  31   15   40 1
  32   15   41 1
  33   16   42 1
  34   16   43 1
  35   17   18 1
  36   17   25 1
  37   18   19 2
  38   18   44 1
  39   19   20 1
  40   19   45 1
  41   20   21 ar
  42   20   25 ar
  43   21   22 ar
  44   21   46 1
  45   22   23 ar
  46   22   47 1
  47   23   24 ar
  48   23   48 1
  49   24   25 ar
  50   24   49 1
  51   26   27 1
  52   26   50 1
  53   26   51 1
  54   27   28 1
  55   27   29 1
  56   27   52 1
  57   28   29 1
  58   28   53 1
  59   28   54 1
  60   29   55 1
  61   29   56 1

#	End of record

