#	Name: ASD05062015
#	Creating user name:	WinNT
#	Creation time:	15. 06. 2019 20:56

#	Modifying user name:	WinNT
#	Modification time:	15. 06. 2019 20:56

#	Program:	/corina/corina34_cracker 3.40 0067  02.08.2006

@<TRIPOS>MOLECULE
ASD05062015
  57   60    0    0    0
SMALL
NO_CHARGES


@<TRIPOS>ATOM
   1 C1            -0.0415     1.3934    -0.0356 C.3     
   2 C2             0.0186    -0.1324    -0.0533 C.3     
   3 C3             0.8109    -0.6323    -1.2609 C.3     
   4 C4             2.2365    -0.0532    -1.2103 C.3     
   5 C5             2.1123     1.4681    -1.2557 C.3     
   6 C6             1.3772     1.9841    -0.0280 C.3     
   7 C7             3.0312    -0.5871    -2.3959 C.3     
   8 C8             4.3927     0.0838    -2.5867 C.3     
   9 C9             4.6113     1.1985    -1.5938 C.3     
  10 C10            3.3909     2.1442    -1.5961 C.3     
  11 C11            5.7422     2.1781    -1.9781 C.3     
  12 C12            5.3120     3.5444    -1.3902 C.3     
  13 C13            3.9060     3.3161    -0.7551 C.3     
  14 C14            7.0559     1.7160    -1.3492 C.3     
  15 C15            8.1962     2.6149    -1.8315 C.3     
  16 C16            9.4691     2.2380    -1.1183 C.2     
  17 C17           10.3275     1.2643    -1.4711 C.2     
  18 O18           11.3351     1.2447    -0.5833 O.3     
  19 C19           11.1358     2.1981     0.3414 C.2     
  20 C20            9.9933     2.8440     0.0466 C.2     
  21 O21            8.3717     2.4474    -3.2398 O.3     
  22 C22            2.0688     1.6012     1.2766 C.3     
  23 C23            4.9538     0.6475    -0.2131 C.3     
  24 C24            5.2270     4.5811    -2.4778 C.2     
  25 O25            5.9181     5.5700    -2.4247 O.2     
  26 H26           -0.5712     1.7484    -0.9192 H       
  27 H27           -0.5687     1.7255     0.8595 H       
  28 H28            0.4672    -0.5064     0.8645 H       
  29 H29           -1.0041    -0.5227    -0.1167 H       
  30 H30            0.8732    -1.7197    -1.2381 H       
  31 H31            0.3297    -0.3087    -2.1820 H       
  32 H32            2.6821    -0.3962    -0.2847 H       
  33 H33            1.4168     1.6784    -2.1147 H       
  34 H34            1.2992     3.0751    -0.0852 H       
  35 H35            3.1774    -1.6680    -2.2605 H       
  36 H36            2.4325    -0.4564    -3.3079 H       
  37 H37            5.1891    -0.6662    -2.4696 H       
  38 H38            4.4688     0.4835    -3.6072 H       
  39 H39            3.2832     2.5322    -2.6427 H       
  40 H40            5.8261     2.2323    -3.0590 H       
  41 H41            6.0151     3.8613    -0.6212 H       
  42 H42            3.2822     4.1997    -0.9023 H       
  43 H43            3.9995     3.0796     0.2956 H       
  44 H44            6.9800     1.7765    -0.2635 H       
  45 H45            7.2566     0.6856    -1.6426 H       
  46 H46            7.9539     3.6558    -1.6169 H       
  47 H47           10.2237     0.6090    -2.3232 H       
  48 H48           11.7850     2.4126     1.1774 H       
  49 H49            9.5563     3.6632     0.5982 H       
  50 H50            8.5899     1.5431    -3.5041 H       
  51 H51            3.0755     2.0189     1.2904 H       
  52 H52            1.5001     1.9959     2.1187 H       
  53 H53            2.1248     0.5154     1.3530 H       
  54 H54            5.7951    -0.0407    -0.2950 H       
  55 H55            5.2205     1.4701     0.4505 H       
  56 H56            4.0905     0.1194     0.1917 H       
  57 H57            4.5480     4.4406    -3.3058 H       
@<TRIPOS>BOND
   1    1    2 1
   2    1    6 1
   3    1   26 1
   4    1   27 1
   5    2    3 1
   6    2   28 1
   7    2   29 1
   8    3    4 1
   9    3   30 1
  10    3   31 1
  11    4    5 1
  12    4    7 1
  13    4   32 1
  14    5    6 1
  15    5   10 1
  16    5   33 1
  17    6   22 1
  18    6   34 1
  19    7    8 1
  20    7   35 1
  21    7   36 1
  22    8    9 1
  23    8   37 1
  24    8   38 1
  25    9   10 1
  26    9   23 1
  27    9   11 1
  28   10   13 1
  29   10   39 1
  30   11   12 1
  31   11   14 1
  32   11   40 1
  33   12   13 1
  34   12   24 1
  35   12   41 1
  36   13   42 1
  37   13   43 1
  38   14   15 1
  39   14   44 1
  40   14   45 1
  41   15   16 1
  42   15   21 1
  43   15   46 1
  44   16   17 2
  45   16   20 1
  46   17   18 1
  47   17   47 1
  48   18   19 1
  49   19   20 2
  50   19   48 1
  51   20   49 1
  52   21   50 1
  53   22   51 1
  54   22   52 1
  55   22   53 1
  56   23   54 1
  57   23   55 1
  58   23   56 1
  59   24   25 2
  60   24   57 1

#	End of record

