#	Name: ASD01120011
#	Creating user name:	WinNT
#	Creation time:	15. 06. 2019 18:58

#	Modifying user name:	WinNT
#	Modification time:	15. 06. 2019 18:58

#	Program:	/corina/corina34_cracker 3.40 0067  02.08.2006

@<TRIPOS>MOLECULE
ASD01120011
  57   60    0    0    0
SMALL
NO_CHARGES


@<TRIPOS>ATOM
   1 C1            -0.0156     1.4019    -0.0394 C.ar    
   2 C2             0.0047     0.0004    -0.0617 C.ar    
   3 C3            -1.1691    -0.7203    -0.0524 C.ar    
   4 C4            -2.3941    -0.0432    -0.0203 C.ar    
   5 C5            -2.4067     1.3736     0.0022 C.ar    
   6 C6            -1.1995     2.0824    -0.0027 C.ar    
   7 N7            -3.5655    -0.6986    -0.0105 N.ar    
   8 C8            -4.6977    -0.0367     0.0194 C.ar    
   9 N9            -4.7581     1.2853     0.0412 N.ar    
  10 C10           -3.6601     2.0298     0.0340 C.ar    
  11 N11           -3.7382     3.4079     0.0575 N.pl3   
  12 C12           -4.9822     4.0392    -0.0323 C.ar    
  13 C13           -5.2106     5.2227     0.6534 C.ar    
  14 C14           -6.4515     5.8481     0.5605 C.ar    
  15 C15           -7.4568     5.2810    -0.2211 C.ar    
  16 C16           -7.2215     4.1023    -0.9008 C.ar    
  17 C17           -5.9891     3.4838    -0.8135 C.ar    
  18 C18           -6.7028     7.1141     1.2917 C.2     
  19 O19            1.1564     2.0915    -0.0487 O.3     
  20 O20            1.1947    -0.6540    -0.0933 O.3     
  21 C21           -5.7454     7.7642     1.9837 C.2     
  22 S22           -6.4719     9.2068     2.6873 S.3     
  23 C23           -7.9796     8.8030     1.9910 C.2     
  24 N24           -7.8868     7.7089     1.3177 N.2     
  25 C25            1.0701     3.5177    -0.0248 C.3     
  26 C26            2.4790     4.1141    -0.0397 C.3     
  27 C27            1.1494    -2.0821    -0.1149 C.3     
  28 C28            2.5748    -2.6371    -0.1492 C.3     
  29 C29           -9.2397     9.6161     2.1393 C.3     
  30 C30          -10.0110     9.1412     3.3724 C.3     
  31 C31          -11.2903     9.9667     3.5230 C.3     
  32 H32           -1.1446    -1.7999    -0.0702 H       
  33 H33           -1.2042     3.1623     0.0144 H       
  34 H34           -5.6218    -0.5955     0.0261 H       
  35 H35           -2.9298     3.9382     0.1363 H       
  36 H36           -4.4286     5.6580     1.2579 H       
  37 H37           -8.4202     5.7636    -0.2947 H       
  38 H38           -8.0019     3.6648    -1.5057 H       
  39 H39           -5.8100     2.5622    -1.3474 H       
  40 H40           -4.7160     7.4550     2.0885 H       
  41 H41            0.5201     3.8631    -0.9002 H       
  42 H42            0.5507     3.8352     0.8793 H       
  43 H43            2.4132     5.2020    -0.0215 H       
  44 H44            3.0290     3.7687     0.8357 H       
  45 H45            2.9985     3.7966    -0.9438 H       
  46 H46            0.6404    -2.4430     0.7788 H       
  47 H47            0.6085    -2.4151    -1.0007 H       
  48 H48            3.0839    -2.2762    -1.0429 H       
  49 H49            3.1158    -2.3041     0.7366 H       
  50 H50            2.5403    -3.7264    -0.1656 H       
  51 H51           -8.9814    10.6687     2.2555 H       
  52 H52           -9.8601     9.4901     1.2520 H       
  53 H53          -10.2694     8.0886     3.2562 H       
  54 H54           -9.3907     9.2672     4.2598 H       
  55 H55          -11.0320    11.0193     3.6392 H       
  56 H56          -11.9106     9.8407     2.6356 H       
  57 H57          -11.8398     9.6284     4.4015 H       
@<TRIPOS>BOND
   1    1    2 ar
   2    1   19 1
   3    1    6 ar
   4    2    3 ar
   5    2   20 1
   6    3    4 ar
   7    3   32 1
   8    4    5 ar
   9    4    7 ar
  10    5    6 ar
  11    5   10 ar
  12    6   33 1
  13    7    8 ar
  14    8    9 ar
  15    8   34 1
  16    9   10 ar
  17   10   11 1
  18   11   12 1
  19   11   35 1
  20   12   13 ar
  21   12   17 ar
  22   13   14 ar
  23   13   36 1
  24   14   15 ar
  25   14   18 1
  26   15   16 ar
  27   15   37 1
  28   16   17 ar
  29   16   38 1
  30   17   39 1
  31   18   21 2
  32   18   24 1
  33   19   25 1
  34   20   27 1
  35   21   22 1
  36   21   40 1
  37   22   23 1
  38   23   24 2
  39   23   29 1
  40   25   26 1
  41   25   41 1
  42   25   42 1
  43   26   43 1
  44   26   44 1
  45   26   45 1
  46   27   28 1
  47   27   46 1
  48   27   47 1
  49   28   48 1
  50   28   49 1
  51   28   50 1
  52   29   30 1
  53   29   51 1
  54   29   52 1
  55   30   31 1
  56   30   53 1
  57   30   54 1
  58   31   55 1
  59   31   56 1
  60   31   57 1

#	End of record

