#	Name: ASD03930282
#	Creating user name:	WinNT
#	Creation time:	15. 06. 2019 20:47

#	Modifying user name:	WinNT
#	Modification time:	15. 06. 2019 20:47

#	Program:	/corina/corina34_cracker 3.40 0067  02.08.2006

@<TRIPOS>MOLECULE
ASD03930282
  26   28    0    0    0
SMALL
NO_CHARGES


@<TRIPOS>ATOM
   1 O1            -0.0279     0.0089     0.0032 O.2     
   2 S2            -0.0884     1.4279     0.0498 S.o2    
   3 O3            -0.8563     2.2126    -0.8522 O.2     
   4 N4            -0.5734     1.8436     1.5940 N.am    
   5 C5            -0.0491     3.1387     2.0770 C.3     
   6 N6             1.4033     3.0673     2.1669 N.3     
   7 C7             1.9508     4.2702     2.8083 C.3     
   8 C8             1.0954     5.5384     2.7781 C.3     
   9 C9             1.2677     4.7628     4.0856 C.3     
  10 C10            2.0957     2.7652     1.0046 C.ar    
  11 C11            3.4077     3.2415     0.8845 C.ar    
  12 C12            4.1281     2.9352    -0.2546 C.ar    
  13 C13            3.5408     2.1689    -1.2439 C.ar    
  14 N14            2.3008     1.7413    -1.1102 N.ar    
  15 C15            1.5784     2.0182    -0.0437 C.ar    
  16 H16           -1.1528     1.2802     2.1305 H       
  17 H17           -0.3322     3.9282     1.3808 H       
  18 H18           -0.4644     3.3550     3.0614 H       
  19 H19            3.0318     4.3901     2.7373 H       
  20 H20            1.6136     6.4930     2.6871 H       
  21 H21            0.1263     5.4802     2.2824 H       
  22 H22            0.4121     4.1943     4.4502 H       
  23 H23            1.8994     5.2071     4.8549 H       
  24 H24            3.8489     3.8386     1.6689 H       
  25 H25            5.1409     3.2917    -0.3709 H       
  26 H26            4.1014     1.9190    -2.1326 H       
@<TRIPOS>BOND
   1    1    2 2
   2    2   15 1
   3    2    3 2
   4    2    4 am
   5    4    5 1
   6    4   16 1
   7    5    6 1
   8    5   17 1
   9    5   18 1
  10    6    7 1
  11    6   10 1
  12    7    9 1
  13    7    8 1
  14    7   19 1
  15    8    9 1
  16    8   20 1
  17    8   21 1
  18    9   22 1
  19    9   23 1
  20   10   15 ar
  21   10   11 ar
  22   11   12 ar
  23   11   24 1
  24   12   13 ar
  25   12   25 1
  26   13   14 ar
  27   13   26 1
  28   14   15 ar

#	End of record

