#	Name: ASD01915058
#	Creating user name:	WinNT
#	Creation time:	15. 06. 2019 20:04

#	Modifying user name:	WinNT
#	Modification time:	15. 06. 2019 20:04

#	Program:	/corina/corina34_cracker 3.40 0067  02.08.2006

@<TRIPOS>MOLECULE
ASD01915058
  43   46    0    0    0
SMALL
NO_CHARGES


@<TRIPOS>ATOM
   1 C1            -0.2250     1.4610    -1.1260 C.ar    
   2 C2            -0.2366     0.0859    -1.2801 C.ar    
   3 C3             0.9604    -0.6059    -1.1439 C.ar    
   4 C4             2.1170     0.0948    -0.8611 C.ar    
   5 N5             2.0952     1.4067    -0.7199 N.ar    
   6 C6             0.9756     2.0995    -0.8422 C.ar    
   7 O7             0.9996     3.4476    -0.6889 O.3     
   8 C8             2.2647     4.0450    -0.3982 C.3     
   9 C9             2.0968     5.5365    -0.2632 C.2     
  10 C10            0.8950     6.2457    -0.3924 C.2     
  11 N11            3.0494     6.3999     0.0019 N.2     
  12 C12            1.2322     7.5541    -0.1922 C.2     
  13 C13            0.4247     8.7834    -0.1927 C.2     
  14 N14            2.5860     7.5868     0.0603 N.pl3   
  15 C15            3.2730     8.8498     0.3561 C.3     
  16 C16            2.5572     9.9929    -0.3620 C.3     
  17 N17            1.1093     9.9527    -0.1718 N.am    
  18 O18           -0.7912     8.7522    -0.2112 O.2     
  19 C19            3.2520     9.1016     1.8651 C.3     
  20 Cl20           1.0023    -2.3317    -1.3267 Cl      
  21 C21            0.4146    11.1479     0.0414 C.ar    
  22 C22            0.3171    12.0871    -0.9772 C.ar    
  23 C23           -0.3698    13.2661    -0.7642 C.ar    
  24 C24           -0.9603    13.5123     0.4630 C.ar    
  25 C25           -0.8643    12.5785     1.4797 C.ar    
  26 C26           -0.1838    11.3951     1.2701 C.ar    
  27 Cl27          -1.8225    14.9957     0.7275 Cl      
  28 H28           -1.1366     2.0308    -1.2295 H       
  29 H29           -1.1551    -0.4376    -1.5007 H       
  30 H30            3.0504    -0.4377    -0.7538 H       
  31 H31            2.6533     3.6372     0.5350 H       
  32 H32            2.9627     3.8297    -1.2073 H       
  33 H33           -0.0851     5.8447    -0.6044 H       
  34 H34            4.3052     8.7924     0.0104 H       
  35 H35            2.9362    10.9410     0.0195 H       
  36 H36            2.7761     9.9314    -1.4280 H       
  37 H37            3.7592     8.2839     2.3770 H       
  38 H38            3.7622    10.0395     2.0841 H       
  39 H39            2.2194     9.1608     2.2092 H       
  40 H40            0.7783    11.8957    -1.9348 H       
  41 H41           -0.4459    13.9967    -1.5558 H       
  42 H42           -1.3254    12.7734     2.4366 H       
  43 H43           -0.1131    10.6646     2.0624 H       
@<TRIPOS>BOND
   1    1    2 ar
   2    1    6 ar
   3    1   28 1
   4    2    3 ar
   5    2   29 1
   6    3    4 ar
   7    3   20 1
   8    4    5 ar
   9    4   30 1
  10    5    6 ar
  11    6    7 1
  12    7    8 1
  13    8    9 1
  14    8   31 1
  15    8   32 1
  16    9   11 2
  17    9   10 1
  18   10   12 2
  19   10   33 1
  20   11   14 1
  21   12   14 1
  22   12   13 1
  23   13   17 am
  24   13   18 2
  25   14   15 1
  26   15   16 1
  27   15   19 1
  28   15   34 1
  29   16   17 1
  30   16   35 1
  31   16   36 1
  32   17   21 1
  33   19   37 1
  34   19   38 1
  35   19   39 1
  36   21   22 ar
  37   21   26 ar
  38   22   23 ar
  39   22   40 1
  40   23   24 ar
  41   23   41 1
  42   24   25 ar
  43   24   27 1
  44   25   26 ar
  45   25   42 1
  46   26   43 1

#	End of record

