#	Name: ASD01913284
#	Creating user name:	WinNT
#	Creation time:	15. 06. 2019 20:01

#	Modifying user name:	WinNT
#	Modification time:	15. 06. 2019 20:01

#	Program:	/corina/corina34_cracker 3.40 0067  02.08.2006

@<TRIPOS>MOLECULE
ASD01913284
  44   47    0    0    0
SMALL
NO_CHARGES


@<TRIPOS>ATOM
   1 C1             0.1598     1.3797     1.5326 C.ar    
   2 C2             0.1795    -0.0085     1.5303 C.ar    
   3 C3             1.3737    -0.6521     1.2609 C.ar    
   4 C4             2.5134     0.1135     1.0015 C.ar    
   5 N5             2.4506     1.4420     1.0141 N.ar    
   6 C6             1.3247     2.0766     1.2676 C.ar    
   7 C7             3.7579    -0.5367     0.7206 C.1     
   8 C8             4.7783    -1.0698     0.4903 C.1     
   9 C9             6.0228    -1.7200     0.2094 C.ar    
  10 C10            7.1729    -0.9579    -0.0523 C.ar    
  11 C11            8.3776    -1.5907    -0.3247 C.ar    
  12 C12            8.4515    -2.9663    -0.3393 C.ar    
  13 C13            7.3127    -3.7360    -0.0797 C.ar    
  14 C14            6.0985    -3.1114     0.2004 C.ar    
  15 O15            7.1063     0.3965    -0.0393 O.3     
  16 C16            8.3146     1.1082    -0.3141 C.3     
  17 F17            9.2818     0.7703     0.6385 F       
  18 F18            8.7770     0.7668    -1.5896 F       
  19 C19            7.3980    -5.2098    -0.0972 C.2     
  20 N20            8.5970    -5.8141    -0.2146 N.am    
  21 O21            6.3867    -5.8784    -0.0058 O.2     
  22 C22            8.8606    -7.2548    -0.1381 C.3     
  23 C23           10.3413    -7.4585    -0.3255 C.ar    
  24 C24           10.9461    -6.2308    -0.5046 C.ar    
  25 C25            9.8868    -5.1576    -0.4496 C.3     
  26 C26           11.1159    -8.6088    -0.3419 C.ar    
  27 C27           12.4821    -8.4821    -0.5394 C.ar    
  28 C28           13.0204    -7.2208    -0.7120 C.ar    
  29 N29           12.2529    -6.1504    -0.6908 N.ar    
  30 H30           -0.7585     1.9109     1.7352 H       
  31 H31           -0.7179    -0.5734     1.7349 H       
  32 H32            1.4246    -1.7309     1.2514 H       
  33 H33            1.3111     3.1566     1.2690 H       
  34 H34            9.2606    -1.0025    -0.5264 H       
  35 H35            9.3922    -3.4522    -0.5524 H       
  36 H36            5.2180    -3.7036     0.4015 H       
  37 H37            8.1223     2.1803    -0.2723 H       
  38 H38            8.5557    -7.6351     0.8369 H       
  39 H39            8.3136    -7.7730    -0.9257 H       
  40 H40            9.8643    -4.6123    -1.3932 H       
  41 H41           10.0992    -4.4708     0.3697 H       
  42 H42           10.6653    -9.5805    -0.2036 H       
  43 H43           13.1165    -9.3560    -0.5578 H       
  44 H44           14.0837    -7.1114    -0.8666 H       
@<TRIPOS>BOND
   1    1    2 ar
   2    1    6 ar
   3    1   30 1
   4    2    3 ar
   5    2   31 1
   6    3    4 ar
   7    3   32 1
   8    4    5 ar
   9    4    7 1
  10    5    6 ar
  11    6   33 1
  12    7    8 3
  13    8    9 1
  14    9   10 ar
  15    9   14 ar
  16   10   11 ar
  17   10   15 1
  18   11   12 ar
  19   11   34 1
  20   12   13 ar
  21   12   35 1
  22   13   14 ar
  23   13   19 1
  24   14   36 1
  25   15   16 1
  26   16   17 1
  27   16   18 1
  28   16   37 1
  29   19   20 am
  30   19   21 2
  31   20   22 1
  32   20   25 1
  33   22   23 1
  34   22   38 1
  35   22   39 1
  36   23   24 ar
  37   23   26 ar
  38   24   25 1
  39   24   29 ar
  40   25   40 1
  41   25   41 1
  42   26   27 ar
  43   26   42 1
  44   27   28 ar
  45   27   43 1
  46   28   29 ar
  47   28   44 1

#	End of record

