#	Name: ASD03540591
#	Creating user name:	WinNT
#	Creation time:	15. 06. 2019 20:43

#	Modifying user name:	WinNT
#	Modification time:	15. 06. 2019 20:43

#	Program:	/corina/corina34_cracker 3.40 0067  02.08.2006

@<TRIPOS>MOLECULE
ASD03540591
  52   56    0    0    0
SMALL
NO_CHARGES


@<TRIPOS>ATOM
   1 N1            -0.0164     1.3608     0.0095 N.pl3   
   2 C2             0.0021    -0.0041     0.0020 C.2     
   3 N3             1.1903    -0.7096    -0.0132 N.am    
   4 C4             2.3778    -0.0689    -0.0205 C.2     
   5 C5             2.3905     1.4059    -0.0126 C.ar    
   6 C6             3.5856     2.1159    -0.0186 C.ar    
   7 C7             3.5564     3.5090    -0.0098 C.ar    
   8 C8             2.3300     4.1837     0.0049 C.ar    
   9 C9             1.1468     3.4801     0.0112 C.ar    
  10 C10            1.1624     2.0911     0.0022 C.ar    
  11 N11           -2.0330     0.6196     0.0248 N.2     
  12 N12           -1.2514    -0.4005     0.0119 N.2     
  13 C13           -1.3340     1.7207     0.0296 C.2     
  14 C14            4.8199     4.2740    -0.0155 C.2     
  15 O15            5.8851     3.6882    -0.0278 O.2     
  16 N16            4.7919     5.6214    -0.0070 N.am    
  17 O17            3.4195    -0.6967    -0.0330 O.2     
  18 C18            1.1602    -2.1743    -0.0209 C.3     
  19 C19            1.1364    -2.6687    -1.4443 C.2     
  20 C20            2.0555    -3.5275    -1.8632 C.2     
  21 C21            2.9335    -5.3454    -5.0322 C.ar    
  22 C22            2.9929    -4.9190    -3.7218 C.ar    
  23 C23            2.0321    -4.0124    -3.2590 C.ar    
  24 C24            1.0483    -3.5782    -4.1550 C.ar    
  25 C25            1.0638    -4.0568    -5.4485 C.ar    
  26 N26            1.9885    -4.9108    -5.8440 N.ar    
  27 C27            6.0450     6.3802    -0.0127 C.3     
  28 C28            5.3236     9.8963     1.1667 C.ar    
  29 C29            5.6045     8.5434     1.1953 C.ar    
  30 C30            5.7389     7.8558    -0.0011 C.ar    
  31 C31            5.5854     8.5581    -1.1867 C.ar    
  32 C32            5.3055     9.9105    -1.1369 C.ar    
  33 N33            5.1841    10.5321     0.0198 N.ar    
  34 H34            4.5298     1.5916    -0.0295 H       
  35 H35            2.3119     5.2635     0.0116 H       
  36 H36            0.2051     4.0088     0.0233 H       
  37 H37           -1.7237     2.7278     0.0403 H       
  38 H38            3.9419     6.0888     0.0028 H       
  39 H39            2.0474    -2.5586     0.4824 H       
  40 H40            0.2679    -2.5221     0.4996 H       
  41 H41            0.3705    -2.3235    -2.1231 H       
  42 H42            2.8214    -3.8727    -1.1844 H       
  43 H43            3.6730    -6.0414    -5.3999 H       
  44 H44            3.7690    -5.2792    -3.0628 H       
  45 H45            0.2884    -2.8793    -3.8381 H       
  46 H46            0.3090    -3.7277    -6.1472 H       
  47 H47            6.6292     6.1234     0.8710 H       
  48 H48            6.6146     6.1343    -0.9089 H       
  49 H49            5.2129    10.4382     2.0943 H       
  50 H50            5.7179     8.0283     2.1378 H       
  51 H51            5.6837     8.0546    -2.1371 H       
  52 H52            5.1845    10.4648    -2.0559 H       
@<TRIPOS>BOND
   1    1    2 1
   2    1   10 1
   3    1   13 1
   4    2    3 1
   5    2   12 2
   6    3    4 am
   7    3   18 1
   8    4    5 1
   9    4   17 2
  10    5    6 ar
  11    5   10 ar
  12    6    7 ar
  13    6   34 1
  14    7    8 ar
  15    7   14 1
  16    8    9 ar
  17    8   35 1
  18    9   10 ar
  19    9   36 1
  20   11   12 1
  21   11   13 2
  22   13   37 1
  23   14   15 2
  24   14   16 am
  25   16   27 1
  26   16   38 1
  27   18   19 1
  28   18   39 1
  29   18   40 1
  30   19   20 2
  31   19   41 1
  32   20   23 1
  33   20   42 1
  34   21   22 ar
  35   21   26 ar
  36   21   43 1
  37   22   23 ar
  38   22   44 1
  39   23   24 ar
  40   24   25 ar
  41   24   45 1
  42   25   26 ar
  43   25   46 1
  44   27   30 1
  45   27   47 1
  46   27   48 1
  47   28   29 ar
  48   28   33 ar
  49   28   49 1
  50   29   30 ar
  51   29   50 1
  52   30   31 ar
  53   31   32 ar
  54   31   51 1
  55   32   33 ar
  56   32   52 1

#	End of record

