#	Name: ASD01148166
#	Creating user name:	WinNT
#	Creation time:	15. 06. 2019 19:02

#	Modifying user name:	WinNT
#	Modification time:	15. 06. 2019 19:02

#	Program:	/corina/corina34_cracker 3.40 0067  02.08.2006

@<TRIPOS>MOLECULE
ASD01148166
  52   55    0    0    0
SMALL
NO_CHARGES


@<TRIPOS>ATOM
   1 C1            -0.0167     1.3781     0.0096 C.ar    
   2 C2             0.0021    -0.0041     0.0020 C.ar    
   3 C3             1.2084    -0.6789    -0.0132 C.ar    
   4 C4             2.3960     0.0285    -0.0212 C.ar    
   5 C5             2.3773     1.4107    -0.0145 C.ar    
   6 C6             1.1710     2.0855     0.0021 C.ar    
   7 C7             3.6720     2.1819    -0.0228 C.3     
   8 O8             4.6967     1.4625    -0.7383 O.3     
   9 C9             3.5433     3.4712    -0.8686 C.3     
  10 C10            4.0468     3.0252    -2.2282 C.2     
  11 N11            4.6717     1.9053    -2.0808 N.2     
  12 C12            3.8547     3.7474    -3.5012 C.ar    
  13 C13            4.3733     3.2222    -4.6875 C.ar    
  14 C14            3.1495     4.9534    -3.5208 C.ar    
  15 C15            2.9700     5.6265    -4.7080 C.ar    
  16 C16            3.4931     5.1040    -5.8932 C.ar    
  17 C17            4.1937     3.8956    -5.8746 C.ar    
  18 C18            3.2999     5.8266    -7.1679 C.2     
  19 O19            2.6860     6.8756    -7.1850 O.2     
  20 N20            3.8046     5.3225    -8.3115 N.am    
  21 C21            4.1233     2.5042     1.4032 C.3     
  22 F22            4.2976     1.3140     2.1174 F       
  23 F23            5.3334     3.2050     1.3622 F       
  24 F24            3.1514     3.2884     2.0338 F       
  25 N25            3.6215     6.0075    -9.5198 N.pl3   
  26 C26            4.4026     7.2140    -9.8035 C.3     
  27 C27            2.6943     5.5401   -10.4540 C.ar    
  28 C28            2.5115     6.2180   -11.6526 C.ar    
  29 C29            1.5942     5.7529   -12.5743 C.ar    
  30 C30            0.8581     4.6136   -12.3051 C.ar    
  31 C31            1.0372     3.9365   -11.1127 C.ar    
  32 C32            1.9569     4.3930   -10.1891 C.ar    
  33 H33           -0.9592     1.9054     0.0170 H       
  34 H34           -0.9258    -0.5567     0.0083 H       
  35 H35            1.2231    -1.7588    -0.0184 H       
  36 H36            3.3386    -0.4987    -0.0324 H       
  37 H37            1.1563     3.1654     0.0069 H       
  38 H38            2.5036     3.7931    -0.9276 H       
  39 H39            4.1725     4.2639    -0.4639 H       
  40 H40            4.9152     2.2882    -4.6732 H       
  41 H41            2.7448     5.3572    -2.6045 H       
  42 H42            2.4246     6.5585    -4.7232 H       
  43 H43            4.5980     3.4917    -6.7911 H       
  44 H44            4.2945     4.4854    -8.2979 H       
  45 H45            5.3268     6.9375   -10.3109 H       
  46 H46            3.8228     7.8803   -10.4422 H       
  47 H47            4.6393     7.7217    -8.8685 H       
  48 H48            3.0858     7.1081   -11.8633 H       
  49 H49            1.4514     6.2797   -13.5062 H       
  50 H50            0.1414     4.2520   -13.0276 H       
  51 H51            0.4605     3.0473   -10.9055 H       
  52 H52            2.0963     3.8638    -9.2580 H       
@<TRIPOS>BOND
   1    1    2 ar
   2    1    6 ar
   3    1   33 1
   4    2    3 ar
   5    2   34 1
   6    3    4 ar
   7    3   35 1
   8    4    5 ar
   9    4   36 1
  10    5    6 ar
  11    5    7 1
  12    6   37 1
  13    7    8 1
  14    7    9 1
  15    7   21 1
  16    8   11 1
  17    9   10 1
  18    9   38 1
  19    9   39 1
  20   10   11 2
  21   10   12 1
  22   12   13 ar
  23   12   14 ar
  24   13   17 ar
  25   13   40 1
  26   14   15 ar
  27   14   41 1
  28   15   16 ar
  29   15   42 1
  30   16   17 ar
  31   16   18 1
  32   17   43 1
  33   18   19 2
  34   18   20 am
  35   20   25 1
  36   20   44 1
  37   21   22 1
  38   21   23 1
  39   21   24 1
  40   25   26 1
  41   25   27 1
  42   26   45 1
  43   26   46 1
  44   26   47 1
  45   27   28 ar
  46   27   32 ar
  47   28   29 ar
  48   28   48 1
  49   29   30 ar
  50   29   49 1
  51   30   31 ar
  52   30   50 1
  53   31   32 ar
  54   31   51 1
  55   32   52 1

#	End of record

