#	Name: ASD02038026
#	Creating user name:	WinNT
#	Creation time:	15. 06. 2019 20:16

#	Modifying user name:	WinNT
#	Modification time:	15. 06. 2019 20:16

#	Program:	/corina/corina34_cracker 3.40 0067  02.08.2006

@<TRIPOS>MOLECULE
ASD02038026
  46   49    0    0    0
SMALL
NO_CHARGES


@<TRIPOS>ATOM
   1 C1             0.0099     1.3692    -0.2038 C.ar    
   2 O2             1.1509     2.0791     0.0022 O.3     
   3 N3             2.1747     4.1760    -0.0058 N.am    
   4 C4             1.0628     3.4195    -0.0943 C.2     
   5 C5             4.9661     6.1045     0.4158 C.3     
   6 O6             6.0072     5.8511     1.3614 O.3     
   7 C7             7.1980     6.4724     1.1497 C.ar    
   8 C8             8.2513     6.2704     2.0293 C.ar    
   9 C9             7.3607     7.3036     0.0508 C.ar    
  10 C10            8.5698     7.9342    -0.1657 C.ar    
  11 C11            9.6229     7.7367     0.7174 C.ar    
  12 C12            9.4606     6.9011     1.8143 C.ar    
  13 N13           10.8505     8.3748     0.5014 N.am    
  14 C14           11.9671     7.9265     1.1039 C.2     
  15 C15           11.9248     6.7220     2.0051 C.3     
  16 C16           10.6049     6.6894     2.7712 C.3     
  17 O17           -0.0191     3.9469    -0.2612 O.2     
  18 O18           13.0199     8.4996     0.9181 O.2     
  19 C19           -0.4637     1.1753    -1.4930 C.ar    
  20 C20            2.4852     5.6125    -0.0595 C.3     
  21 C21            3.7122     5.3249     0.8168 C.3     
  22 C22            3.6107     3.9287     0.1934 C.3     
  23 C23           -0.6784     0.8333     0.8745 C.ar    
  24 C24           -1.8379     0.1114     0.6644 C.ar    
  25 C25           -2.3132    -0.0776    -0.6204 C.ar    
  26 C26           -1.6217     0.4478    -1.7008 C.ar    
  27 Cl27          -3.7694    -0.9859    -0.8815 Cl      
  28 F28           -2.0873     0.2629    -2.9555 F       
  29 H29            4.7413     7.1709     0.4000 H       
  30 H30            5.2902     5.7867    -0.5752 H       
  31 H31            8.1255     5.6202     2.8824 H       
  32 H32            6.5413     7.4572    -0.6358 H       
  33 H33            8.6965     8.5805    -1.0217 H       
  34 H34           10.8964     9.1449    -0.0866 H       
  35 H35           12.0139     5.8169     1.4043 H       
  36 H36           12.7537     6.7691     2.7114 H       
  37 H37           10.6005     7.4806     3.5209 H       
  38 H38           10.4943     5.7229     3.2630 H       
  39 H39            0.0709     1.5922    -2.3337 H       
  40 H40            2.7388     5.9648    -1.0594 H       
  41 H41            1.7382     6.2367     0.4310 H       
  42 H42            3.5125     5.3514     1.8880 H       
  43 H43            3.8202     3.1229     0.8969 H       
  44 H44            4.1648     3.8287    -0.7400 H       
  45 H45           -0.3080     0.9798     1.8783 H       
  46 H46           -2.3732    -0.3059     1.5045 H       
@<TRIPOS>BOND
   1    1   23 ar
   2    1    2 1
   3    1   19 ar
   4    2    4 1
   5    3    4 am
   6    3   20 1
   7    3   22 1
   8    4   17 2
   9    5    6 1
  10    5   21 1
  11    5   29 1
  12    5   30 1
  13    6    7 1
  14    7    8 ar
  15    7    9 ar
  16    8   12 ar
  17    8   31 1
  18    9   10 ar
  19    9   32 1
  20   10   11 ar
  21   10   33 1
  22   11   12 ar
  23   11   13 1
  24   12   16 1
  25   13   14 am
  26   13   34 1
  27   14   15 1
  28   14   18 2
  29   15   16 1
  30   15   35 1
  31   15   36 1
  32   16   37 1
  33   16   38 1
  34   19   26 ar
  35   19   39 1
  36   20   21 1
  37   20   40 1
  38   20   41 1
  39   21   22 1
  40   21   42 1
  41   22   43 1
  42   22   44 1
  43   23   24 ar
  44   23   45 1
  45   24   25 ar
  46   24   46 1
  47   25   26 ar
  48   25   27 1
  49   26   28 1

#	End of record

