#	Name: ASD01885005
#	Creating user name:	WinNT
#	Creation time:	15. 06. 2019 19:49

#	Modifying user name:	WinNT
#	Modification time:	15. 06. 2019 19:49

#	Program:	/corina/corina34_cracker 3.40 0067  02.08.2006

@<TRIPOS>MOLECULE
ASD01885005
  51   54    0    0    0
SMALL
NO_CHARGES


@<TRIPOS>ATOM
   1 C1             1.0490     5.4726     1.5339 C.2     
   2 C2             1.6457     4.1409     1.1577 C.3     
   3 O3             1.7613     6.3582     1.9588 O.2     
   4 C4            -0.3900     5.7000     1.3808 C.ar    
   5 C5            -0.9507     6.9418     1.7309 C.ar    
   6 C6            -2.3115     7.1440     1.5811 C.ar    
   7 C7            -3.1130     6.1240     1.0880 C.ar    
   8 C8            -2.5552     4.8958     0.7428 C.ar    
   9 C9            -1.2141     4.6835     0.8795 C.ar    
  10 O10           -4.4468     6.3244     0.9420 O.3     
  11 C11           -5.2144     5.2336     0.4292 C.3     
  12 C12           -6.6631     5.6384     0.3371 C.ar    
  13 C13           -7.1448     6.2204    -0.8210 C.ar    
  14 C14           -8.4722     6.5927    -0.9079 C.ar    
  15 C15           -9.3225     6.3817     0.1682 C.ar    
  16 C16           -8.8367     5.7971     1.3290 C.ar    
  17 C17           -7.5096     5.4219     1.4088 C.ar    
  18 O18          -10.6286     6.7475     0.0854 O.3     
  19 C19          -11.0856     7.2165    -1.1053 C.ar    
  20 C20          -11.5885     6.3361    -2.0494 C.ar    
  21 C21          -12.0561     6.8214    -3.2694 C.ar    
  22 C22          -12.0149     8.1910    -3.5322 C.ar    
  23 C23          -11.5121     9.0600    -2.5854 C.ar    
  24 C24          -11.0536     8.5783    -1.3732 C.ar    
  25 N25          -13.0806     6.2158    -5.5055 N.pl3   
  26 N26          -13.4672     4.9965    -6.0890 N.2     
  27 N27          -13.2039     4.0714    -5.2309 N.2     
  28 N28          -12.6921     4.5791    -4.1683 N.2     
  29 C29          -12.5944     5.8867    -4.2831 C.2     
  30 C30           -2.9224     8.4703     1.9536 C.3     
  31 O31           -0.1625     7.9346     2.2127 O.3     
  32 H32            1.6385     3.4814     2.0255 H       
  33 H33            1.0583     3.6930     0.3561 H       
  34 H34            2.6718     4.2850     0.8194 H       
  35 H35           -3.1871     4.1080     0.3602 H       
  36 H36           -0.7882     3.7296     0.6053 H       
  37 H37           -4.8483     4.9659    -0.5619 H       
  38 H38           -5.1183     4.3766     1.0958 H       
  39 H39           -6.4826     6.3843    -1.6582 H       
  40 H40           -8.8478     7.0479    -1.8124 H       
  41 H41           -9.4965     5.6318     2.1679 H       
  42 H42           -7.1320     4.9628     2.3104 H       
  43 H43          -11.6177     5.2769    -1.8408 H       
  44 H44          -12.3759     8.5710    -4.4764 H       
  45 H45          -11.4807    10.1199    -2.7901 H       
  46 H46          -10.6655     9.2633    -0.6338 H       
  47 H47          -13.1441     7.1017    -5.8952 H       
  48 H48           -2.9138     9.1306     1.0864 H       
  49 H49           -3.9500     8.3172     2.2834 H       
  50 H50           -2.3455     8.9224     2.7603 H       
  51 H51            0.2004     8.5151     1.5298 H       
@<TRIPOS>BOND
   1    1    2 1
   2    1    3 2
   3    1    4 1
   4    2   32 1
   5    2   33 1
   6    2   34 1
   7    4    5 ar
   8    4    9 ar
   9    5    6 ar
  10    5   31 1
  11    6    7 ar
  12    6   30 1
  13    7    8 ar
  14    7   10 1
  15    8    9 ar
  16    8   35 1
  17    9   36 1
  18   10   11 1
  19   11   12 1
  20   11   37 1
  21   11   38 1
  22   12   13 ar
  23   12   17 ar
  24   13   14 ar
  25   13   39 1
  26   14   15 ar
  27   14   40 1
  28   15   16 ar
  29   15   18 1
  30   16   17 ar
  31   16   41 1
  32   17   42 1
  33   18   19 1
  34   19   20 ar
  35   19   24 ar
  36   20   21 ar
  37   20   43 1
  38   21   22 ar
  39   21   29 1
  40   22   23 ar
  41   22   44 1
  42   23   24 ar
  43   23   45 1
  44   24   46 1
  45   25   26 1
  46   25   29 1
  47   25   47 1
  48   26   27 2
  49   27   28 1
  50   28   29 2
  51   30   48 1
  52   30   49 1
  53   30   50 1
  54   31   51 1

#	End of record

