#	Name: ASD03740205
#	Creating user name:	WinNT
#	Creation time:	15. 06. 2019 20:46

#	Modifying user name:	WinNT
#	Modification time:	15. 06. 2019 20:46

#	Program:	/corina/corina34_cracker 3.40 0067  02.08.2006

@<TRIPOS>MOLECULE
ASD03740205
  27   28    0    0    0
SMALL
NO_CHARGES


@<TRIPOS>ATOM
   1 C1            -0.0178     1.4648     0.0101 C.3     
   2 C2             3.4082     2.5167    -1.1963 C.ar    
   3 N3             0.0021    -0.0041     0.0020 N.3     
   4 C4             3.9948     2.9455    -0.0133 C.ar    
   5 C5             3.2799     2.8930     1.1705 C.ar    
   6 C6             1.9832     2.4143     1.1759 C.ar    
   7 C7             1.3960     1.9864    -0.0006 C.ar    
   8 C8             2.1051     2.0362    -1.1874 C.ar    
   9 C9             6.3321     0.3990    -4.2483 C.ar    
  10 C10            5.5775     1.5004    -3.8940 C.ar    
  11 C11            4.8487     1.4899    -2.7133 C.ar    
  12 C12            4.8800     0.3722    -1.8915 C.ar    
  13 O13            4.1060     2.5722    -2.3622 O.3     
  14 C14            5.6362    -0.7266    -2.2505 C.ar    
  15 C15            6.3615    -0.7135    -3.4276 C.ar    
  16 F16            5.2623     3.4131    -0.0177 F       
  17 F17            1.5305     1.6184    -2.3366 F       
  18 H18           -0.5450     1.8259    -0.8730 H       
  19 H19           -0.5280     1.8163     0.9069 H       
  20 H20           -0.9349    -0.3784     0.0090 H       
  21 H21            3.7357     3.2264     2.0911 H       
  22 H22            1.4277     2.3737     2.1012 H       
  23 H23            6.8960     0.4050    -5.1694 H       
  24 H24            5.5552     2.3692    -4.5352 H       
  25 H25            4.3139     0.3615    -0.9718 H       
  26 H26            5.6612    -1.5966    -1.6111 H       
  27 H27            6.9521    -1.5736    -3.7065 H       
@<TRIPOS>BOND
   1    1    3 1
   2    1    7 1
   3    1   18 1
   4    1   19 1
   5    2    4 ar
   6    2    8 ar
   7    2   13 1
   8    3   20 1
   9    4    5 ar
  10    4   16 1
  11    5    6 ar
  12    5   21 1
  13    6    7 ar
  14    6   22 1
  15    7    8 ar
  16    8   17 1
  17    9   10 ar
  18    9   15 ar
  19    9   23 1
  20   10   11 ar
  21   10   24 1
  22   11   12 ar
  23   11   13 1
  24   12   14 ar
  25   12   25 1
  26   14   15 ar
  27   14   26 1
  28   15   27 1

#	End of record

