#	Name: ASD00172012
#	Creating user name:	WinNT
#	Creation time:	15. 06. 2019 18:33

#	Modifying user name:	WinNT
#	Modification time:	15. 06. 2019 18:33

#	Program:	/corina/corina34_cracker 3.40 0067  02.08.2006

@<TRIPOS>MOLECULE
ASD00172012
  39   41    0    0    0
SMALL
NO_CHARGES


@<TRIPOS>ATOM
   1 C1             0.0183     1.3220    -0.1095 C.2     
   2 C2             0.0314    -0.0143    -0.1374 C.2     
   3 C3            -1.2952    -0.5854     0.0219 C.2     
   4 C4            -2.2777     0.3608     0.1672 C.2     
   5 S5            -1.6157     1.9280     0.1055 S.3     
   6 N6            -3.6186     0.0810     0.3343 N.pl3   
   7 C7            -1.5567    -2.0243     0.0270 C.2     
   8 C8            -1.5647    -2.7702     1.3045 C.ar    
   9 O9            -1.7677    -2.6084    -1.0204 O.2     
  10 C10           -1.2418    -2.1211     2.4969 C.ar    
  11 C11           -1.2512    -2.8226     3.6850 C.ar    
  12 C12           -1.5797    -4.1664     3.6959 C.ar    
  13 C13           -1.9009    -4.8159     2.5169 C.ar    
  14 C14           -1.9009    -4.1249     1.3231 C.ar    
  15 C15            1.2529     2.1920    -0.2515 C.3     
  16 C16            2.4940     1.3289    -0.0093 C.3     
  17 C17            2.3997     0.0657    -0.8702 C.3     
  18 C18            1.2965    -0.8385    -0.3159 C.3     
  19 C19            3.7482     2.1170    -0.3925 C.3     
  20 C20           -2.2570    -6.2801     2.5381 C.3     
  21 F21           -2.1934    -6.7565     3.8519 F       
  22 F22           -3.5538    -6.4518     2.0420 F       
  23 F23           -1.3544    -6.9912     1.7400 F       
  24 H24           -3.9341    -0.8344     0.2753 H       
  25 H25           -4.2458     0.7997     0.5107 H       
  26 H26           -0.9848    -1.0722     2.4898 H       
  27 H27           -1.0011    -2.3216     4.6086 H       
  28 H28           -1.5852    -4.7110     4.6285 H       
  29 H29           -2.1517    -4.6329     0.4037 H       
  30 H30            1.2903     2.6119    -1.2566 H       
  31 H31            1.2189     2.9973     0.4823 H       
  32 H32            2.5445     1.0500     1.0432 H       
  33 H33            2.1624     0.3419    -1.8976 H       
  34 H34            3.3519    -0.4642    -0.8452 H       
  35 H35            1.6066    -1.2450     0.6468 H       
  36 H36            1.1063    -1.6532    -1.0146 H       
  37 H37            3.8099     3.0197     0.2153 H       
  38 H38            4.6310     1.5015    -0.2196 H       
  39 H39            3.6972     2.3912    -1.4462 H       
@<TRIPOS>BOND
   1    1    2 2
   2    1   15 1
   3    1    5 1
   4    2    3 1
   5    2   18 1
   6    3    4 2
   7    3    7 1
   8    4    5 1
   9    4    6 1
  10    6   24 1
  11    6   25 1
  12    7    8 1
  13    7    9 2
  14    8   10 ar
  15    8   14 ar
  16   10   11 ar
  17   10   26 1
  18   11   12 ar
  19   11   27 1
  20   12   13 ar
  21   12   28 1
  22   13   14 ar
  23   13   20 1
  24   14   29 1
  25   15   16 1
  26   15   30 1
  27   15   31 1
  28   16   17 1
  29   16   19 1
  30   16   32 1
  31   17   18 1
  32   17   33 1
  33   17   34 1
  34   18   35 1
  35   18   36 1
  36   19   37 1
  37   19   38 1
  38   19   39 1
  39   20   21 1
  40   20   22 1
  41   20   23 1

#	End of record

