#	Name: ASD01150196
#	Creating user name:	WinNT
#	Creation time:	15. 06. 2019 19:03

#	Modifying user name:	WinNT
#	Modification time:	15. 06. 2019 19:03

#	Program:	/corina/corina34_cracker 3.40 0067  02.08.2006

@<TRIPOS>MOLECULE
ASD01150196
  40   42    0    0    0
SMALL
NO_CHARGES


@<TRIPOS>ATOM
   1 N1            -0.0167     1.3775     0.0096 N.pl3   
   2 C2             0.0021    -0.0041     0.0020 C.2     
   3 C3            -1.3264    -0.4111     0.0125 C.2     
   4 N4            -2.0789     0.6918     0.0256 N.2     
   5 C5            -1.3113     1.7533     0.0299 C.2     
   6 C6             1.0202    -0.9803    -0.0129 C.2     
   7 N7             0.6810    -2.2863    -0.0167 N.am    
   8 C8            -0.6082    -2.6666    -0.0069 C.2     
   9 N9            -1.6101    -1.7672     0.0083 N.am    
  10 O10            2.1921    -0.6482    -0.0227 O.2     
  11 C11           -3.0023    -2.2233     0.0191 C.3     
  12 O12           -0.8764    -3.8526    -0.0115 O.2     
  13 C13            1.7336    -3.3051    -0.0322 C.3     
  14 C14            2.1081    -3.6621     1.3832 C.ar    
  15 C15            1.4471    -4.6861     2.0355 C.ar    
  16 C16            1.7901    -5.0140     3.3336 C.ar    
  17 C17            2.7953    -4.3170     3.9802 C.ar    
  18 C18            3.4564    -3.2922     3.3269 C.ar    
  19 C19            3.1164    -2.9691     2.0268 C.ar    
  20 C20            1.1487     2.2653     0.0033 C.3     
  21 C21           -3.4728    -2.3908     1.4653 C.3     
  22 Cl22           3.2263    -4.7279     5.6109 Cl      
  23 C23           -4.9268    -2.8671     1.4766 C.3     
  24 Br24          -1.9260     3.5415     0.0488 Br      
  25 H25           -3.6295    -1.4875    -0.4841 H       
  26 H26           -3.0756    -3.1790    -0.4998 H       
  27 H27            1.3709    -4.1945    -0.5474 H       
  28 H28            2.6087    -2.9155    -0.5523 H       
  29 H29            0.6623    -5.2299     1.5307 H       
  30 H30            1.2734    -5.8138     3.8432 H       
  31 H31            4.2411    -2.7479     3.8312 H       
  32 H32            3.6324    -2.1691     1.5167 H       
  33 H33            1.4279     2.4909    -1.0259 H       
  34 H34            0.9034     3.1906     0.5244 H       
  35 H35            1.9819     1.7747     0.5065 H       
  36 H36           -2.8456    -3.1265     1.9686 H       
  37 H37           -3.3995    -1.4351     1.9842 H       
  38 H38           -5.5540    -2.1313     0.9733 H       
  39 H39           -5.0001    -3.8228     0.9577 H       
  40 H40           -5.2620    -2.9864     2.5069 H       
@<TRIPOS>BOND
   1    1    2 1
   2    1   20 1
   3    1    5 1
   4    2    3 2
   5    2    6 1
   6    3    4 1
   7    3    9 1
   8    4    5 2
   9    5   24 1
  10    6    7 am
  11    6   10 2
  12    7    8 am
  13    7   13 1
  14    8    9 am
  15    8   12 2
  16    9   11 1
  17   11   21 1
  18   11   25 1
  19   11   26 1
  20   13   14 1
  21   13   27 1
  22   13   28 1
  23   14   15 ar
  24   14   19 ar
  25   15   16 ar
  26   15   29 1
  27   16   17 ar
  28   16   30 1
  29   17   18 ar
  30   17   22 1
  31   18   19 ar
  32   18   31 1
  33   19   32 1
  34   20   33 1
  35   20   34 1
  36   20   35 1
  37   21   23 1
  38   21   36 1
  39   21   37 1
  40   23   38 1
  41   23   39 1
  42   23   40 1

#	End of record

