#	Name: ASD02198887
#	Creating user name:	WinNT
#	Creation time:	15. 06. 2019 20:20

#	Modifying user name:	WinNT
#	Modification time:	15. 06. 2019 20:20

#	Program:	/corina/corina34_cracker 3.40 0067  02.08.2006

@<TRIPOS>MOLECULE
ASD02198887
  60   64    0    0    0
SMALL
NO_CHARGES


@<TRIPOS>ATOM
   1 C1             0.3462     0.3540    -0.0314 C.2     
   2 C2             0.3326    -0.8843     0.5231 C.2     
   3 N3             1.4800    -1.4775     0.9225 N.pl3   
   4 N4             2.6327    -0.9283     0.8096 N.2     
   5 C5             2.7880     0.2704     0.2893 C.2     
   6 C6             1.5976     0.9996    -0.1762 C.2     
   7 C7             1.4053    -2.7549     1.4880 C.ar    
   8 C8             1.9518    -2.9931     2.7485 C.ar    
   9 C9             1.8757    -4.2587     3.3056 C.ar    
  10 C10            1.2561    -5.2866     2.6085 C.ar    
  11 C11            0.7122    -5.0470     1.3526 C.ar    
  12 C12            0.7817    -3.7856     0.7970 C.ar    
  13 C13            4.1317     0.8728     0.1752 C.2     
  14 N14            4.7166     1.3427    -0.9671 N.pl3   
  15 N15            5.9860     1.8274    -0.6281 N.2     
  16 C16            6.1700     1.6628     0.6576 C.2     
  17 C17            5.0292     1.0722     1.2012 C.2     
  18 C18            4.1484     1.3397    -2.2473 C.ar    
  19 C19            3.4673     0.2185    -2.7031 C.ar    
  20 C20            2.9069     0.2155    -3.9660 C.ar    
  21 C21            3.0228     1.3268    -4.7787 C.ar    
  22 C22            3.7029     2.4501    -4.3286 C.ar    
  23 C23            4.2606     2.4593    -3.0600 C.ar    
  24 O24            1.6857     2.1152    -0.6673 O.2     
  25 N25            1.1793    -6.5677     3.1718 N.pl3   
  26 N26            0.9546    -6.8632     4.5225 N.2     
  27 C27            0.9487    -8.1641     4.6649 C.2     
  28 C28            1.1690    -8.7471     3.4131 C.2     
  29 C29            1.3038    -7.7454     2.5038 C.2     
  30 O30            1.5297    -7.8938     1.1734 O.3     
  31 C31            1.5521    -9.2288     0.6642 C.3     
  32 F32            2.5359    -9.9661     1.3318 F       
  33 F33            0.3035    -9.8263     0.8670 F       
  34 O34            2.5584    -1.9852     3.4290 O.3     
  35 C35            3.0956    -2.3019     4.7148 C.3     
  36 O36            3.8164     3.5423    -5.1292 O.3     
  37 C37            3.2117     3.4651    -6.4217 C.3     
  38 F38            1.8376     3.2433    -6.2811 F       
  39 F39            3.4225     4.6660    -7.1077 F       
  40 F40            3.7831     2.4103    -7.1415 F       
  41 C41            7.4077     2.0516     1.4243 C.3     
  42 H42           -0.5674     0.8298    -0.3558 H       
  43 H43           -0.6068    -1.4025     0.6473 H       
  44 H44            2.2985    -4.4458     4.2816 H       
  45 H45            0.2305    -5.8483     0.8119 H       
  46 H46            0.3582    -3.6019    -0.1793 H       
  47 H47            4.8791     0.8121     2.2387 H       
  48 H48            3.3759    -0.6518    -2.0700 H       
  49 H49            2.3776    -0.6574    -4.3187 H       
  50 H50            2.5840     1.3214    -5.7655 H       
  51 H51            4.7897     3.3325    -2.7079 H       
  52 H52            0.7994    -8.6971     5.5922 H       
  53 H53            1.2195    -9.8057     3.2049 H       
  54 H54            1.7755    -9.2070    -0.4025 H       
  55 H55            3.5502    -1.4110     5.1480 H       
  56 H56            2.2959    -2.6550     5.3658 H       
  57 H57            3.8506    -3.0812     4.6112 H       
  58 H58            7.3047     3.0747     1.7860 H       
  59 H59            7.5369     1.3781     2.2715 H       
  60 H60            8.2768     1.9834     0.7701 H       
@<TRIPOS>BOND
   1    1    2 2
   2    1    6 1
   3    1   42 1
   4    2    3 1
   5    2   43 1
   6    3    4 1
   7    3    7 1
   8    4    5 2
   9    5    6 1
  10    5   13 1
  11    6   24 2
  12    7    8 ar
  13    7   12 ar
  14    8    9 ar
  15    8   34 1
  16    9   10 ar
  17    9   44 1
  18   10   11 ar
  19   10   25 1
  20   11   12 ar
  21   11   45 1
  22   12   46 1
  23   13   14 1
  24   13   17 2
  25   14   15 1
  26   14   18 1
  27   15   16 2
  28   16   17 1
  29   16   41 1
  30   17   47 1
  31   18   19 ar
  32   18   23 ar
  33   19   20 ar
  34   19   48 1
  35   20   21 ar
  36   20   49 1
  37   21   22 ar
  38   21   50 1
  39   22   23 ar
  40   22   36 1
  41   23   51 1
  42   25   26 1
  43   25   29 1
  44   26   27 2
  45   27   28 1
  46   27   52 1
  47   28   29 2
  48   28   53 1
  49   29   30 1
  50   30   31 1
  51   31   32 1
  52   31   33 1
  53   31   54 1
  54   34   35 1
  55   35   55 1
  56   35   56 1
  57   35   57 1
  58   36   37 1
  59   37   38 1
  60   37   39 1
  61   37   40 1
  62   41   58 1
  63   41   59 1
  64   41   60 1

#	End of record

