#	Name: ASD04230153
#	Creating user name:	WinNT
#	Creation time:	15. 06. 2019 20:48

#	Modifying user name:	WinNT
#	Modification time:	15. 06. 2019 20:48

#	Program:	/corina/corina34_cracker 3.40 0067  02.08.2006

@<TRIPOS>MOLECULE
ASD04230153
  55   59    0    0    0
SMALL
NO_CHARGES


@<TRIPOS>ATOM
   1 C1             1.5360     4.6863     1.7198 C.ar    
   2 C2             2.5439     5.3841     2.3695 C.ar    
   3 C3             3.8005     4.8590     2.4681 C.ar    
   4 C4             4.0825     3.6081     1.9003 C.ar    
   5 C5             3.0564     2.8818     1.2692 C.ar    
   6 C6             1.7832     3.4397     1.1726 C.ar    
   7 C7             5.3934     3.0678     1.9619 C.2     
   8 C8             5.6628     1.9284     1.2154 C.2     
   9 C9             4.5671     1.3877     0.3903 C.2     
  10 O10            3.2979     1.6422     0.7793 O.3     
  11 C11            6.9879     1.2871     1.2462 C.2     
  12 N12            7.2188     0.1818     0.5104 N.am    
  13 O13            7.8740     1.7549     1.9357 O.2     
  14 C14            8.5059    -0.3623     0.4509 C.ar    
  15 C15            8.6754    -1.7389     0.3687 C.ar    
  16 C16            9.9458    -2.2799     0.3092 C.ar    
  17 C17           11.0531    -1.4557     0.3316 C.ar    
  18 C18           10.8923    -0.0738     0.4139 C.ar    
  19 C19            9.6136     0.4725     0.4681 C.ar    
  20 C20           12.0824     0.8138     0.4385 C.2     
  21 O21            4.7981     0.7334    -0.6092 O.2     
  22 C22           13.3863     0.4155     0.3873 C.2     
  23 N23           14.1533     1.5234     0.4337 N.pl3   
  24 N24           13.3088     2.6371     0.5157 N.2     
  25 C25           12.0704     2.2202     0.5128 C.2     
  26 C26           15.6177     1.5561     0.4043 C.3     
  27 C27           16.0777     2.4466    -0.7210 C.ar    
  28 C28           16.2826     3.7951    -0.4958 C.ar    
  29 C29           16.7045     4.6119    -1.5281 C.ar    
  30 C30           16.9220     4.0803    -2.7855 C.ar    
  31 C31           16.7180     2.7317    -3.0104 C.ar    
  32 C32           16.3003     1.9140    -1.9771 C.ar    
  33 O33            0.7869     2.7610     0.5436 O.3     
  34 C34           -0.4923     3.3951     0.4831 C.3     
  35 H35            0.5488     5.1178     1.6444 H       
  36 H36            2.3328     6.3514     2.8008 H       
  37 H37            4.5764     5.4066     2.9824 H       
  38 H38            6.1576     3.5287     2.5701 H       
  39 H39            6.4924    -0.2364     0.0222 H       
  40 H40            7.8122    -2.3879     0.3516 H       
  41 H41           10.0727    -3.3505     0.2454 H       
  42 H42           12.0443    -1.8820     0.2857 H       
  43 H43            9.4841     1.5428     0.5316 H       
  44 H44           13.7401    -0.6028     0.3218 H       
  45 H45           11.1909     2.8448     0.5661 H       
  46 H46           15.9915     1.9451     1.3514 H       
  47 H47           16.0006     0.5475     0.2492 H       
  48 H48           16.1126     4.2104     0.4865 H       
  49 H49           16.8639     5.6655    -1.3524 H       
  50 H50           17.2510     4.7186    -3.5921 H       
  51 H51           16.8877     2.3164    -3.9929 H       
  52 H52           16.1409     0.8604    -2.1529 H       
  53 H53           -0.8555     3.5777     1.4944 H       
  54 H54           -0.4032     4.3429    -0.0477 H       
  55 H55           -1.1939     2.7482    -0.0437 H       
@<TRIPOS>BOND
   1    1    2 ar
   2    1    6 ar
   3    1   35 1
   4    2    3 ar
   5    2   36 1
   6    3    4 ar
   7    3   37 1
   8    4    5 ar
   9    4    7 1
  10    5    6 ar
  11    5   10 1
  12    6   33 1
  13    7    8 2
  14    7   38 1
  15    8    9 1
  16    8   11 1
  17    9   10 1
  18    9   21 2
  19   11   12 am
  20   11   13 2
  21   12   14 1
  22   12   39 1
  23   14   15 ar
  24   14   19 ar
  25   15   16 ar
  26   15   40 1
  27   16   17 ar
  28   16   41 1
  29   17   18 ar
  30   17   42 1
  31   18   19 ar
  32   18   20 1
  33   19   43 1
  34   20   22 2
  35   20   25 1
  36   22   23 1
  37   22   44 1
  38   23   24 1
  39   23   26 1
  40   24   25 2
  41   25   45 1
  42   26   27 1
  43   26   46 1
  44   26   47 1
  45   27   28 ar
  46   27   32 ar
  47   28   29 ar
  48   28   48 1
  49   29   30 ar
  50   29   49 1
  51   30   31 ar
  52   30   50 1
  53   31   32 ar
  54   31   51 1
  55   32   52 1
  56   33   34 1
  57   34   53 1
  58   34   54 1
  59   34   55 1

#	End of record

