#	Name: ASD06020092
#	Creating user name:	WinNT
#	Creation time:	15. 06. 2019 21:04

#	Modifying user name:	WinNT
#	Modification time:	15. 06. 2019 21:04

#	Program:	/corina/corina34_cracker 3.40 0067  02.08.2006

@<TRIPOS>MOLECULE
ASD06020092
  35   38    0    0    0
SMALL
NO_CHARGES


@<TRIPOS>ATOM
   1 C1            -0.0171     1.3857     0.0170 C.ar    
   2 C2             1.1779     2.0967     0.0080 C.ar    
   3 N3             0.0004     0.0589     0.0293 N.ar    
   4 N4             2.3304     1.4514     0.0115 N.ar    
   5 C5             2.3479     0.1244     0.0237 C.ar    
   6 C6             1.1530    -0.5865     0.0328 C.ar    
   7 N7            -1.2337     2.0670     0.0191 N.pl3   
   8 N8             3.5635    -0.5562     0.0270 N.pl3   
   9 C9            -2.4273     1.3596    -0.0841 C.ar    
  10 C10           -3.6478     2.0336     0.0309 C.ar    
  11 C11           -4.8449     1.3163    -0.0744 C.ar    
  12 C12           -4.7423    -0.0809    -0.2957 C.ar    
  13 C13           -3.5148    -0.6557    -0.3948 C.ar    
  14 N14           -2.4022     0.0550    -0.2958 N.ar    
  15 S15           -4.0392     3.7283     0.3006 S.3     
  16 C16           -5.7562     3.3494     0.2521 C.2     
  17 N17           -5.9286     2.0831     0.0536 N.2     
  18 C18           -6.8449     4.3357     0.4157 C.ar    
  19 C19           -8.1785     3.9246     0.3595 C.ar    
  20 C20           -9.1904     4.8516     0.5137 C.ar    
  21 C21           -8.8858     6.1845     0.7234 C.ar    
  22 C22           -7.5673     6.5991     0.7797 C.ar    
  23 C23           -6.5449     5.6823     0.6330 C.ar    
  24 Cl24          -4.8909     6.2036     0.7113 Cl      
  25 Cl25          -8.5631     2.2523     0.0960 Cl      
  26 H26            1.1636     3.1766    -0.0023 H       
  27 H27            1.1672    -1.6664     0.0431 H       
  28 H28           -1.2479     3.0341     0.0925 H       
  29 H29            4.3971    -0.0603     0.0204 H       
  30 H30            3.5763    -1.5261     0.0359 H       
  31 H31           -5.6338    -0.6840    -0.3846 H       
  32 H32           -3.4451    -1.7201    -0.5634 H       
  33 H33          -10.2221     4.5352     0.4702 H       
  34 H34           -9.6813     6.9051     0.8433 H       
  35 H35           -7.3368     7.6414     0.9434 H       
@<TRIPOS>BOND
   1    1    2 ar
   2    1    3 ar
   3    1    7 1
   4    2    4 ar
   5    2   26 1
   6    3    6 ar
   7    4    5 ar
   8    5    6 ar
   9    5    8 1
  10    6   27 1
  11    7    9 1
  12    7   28 1
  13    8   29 1
  14    8   30 1
  15    9   10 ar
  16    9   14 ar
  17   10   11 ar
  18   10   15 1
  19   11   12 ar
  20   11   17 1
  21   12   13 ar
  22   12   31 1
  23   13   14 ar
  24   13   32 1
  25   15   16 1
  26   16   17 2
  27   16   18 1
  28   18   19 ar
  29   18   23 ar
  30   19   20 ar
  31   19   25 1
  32   20   21 ar
  33   20   33 1
  34   21   22 ar
  35   21   34 1
  36   22   23 ar
  37   22   35 1
  38   23   24 1

#	End of record

