#	Name: ASD09800028
#	Creating user name:	WinNT
#	Creation time:	15. 06. 2019 21:24

#	Modifying user name:	WinNT
#	Modification time:	15. 06. 2019 21:24

#	Program:	/corina/corina34_cracker 3.40 0067  02.08.2006

@<TRIPOS>MOLECULE
ASD09800028
  61   66    0    0    0
SMALL
NO_CHARGES


@<TRIPOS>ATOM
   1 C1            -3.2487     1.2243     2.8785 C.2     
   2 N2            -4.3339     0.5677     3.2462 N.2     
   3 C3            -5.0447    -0.1492     2.3661 C.2     
   4 C4            -4.6866    -0.2332     1.0719 C.2     
   5 C5            -2.8322     1.1755     1.5328 C.2     
   6 C6            -1.7751     1.7262     0.8164 C.2     
   7 N7            -3.5643     0.4296     0.6278 N.pl3   
   8 C8            -2.9611     0.5508    -0.5684 C.2     
   9 N9            -1.9068     1.3178    -0.4564 N.2     
  10 C10           -0.7093     2.5965     1.3535 C.ar    
  11 C11            0.1505     4.8203     1.8970 C.ar    
  12 C12            1.3347     4.2223     2.3796 C.ar    
  13 C13            1.4774     2.8509     2.3386 C.ar    
  14 C14            0.4686     2.0434     1.8313 C.ar    
  15 C15           -0.8817     4.0029     1.3785 C.ar    
  16 C16           -2.0565     4.5985     0.8983 C.ar    
  17 C17           -2.1904     5.9539     0.9363 C.ar    
  18 C18           -1.1751     6.7592     1.4464 C.ar    
  19 C19           -0.0208     6.2137     1.9207 C.ar    
  20 N20            2.3610     5.0175     2.8937 N.am    
  21 C21            3.6258     4.5526     2.9184 C.2     
  22 N22            4.5976     5.2742     3.5111 N.am    
  23 O23            3.8902     3.4821     2.4058 O.2     
  24 C24            5.8891     4.7479     3.6252 C.ar    
  25 C25            7.6846     3.4369     2.7268 C.ar    
  26 C26            6.4091     3.9545     2.6114 C.ar    
  27 C27            6.6558     5.0229     4.7503 C.ar    
  28 C28            7.9301     4.5024     4.8597 C.ar    
  29 C29            8.4433     3.7081     3.8504 C.ar    
  30 C30            8.7628     4.8007     6.0798 C.3     
  31 F31            8.5320     3.8220     7.0525 F       
  32 F32           10.1177     4.8012     5.7310 F       
  33 F33            8.4118     6.0557     6.5885 F       
  34 N34           -2.5292     1.9592     3.8060 N.pl3   
  35 C35           -3.4270    -0.1017    -1.8444 C.3     
  36 C36           -4.8406     0.2254    -2.3299 C.3     
  37 C37           -3.6275     0.7980    -3.0656 C.3     
  38 C38           -2.9066    -1.5196    -2.0887 C.3     
  39 H39           -5.9268    -0.6731     2.7036 H       
  40 H40           -5.2775    -0.8190     0.3835 H       
  41 H41            2.3857     2.3988     2.7088 H       
  42 H42            0.6029     0.9720     1.8090 H       
  43 H43           -2.8515     3.9857     0.4997 H       
  44 H44           -3.0963     6.4100     0.5653 H       
  45 H45           -1.3048     7.8312     1.4660 H       
  46 H46            0.7584     6.8497     2.3139 H       
  47 H47            2.1636     5.9044     3.2331 H       
  48 H48            4.4017     6.1584     3.8586 H       
  49 H49            8.0895     2.8193     1.9387 H       
  50 H50            5.8169     3.7419     1.7336 H       
  51 H51            6.2558     5.6434     5.5386 H       
  52 H52            9.4402     3.3023     3.9383 H       
  53 H53           -2.7679     1.9213     4.7454 H       
  54 H54           -1.7866     2.5119     3.5162 H       
  55 H55           -5.3997    -0.5694    -2.8236 H       
  56 H56           -5.4336     0.9125    -1.7263 H       
  57 H57           -3.4224     1.8618    -2.9461 H       
  58 H58           -3.3884     0.3799    -4.0434 H       
  59 H59           -3.1905    -2.1598    -1.2535 H       
  60 H60           -3.3380    -1.9113    -3.0099 H       
  61 H61           -1.8204    -1.4977    -2.1769 H       
@<TRIPOS>BOND
   1    1    2 2
   2    1   34 1
   3    1    5 1
   4    2    3 1
   5    3    4 2
   6    3   39 1
   7    4    7 1
   8    4   40 1
   9    5    7 1
  10    5    6 2
  11    6    9 1
  12    6   10 1
  13    7    8 1
  14    8    9 2
  15    8   35 1
  16   10   15 ar
  17   10   14 ar
  18   11   12 ar
  19   11   15 ar
  20   11   19 ar
  21   12   13 ar
  22   12   20 1
  23   13   14 ar
  24   13   41 1
  25   14   42 1
  26   15   16 ar
  27   16   17 ar
  28   16   43 1
  29   17   18 ar
  30   17   44 1
  31   18   19 ar
  32   18   45 1
  33   19   46 1
  34   20   21 am
  35   20   47 1
  36   21   22 am
  37   21   23 2
  38   22   24 1
  39   22   48 1
  40   24   27 ar
  41   24   26 ar
  42   25   26 ar
  43   25   29 ar
  44   25   49 1
  45   26   50 1
  46   27   28 ar
  47   27   51 1
  48   28   29 ar
  49   28   30 1
  50   29   52 1
  51   30   31 1
  52   30   32 1
  53   30   33 1
  54   34   53 1
  55   34   54 1
  56   35   36 1
  57   35   37 1
  58   35   38 1
  59   36   37 1
  60   36   55 1
  61   36   56 1
  62   37   57 1
  63   37   58 1
  64   38   59 1
  65   38   60 1
  66   38   61 1

#	End of record

