#	Name: ASD05430110
#	Creating user name:	WinNT
#	Creation time:	15. 06. 2019 20:59

#	Modifying user name:	WinNT
#	Modification time:	15. 06. 2019 20:59

#	Program:	/corina/corina34_cracker 3.40 0067  02.08.2006

@<TRIPOS>MOLECULE
ASD05430110
  65   71    0    0    0
SMALL
NO_CHARGES


@<TRIPOS>ATOM
   1 F1             7.5450     7.0371    -3.9268 F       
   2 C2             0.1926     1.1556    -1.0597 C.ar    
   3 C3             0.0197    -0.0135    -0.3173 C.ar    
   4 C4             1.0315    -0.4699     0.5173 C.ar    
   5 C5             2.2130     0.2303     0.6167 C.ar    
   6 C6             2.3922     1.4016    -0.1241 C.ar    
   7 C7             1.3671     1.8600    -0.9669 C.ar    
   8 C8             4.8879    -0.0083    -0.0837 C.3     
   9 C9             4.8254     1.4947     0.0667 C.2     
  10 C10            3.6531     2.1536    -0.0208 C.2     
  11 C11            6.3091    -0.4437    -0.4458 C.3     
  12 C12            7.0877     0.6017    -1.2506 C.3     
  13 N13            7.1891     1.8306    -0.4619 N.pl3   
  14 C14            6.0840     2.2153     0.3119 C.2     
  15 C15            8.1618     3.8432    -1.4041 C.ar    
  16 C16            9.1807     4.2763    -2.2320 C.ar    
  17 C17            8.9748     5.3483    -3.0795 C.ar    
  18 C18            7.7473     5.9887    -3.0991 C.ar    
  19 C19            6.7275     5.5541    -2.2695 C.ar    
  20 C20            6.9358     4.4818    -1.4229 C.ar    
  21 N21           -1.1805    -0.7298    -0.4141 N.pl3   
  22 C22           -1.3105    -2.0751    -0.6447 C.2     
  23 C23           -2.6302    -2.3423    -0.6608 C.2     
  24 N24           -3.2924    -1.1957    -0.4464 N.2     
  25 C25           -2.4352    -0.2237    -0.2913 C.2     
  26 C26           -3.2552    -3.6957    -0.8814 C.3     
  27 C27            8.3857     2.6701    -0.4850 C.3     
  28 C28            8.6628     3.1760     0.9352 C.3     
  29 N29            7.4290     3.7140     1.5122 N.pl3   
  30 N30            6.1888     3.1365     1.2159 N.2     
  31 C31            7.0951    -0.9723     0.7578 C.3     
  32 S32            7.9878    -2.1166    -0.3308 S.o2    
  33 C33            6.3601    -1.8370    -1.0811 C.3     
  34 O34            9.0395    -1.4853    -1.0481 O.2     
  35 O35            8.1196    -3.4166     0.2278 O.2     
  36 C36            0.9042     2.9076    -1.9439 C.3     
  37 C37           -0.3965     2.1237    -2.0512 C.3     
  38 H38            0.8913    -1.3751     1.0894 H       
  39 H39            2.9994    -0.1249     1.2662 H       
  40 H40            4.5945    -0.4778     0.8552 H       
  41 H41            4.2025    -0.3214    -0.8713 H       
  42 H42            3.6389     3.2335    -0.0150 H       
  43 H43            8.0868     0.2244    -1.4684 H       
  44 H44            6.5631     0.8090    -2.1832 H       
  45 H45           10.1382     3.7768    -2.2163 H       
  46 H46            9.7710     5.6867    -3.7259 H       
  47 H47            5.7697     6.0528    -2.2840 H       
  48 H48            6.1405     4.1426    -0.7757 H       
  49 H49           -0.5084    -2.7842    -0.7868 H       
  50 H50           -2.6822     0.8109    -0.1041 H       
  51 H51           -3.3826    -4.1978     0.0776 H       
  52 H52           -4.2271    -3.5735    -1.3595 H       
  53 H53           -2.6079    -4.2947    -1.5220 H       
  54 H54            9.2355     2.0852    -0.8367 H       
  55 H55            9.0222     2.3514     1.5508 H       
  56 H56            9.4194     3.9598     0.9004 H       
  57 H57            7.4717     4.4791     2.1069 H       
  58 H58            7.7411    -0.2206     1.2112 H       
  59 H59            6.4672    -1.4797     1.4902 H       
  60 H60            5.5916    -2.5098    -0.7005 H       
  61 H61            6.3894    -1.8104    -2.1704 H       
  62 H62            0.7863     3.8963    -1.5005 H       
  63 H63            1.4778     2.9240    -2.8706 H       
  64 H64           -0.5664     1.6931    -3.0380 H       
  65 H65           -1.2634     2.6623    -1.6686 H       
@<TRIPOS>BOND
   1    1   18 1
   2    2    3 ar
   3    2    7 ar
   4    2   37 1
   5    3    4 ar
   6    3   21 1
   7    4    5 ar
   8    4   38 1
   9    5    6 ar
  10    5   39 1
  11    6    7 ar
  12    6   10 1
  13    7   36 1
  14    8    9 1
  15    8   11 1
  16    8   40 1
  17    8   41 1
  18    9   10 2
  19    9   14 1
  20   10   42 1
  21   11   12 1
  22   11   31 1
  23   11   33 1
  24   12   13 1
  25   12   43 1
  26   12   44 1
  27   13   14 1
  28   13   27 1
  29   14   30 2
  30   15   16 ar
  31   15   20 ar
  32   15   27 1
  33   16   17 ar
  34   16   45 1
  35   17   18 ar
  36   17   46 1
  37   18   19 ar
  38   19   20 ar
  39   19   47 1
  40   20   48 1
  41   21   22 1
  42   21   25 1
  43   22   23 2
  44   22   49 1
  45   23   24 1
  46   23   26 1
  47   24   25 2
  48   25   50 1
  49   26   51 1
  50   26   52 1
  51   26   53 1
  52   27   28 1
  53   27   54 1
  54   28   29 1
  55   28   55 1
  56   28   56 1
  57   29   30 1
  58   29   57 1
  59   31   32 1
  60   31   58 1
  61   31   59 1
  62   32   33 1
  63   32   34 2
  64   32   35 2
  65   33   60 1
  66   33   61 1
  67   36   37 1
  68   36   62 1
  69   36   63 1
  70   37   64 1
  71   37   65 1

#	End of record

