#	Name: ASD01883401
#	Creating user name:	WinNT
#	Creation time:	15. 06. 2019 19:46

#	Modifying user name:	WinNT
#	Modification time:	15. 06. 2019 19:46

#	Program:	/corina/corina34_cracker 3.40 0067  02.08.2006

@<TRIPOS>MOLECULE
ASD01883401
  53   56    0    0    0
SMALL
NO_CHARGES


@<TRIPOS>ATOM
   1 N1             0.0021     1.3082    -0.0152 N.am    
   2 C2            -0.7518     1.3829     1.0973 C.2     
   3 C3            -1.9997     0.7182     1.1499 C.2     
   4 C4            -2.4239    -0.0108     0.0261 C.2     
   5 C5            -1.5912    -0.0513    -1.1076 C.2     
   6 C6            -0.4117     0.6073    -1.1028 C.2     
   7 O7            -0.3596     2.0222     2.0588 O.2     
   8 C8            -2.8143     0.7866     2.3257 C.1     
   9 N9            -3.4606     0.8409     3.2584 N.1     
  10 C10            1.2919     2.0017    -0.0562 C.3     
  11 N11           -3.6309    -0.6732     0.0341 N.pl3   
  12 C12            2.3744     1.0790     0.4414 C.ar    
  13 C13           -4.8964     0.0654     0.1606 C.3     
  14 C14           -5.8354    -0.3813    -0.9650 C.3     
  15 N15           -5.9647    -1.8444    -0.9388 N.3     
  16 C16           -4.6754    -2.4981    -1.1997 C.3     
  17 C17           -3.6892    -2.1376    -0.0898 C.3     
  18 C18           -6.9877    -2.2996    -1.8897 C.3     
  19 C19            3.0473     0.2612    -0.4472 C.ar    
  20 C20            4.0406    -0.5851     0.0080 C.ar    
  21 C21            4.3616    -0.6137     1.3545 C.ar    
  22 C22            3.6870     0.2057     2.2435 C.ar    
  23 C23            2.6977     1.0550     1.7853 C.ar    
  24 F24            5.3321    -1.4410     1.8006 F       
  25 C25           -6.9236    -3.7998    -2.0165 C.ar    
  26 C26           -7.6792    -4.5967    -1.1778 C.ar    
  27 C27           -7.6201    -5.9753    -1.2945 C.ar    
  28 C28           -6.8039    -6.5535    -2.2516 C.ar    
  29 C29           -6.0490    -5.7544    -3.0894 C.ar    
  30 C30           -6.1131    -4.3783    -2.9757 C.ar    
  31 F31           -8.3581    -6.7554    -0.4748 F       
  32 H32           -1.8967    -0.6057    -1.9826 H       
  33 H33            0.2190     0.5690    -1.9787 H       
  34 H34            1.5116     2.3000    -1.0814 H       
  35 H35            1.2488     2.8869     0.5784 H       
  36 H36           -5.3527    -0.1526     1.1262 H       
  37 H37           -4.7061     1.1353     0.0757 H       
  38 H38           -6.8159     0.0731    -0.8226 H       
  39 H39           -5.4256    -0.0696    -1.9257 H       
  40 H40           -4.8145    -3.5788    -1.2275 H       
  41 H41           -4.2817    -2.1568    -2.1571 H       
  42 H42           -2.7011    -2.5253    -0.3378 H       
  43 H43           -4.0273    -2.5657     0.8538 H       
  44 H44           -7.9742    -2.0072    -1.5297 H       
  45 H45           -6.8067    -1.8446    -2.8635 H       
  46 H46            2.7965     0.2834    -1.4974 H       
  47 H47            4.5659    -1.2241    -0.6864 H       
  48 H48            3.9365     0.1842     3.2941 H       
  49 H49            2.1713     1.6943     2.4786 H       
  50 H50           -8.3154    -4.1446    -0.4313 H       
  51 H51           -6.7567    -7.6286    -2.3433 H       
  52 H52           -5.4121    -6.2052    -3.8361 H       
  53 H53           -5.5231    -3.7546    -3.6310 H       
@<TRIPOS>BOND
   1    1    2 am
   2    1   10 1
   3    1    6 1
   4    2    3 1
   5    2    7 2
   6    3    4 2
   7    3    8 1
   8    4    5 1
   9    4   11 1
  10    5    6 2
  11    5   32 1
  12    6   33 1
  13    8    9 3
  14   10   12 1
  15   10   34 1
  16   10   35 1
  17   11   13 1
  18   11   17 1
  19   12   19 ar
  20   12   23 ar
  21   13   14 1
  22   13   36 1
  23   13   37 1
  24   14   15 1
  25   14   38 1
  26   14   39 1
  27   15   16 1
  28   15   18 1
  29   16   17 1
  30   16   40 1
  31   16   41 1
  32   17   42 1
  33   17   43 1
  34   18   25 1
  35   18   44 1
  36   18   45 1
  37   19   20 ar
  38   19   46 1
  39   20   21 ar
  40   20   47 1
  41   21   22 ar
  42   21   24 1
  43   22   23 ar
  44   22   48 1
  45   23   49 1
  46   25   26 ar
  47   25   30 ar
  48   26   27 ar
  49   26   50 1
  50   27   28 ar
  51   27   31 1
  52   28   29 ar
  53   28   51 1
  54   29   30 ar
  55   29   52 1
  56   30   53 1

#	End of record

