#	Name: ASD05430344
#	Creating user name:	WinNT
#	Creation time:	15. 06. 2019 21:00

#	Modifying user name:	WinNT
#	Modification time:	15. 06. 2019 21:00

#	Program:	/corina/corina34_cracker 3.40 0067  02.08.2006

@<TRIPOS>MOLECULE
ASD05430344
  58   62    0    0    0
SMALL
NO_CHARGES


@<TRIPOS>ATOM
   1 C1            -0.1741     1.2041     0.9726 C.ar    
   2 C2            -0.0149    -0.0173     0.3184 C.ar    
   3 C3            -1.0613    -0.5550    -0.4203 C.ar    
   4 C4            -2.2613     0.1156    -0.5102 C.ar    
   5 C5            -2.4283     1.3412     0.1433 C.ar    
   6 C6            -1.3768     1.8797     0.8916 C.ar    
   7 C7            -4.8623     1.3696    -0.0459 C.2     
   8 C8            -3.7094     2.0591     0.0485 C.2     
   9 N9            -7.3473     1.3611     0.0108 N.am    
  10 C10           -6.1661     2.0254    -0.3204 C.2     
  11 C11           -9.3144     2.5657     0.8143 C.ar    
  12 C12          -10.4355     3.3596     0.6591 C.ar    
  13 C13           -8.9643     2.0995     2.0678 C.ar    
  14 C14           -9.7352     2.4263     3.1673 C.ar    
  15 C15          -10.8582     3.2214     3.0131 C.ar    
  16 C16          -11.2075     3.6882     1.7572 C.ar    
  17 F17          -11.6127     3.5412     4.0872 F       
  18 O18            0.8522     1.7273     1.6946 O.3     
  19 C19            0.6192     2.9817     2.3384 C.3     
  20 C20            1.3737    -2.0232     0.7355 C.2     
  21 N21            1.2034    -0.7033     0.4060 N.pl3   
  22 C22            2.6977    -2.2664     0.7000 C.2     
  23 N23            3.3233    -1.1301     0.3588 N.2     
  24 C24            2.4393    -0.1866     0.1800 C.2     
  25 C25            3.3617    -3.5871     0.9930 C.3     
  26 C26           -8.4768     2.2030    -0.3849 C.3     
  27 C27           -7.7992     3.4574    -0.9741 C.3     
  28 N28           -6.3600     3.1819    -0.8574 N.2     
  29 C29           -9.3269     1.5009    -1.4456 C.3     
  30 C30           -4.9282    -0.1400     0.1140 C.3     
  31 C31           -6.0782    -0.4889     1.0612 C.3     
  32 C32           -7.3660     0.1495     0.6071 C.2     
  33 O33           -8.4196    -0.4272     0.7733 O.2     
  34 H34           -0.9337    -1.5009    -0.9257 H       
  35 H35           -3.0730    -0.3046    -1.0855 H       
  36 H36           -1.5015     2.8256     1.3977 H       
  37 H37           -3.7250     3.1390     0.0546 H       
  38 H38          -10.7078     3.7235    -0.3206 H       
  39 H39           -8.0884     1.4793     2.1878 H       
  40 H40           -9.4619     2.0614     4.1463 H       
  41 H41          -12.0831     4.3087     1.6358 H       
  42 H42            0.3744     3.7346     1.5893 H       
  43 H43           -0.2105     2.8822     3.0383 H       
  44 H44            1.5160     3.2849     2.8787 H       
  45 H45            0.5956    -2.7308     0.9810 H       
  46 H46            2.6543     0.8339    -0.1009 H       
  47 H47            3.4480    -4.1628     0.0715 H       
  48 H48            4.3551    -3.4107     1.4055 H       
  49 H49            2.7624    -4.1431     1.7140 H       
  50 H50           -8.0791     3.5861    -2.0197 H       
  51 H51           -8.0660     4.3419    -0.3956 H       
  52 H52           -9.7098     0.5635    -1.0424 H       
  53 H53          -10.1615     2.1435    -1.7262 H       
  54 H54           -8.7152     1.2956    -2.3241 H       
  55 H55           -5.1024    -0.6027    -0.8574 H       
  56 H56           -3.9891    -0.5043     0.5304 H       
  57 H57           -6.2048    -1.5712     1.0869 H       
  58 H58           -5.8367    -0.1339     2.0631 H       
@<TRIPOS>BOND
   1    1    2 ar
   2    1   18 1
   3    1    6 ar
   4    2    3 ar
   5    2   21 1
   6    3    4 ar
   7    3   34 1
   8    4    5 ar
   9    4   35 1
  10    5    6 ar
  11    5    8 1
  12    6   36 1
  13    7    8 2
  14    7   30 1
  15    7   10 1
  16    8   37 1
  17    9   10 1
  18    9   26 1
  19    9   32 am
  20   10   28 2
  21   11   12 ar
  22   11   13 ar
  23   11   26 1
  24   12   16 ar
  25   12   38 1
  26   13   14 ar
  27   13   39 1
  28   14   15 ar
  29   14   40 1
  30   15   16 ar
  31   15   17 1
  32   16   41 1
  33   18   19 1
  34   19   42 1
  35   19   43 1
  36   19   44 1
  37   20   21 1
  38   20   22 2
  39   20   45 1
  40   21   24 1
  41   22   23 1
  42   22   25 1
  43   23   24 2
  44   24   46 1
  45   25   47 1
  46   25   48 1
  47   25   49 1
  48   26   27 1
  49   26   29 1
  50   27   28 1
  51   27   50 1
  52   27   51 1
  53   29   52 1
  54   29   53 1
  55   29   54 1
  56   30   31 1
  57   30   55 1
  58   30   56 1
  59   31   32 1
  60   31   57 1
  61   31   58 1
  62   32   33 2

#	End of record

