#	Name: ASD01912819
#	Creating user name:	WinNT
#	Creation time:	15. 06. 2019 20:00

#	Modifying user name:	WinNT
#	Modification time:	15. 06. 2019 20:00

#	Program:	/corina/corina34_cracker 3.40 0067  02.08.2006

@<TRIPOS>MOLECULE
ASD01912819
  41   44    0    0    0
SMALL
NO_CHARGES


@<TRIPOS>ATOM
   1 C1            -0.0189     1.3591     0.1441 C.2     
   2 N2             0.0023    -0.0034    -0.0078 N.pl3   
   3 C3            -1.1996    -0.6833    -0.1381 C.2     
   4 C4            -2.3604    -0.0413    -0.1182 C.2     
   5 N5            -2.4358     1.3308     0.0325 N.am    
   6 C6            -1.3047     2.0581     0.1702 C.2     
   7 C7             1.2971     1.7691     0.2492 C.2     
   8 C8             2.0521     0.6014     0.1521 C.2     
   9 N9             1.2242    -0.4052     0.0019 N.2     
  10 O10           -1.3539     3.2675     0.3042 O.2     
  11 C11           -3.6793     1.9642     0.0473 C.ar    
  12 C12            3.5553     0.5111     0.2094 C.3     
  13 O13            4.1049     1.8190     0.3809 O.3     
  14 C14            5.4591     1.9150     0.4524 C.ar    
  15 C15            6.0594     3.1543     0.6185 C.ar    
  16 C16            7.4356     3.2504     0.6910 C.ar    
  17 C17            8.2157     2.1103     0.5975 C.ar    
  18 C18            7.6178     0.8725     0.4318 C.ar    
  19 C19            6.2414     0.7729     0.3651 C.ar    
  20 N20           -4.3038     2.1756     1.1962 N.ar    
  21 C21           -4.2678     2.3831    -1.1503 C.ar    
  22 N22           -5.4469     2.9835    -1.1283 N.ar    
  23 C23           -6.0653     3.1857     0.0244 C.ar    
  24 C24           -5.4823     2.7767     1.2073 C.ar    
  25 F25            9.5615     2.2057     0.6677 F       
  26 O26           -3.6316     2.1751    -2.3309 O.3     
  27 C27           -4.2930     2.6298    -3.5132 C.3     
  28 H28           -1.1902    -1.7565    -0.2585 H       
  29 H29           -3.2739    -0.6077    -0.2231 H       
  30 H30            1.6618     2.7774     0.3784 H       
  31 H31            3.8497    -0.1195     1.0483 H       
  32 H32            3.9290     0.0788    -0.7188 H       
  33 H33            5.4512     4.0439     0.6907 H       
  34 H34            7.9033     4.2152     0.8203 H       
  35 H35            8.2274    -0.0159     0.3587 H       
  36 H36            5.7753    -0.1927     0.2362 H       
  37 H37           -7.0276     3.6758     0.0400 H       
  38 H38           -5.9921     2.9442     2.1446 H       
  39 H39           -3.6782     2.4020    -4.3839 H       
  40 H40           -5.2559     2.1275    -3.6068 H       
  41 H41           -4.4496     3.7067    -3.4506 H       
@<TRIPOS>BOND
   1    1    2 1
   2    1    7 2
   3    1    6 1
   4    2    3 1
   5    2    9 1
   6    3    4 2
   7    3   28 1
   8    4    5 1
   9    4   29 1
  10    5    6 am
  11    5   11 1
  12    6   10 2
  13    7    8 1
  14    7   30 1
  15    8    9 2
  16    8   12 1
  17   11   21 ar
  18   11   20 ar
  19   12   13 1
  20   12   31 1
  21   12   32 1
  22   13   14 1
  23   14   15 ar
  24   14   19 ar
  25   15   16 ar
  26   15   33 1
  27   16   17 ar
  28   16   34 1
  29   17   18 ar
  30   17   25 1
  31   18   19 ar
  32   18   35 1
  33   19   36 1
  34   20   24 ar
  35   21   22 ar
  36   21   26 1
  37   22   23 ar
  38   23   24 ar
  39   23   37 1
  40   24   38 1
  41   26   27 1
  42   27   39 1
  43   27   40 1
  44   27   41 1

#	End of record

