#	Name: ASD02038693
#	Creating user name:	WinNT
#	Creation time:	15. 06. 2019 20:17

#	Modifying user name:	WinNT
#	Modification time:	15. 06. 2019 20:17

#	Program:	/corina/corina34_cracker 3.40 0067  02.08.2006

@<TRIPOS>MOLECULE
ASD02038693
  48   50    0    0    0
SMALL
NO_CHARGES


@<TRIPOS>ATOM
   1 C1             0.0833     1.3272    -0.0935 C.ar    
   2 C2             0.1628    -0.0515    -0.0776 C.ar    
   3 C3             1.3949    -0.6740     0.0578 C.ar    
   4 O4             1.4723    -2.0317     0.0729 O.3     
   5 C5             2.7732    -2.6058     0.2154 C.3     
   6 C6             2.6605    -4.1317     0.2110 C.3     
   7 C7             4.0613    -4.7465     0.2380 C.3     
   8 S8             3.9336    -6.5454     0.0841 S.3     
   9 C9             7.8106    -6.8015     0.2767 C.ar    
  10 C10            1.2373     2.0902     0.0260 C.ar    
  11 C11            2.4704     1.4662     0.1615 C.ar    
  12 C12            2.5481     0.0874     0.1773 C.ar    
  13 O13            1.9305    -4.5587     1.3628 O.3     
  14 C14            7.5102    -8.1675     0.1477 C.ar    
  15 C15            8.5338    -9.1024     0.1266 C.ar    
  16 C16            9.8454    -8.6874     0.2325 C.ar    
  17 C17           10.1477    -7.3398     0.3606 C.ar    
  18 C18            9.1441    -6.3972     0.3787 C.ar    
  19 C19           11.5855    -6.9035     0.4761 C.3     
  20 N20            6.6298    -6.1292     0.2671 N.2     
  21 C21            5.6403    -6.9794     0.1427 C.2     
  22 N22            6.1299    -8.2527     0.0648 N.pl3   
  23 N23            1.1578     3.4872     0.0096 N.am    
  24 S24            1.6257     4.3274    -1.3386 S.o2    
  25 O25            1.3921     5.6881    -1.0022 O.2     
  26 O26            2.9382     3.8544    -1.6083 O.2     
  27 C27            0.4753     3.7849    -2.6320 C.3     
  28 H28           -0.8756     1.8117    -0.2035 H       
  29 H29           -0.7346    -0.6451    -0.1703 H       
  30 H30            3.4044    -2.2857    -0.6135 H       
  31 H31            3.2144    -2.2768     1.1562 H       
  32 H32            2.1392    -4.4549    -0.6900 H       
  33 H33            4.6475    -4.3516    -0.5918 H       
  34 H34            4.5499    -4.4962     1.1796 H       
  35 H35            3.3685     2.0589     0.2543 H       
  36 H36            3.5070    -0.3982     0.2830 H       
  37 H37            2.3373    -4.3051     2.2026 H       
  38 H38            8.3051   -10.1533     0.0279 H       
  39 H39           10.6419    -9.4166     0.2160 H       
  40 H40            9.3865    -5.3495     0.4786 H       
  41 H41           11.9887    -6.7139    -0.5187 H       
  42 H42           11.6420    -5.9919     1.0709 H       
  43 H43           12.1659    -7.6893     0.9597 H       
  44 H44            5.6083    -9.0648    -0.0313 H       
  45 H45            0.8285     3.9635     0.7878 H       
  46 H46           -0.5496     3.9452    -2.2973 H       
  47 H47            0.6544     4.3584    -3.5414 H       
  48 H48            0.6298     2.7250    -2.8344 H       
@<TRIPOS>BOND
   1    1    2 ar
   2    1   10 ar
   3    1   28 1
   4    2    3 ar
   5    2   29 1
   6    3    4 1
   7    3   12 ar
   8    4    5 1
   9    5    6 1
  10    5   30 1
  11    5   31 1
  12    6    7 1
  13    6   13 1
  14    6   32 1
  15    7    8 1
  16    7   33 1
  17    7   34 1
  18    8   21 1
  19    9   14 ar
  20    9   20 1
  21    9   18 ar
  22   10   11 ar
  23   10   23 1
  24   11   12 ar
  25   11   35 1
  26   12   36 1
  27   13   37 1
  28   14   15 ar
  29   14   22 1
  30   15   16 ar
  31   15   38 1
  32   16   17 ar
  33   16   39 1
  34   17   18 ar
  35   17   19 1
  36   18   40 1
  37   19   41 1
  38   19   42 1
  39   19   43 1
  40   20   21 2
  41   21   22 1
  42   22   44 1
  43   23   24 am
  44   23   45 1
  45   24   25 2
  46   24   26 2
  47   24   27 1
  48   27   46 1
  49   27   47 1
  50   27   48 1

#	End of record

