#	Name: ASD01882796
#	Creating user name:	WinNT
#	Creation time:	15. 06. 2019 19:45

#	Modifying user name:	WinNT
#	Modification time:	15. 06. 2019 19:45

#	Program:	/corina/corina34_cracker 3.40 0067  02.08.2006

@<TRIPOS>MOLECULE
ASD01882796
  41   44    0    0    0
SMALL
NO_CHARGES


@<TRIPOS>ATOM
   1 C1            -0.1999     1.6047    -0.0808 C.2     
   2 C2             0.0034     0.2115    -0.1056 C.2     
   3 C3            -1.0659    -0.6182     0.0301 C.2     
   4 C4            -2.3526    -0.0767     0.1924 C.2     
   5 C5            -2.5323     1.2606     0.2138 C.2     
   6 N6            -1.4700     2.1043     0.0728 N.pl3   
   7 C7            -0.8716    -2.1125     0.0059 C.3     
   8 O8            -1.4556    -2.6877     1.1764 O.3     
   9 C9             1.3894    -0.3536    -0.2810 C.3     
  10 C10           -0.9880    -3.9034     1.5658 C.ar    
  11 C11           -1.5449    -2.6943    -1.2386 C.3     
  12 N12            0.6112     2.6449    -0.1840 N.2     
  13 N13           -0.0720     3.7320    -0.0983 N.2     
  14 C14           -1.3416     3.4588     0.0576 C.2     
  15 C15           -2.4587     4.4612     0.1929 C.3     
  16 F16            1.4110    -1.1982    -1.3961 F       
  17 F17            2.2989     0.6923    -0.4706 F       
  18 F18            1.7449    -1.0796     0.8608 F       
  19 C19           -2.3931     5.4376     1.3690 C.3     
  20 C20           -2.1207     5.9330    -0.0526 C.3     
  21 C21            0.0426    -4.5085     0.8630 C.ar    
  22 C22            0.5173    -5.7457     1.2616 C.ar    
  23 C23           -0.0363    -6.3793     2.3614 C.ar    
  24 C24           -1.0643    -5.7779     3.0632 C.ar    
  25 C25           -1.5381    -4.5386     2.6719 C.ar    
  26 F26            1.5213    -6.3361     0.5769 F       
  27 F27           -2.5387    -3.9487     3.3619 F       
  28 H28           -3.2024    -0.7345     0.3003 H       
  29 H29           -3.5255     1.6659     0.3388 H       
  30 H30            0.1942    -2.3400    -0.0177 H       
  31 H31           -1.0995    -2.2555    -2.1314 H       
  32 H32           -1.4044    -3.7750    -1.2561 H       
  33 H33           -2.6107    -2.4668    -1.2150 H       
  34 H34           -3.4437     4.1122    -0.1171 H       
  35 H35           -3.3350     5.7312     1.8325 H       
  36 H36           -1.5420     5.3548     2.0449 H       
  37 H37           -1.0904     6.1763    -0.3121 H       
  38 H38           -2.8834     6.5526    -0.5244 H       
  39 H39            0.4744    -4.0147     0.0050 H       
  40 H40            0.3353    -7.3449     2.6711 H       
  41 H41           -1.4949    -6.2740     3.9205 H       
@<TRIPOS>BOND
   1    1    2 1
   2    1   12 2
   3    1    6 1
   4    2    9 1
   5    2    3 2
   6    3    4 1
   7    3    7 1
   8    4    5 2
   9    4   28 1
  10    5    6 1
  11    5   29 1
  12    6   14 1
  13    7    8 1
  14    7   11 1
  15    7   30 1
  16    8   10 1
  17    9   16 1
  18    9   17 1
  19    9   18 1
  20   10   21 ar
  21   10   25 ar
  22   11   31 1
  23   11   32 1
  24   11   33 1
  25   12   13 1
  26   13   14 2
  27   14   15 1
  28   15   19 1
  29   15   20 1
  30   15   34 1
  31   19   20 1
  32   19   35 1
  33   19   36 1
  34   20   37 1
  35   20   38 1
  36   21   22 ar
  37   21   39 1
  38   22   23 ar
  39   22   26 1
  40   23   24 ar
  41   23   40 1
  42   24   25 ar
  43   24   41 1
  44   25   27 1

#	End of record

