#	Name: ASD07480008
#	Creating user name:	WinNT
#	Creation time:	15. 06. 2019 21:11

#	Modifying user name:	WinNT
#	Modification time:	15. 06. 2019 21:11

#	Program:	/corina/corina34_cracker 3.40 0067  02.08.2006

@<TRIPOS>MOLECULE
ASD07480008
  48   52    0    0    0
SMALL
NO_CHARGES


@<TRIPOS>ATOM
   1 C1            -0.0167     1.4024    -0.0095 C.2     
   2 C2             0.0022    -0.0037    -0.0148 C.2     
   3 N3             1.1419    -0.6568    -0.0234 N.2     
   4 N4             2.3574     0.0343    -0.0280 N.pl3   
   5 C5             2.3726     1.3984    -0.0236 C.2     
   6 C6             1.1518     2.0993    -0.0139 C.2     
   7 C7             3.6692    -0.3842    -0.0372 C.2     
   8 C8             4.4485     0.7645    -0.0381 C.2     
   9 N9             3.6396     1.8105    -0.0299 N.2     
  10 N10           -1.1970    -0.7095    -0.0103 N.pl3   
  11 C11           -1.3294    -2.1738    -0.0148 C.3     
  12 C12           -2.5450    -0.1130     0.0062 C.3     
  13 C13           -3.4661    -1.1975    -0.6062 C.3     
  14 C14           -2.8383    -2.4973    -0.0335 C.3     
  15 C15           -0.6971    -2.7494     1.2261 C.ar    
  16 C16           -0.2300    -4.0533     1.2348 C.ar    
  17 N17            0.3255    -4.5643     2.3181 N.ar    
  18 C18            0.4578    -3.8619     3.4268 C.ar    
  19 C19            0.0140    -2.5529     3.4923 C.ar    
  20 C20           -0.5706    -1.9793     2.3706 C.ar    
  21 F21           -0.3446    -4.8111     0.1222 F       
  22 F22            0.1523    -1.8402     4.6317 F       
  23 C23            4.1467    -1.7652    -0.0442 C.2     
  24 N24            3.2638    -2.7835    -0.0417 N.am    
  25 O25            5.3422    -1.9959    -0.0521 O.2     
  26 C26            3.7147    -4.0964    -0.1574 C.ar    
  27 C27            2.8108    -5.1472    -0.0481 C.ar    
  28 C28            3.2721    -6.4466    -0.1650 C.ar    
  29 C29            4.6269    -6.6509    -0.3880 C.ar    
  30 C30            5.4681    -5.5600    -0.4859 C.ar    
  31 N31            4.9991    -4.3321    -0.3757 N.ar    
  32 H32           -0.9594     1.9294    -0.0066 H       
  33 H33            1.1429     3.1792    -0.0103 H       
  34 H34            5.5280     0.7981    -0.0442 H       
  35 H35           -0.8484    -2.5867    -0.9015 H       
  36 H36           -2.8490     0.1095     1.0291 H       
  37 H37           -2.5672     0.7912    -0.6021 H       
  38 H38           -4.4936    -1.0769    -0.2627 H       
  39 H39           -3.4157    -1.1837    -1.6949 H       
  40 H40           -3.0433    -3.3451    -0.6872 H       
  41 H41           -3.2032    -2.6898     0.9754 H       
  42 H42            0.9175    -4.3137     4.2933 H       
  43 H43           -0.9257    -0.9596     2.3927 H       
  44 H44            2.3145    -2.6022     0.0406 H       
  45 H45            1.7630    -4.9520     0.1259 H       
  46 H46            2.5935    -7.2829    -0.0842 H       
  47 H47            5.0191    -7.6527    -0.4836 H       
  48 H48            6.5229    -5.7142    -0.6594 H       
@<TRIPOS>BOND
   1    1    2 1
   2    1    6 2
   3    1   32 1
   4    2    3 2
   5    2   10 1
   6    3    4 1
   7    4    5 1
   8    4    7 1
   9    5    6 1
  10    5    9 2
  11    6   33 1
  12    7    8 2
  13    7   23 1
  14    8    9 1
  15    8   34 1
  16   10   11 1
  17   10   12 1
  18   11   15 1
  19   11   14 1
  20   11   35 1
  21   12   13 1
  22   12   36 1
  23   12   37 1
  24   13   14 1
  25   13   38 1
  26   13   39 1
  27   14   40 1
  28   14   41 1
  29   15   16 ar
  30   15   20 ar
  31   16   17 ar
  32   16   21 1
  33   17   18 ar
  34   18   19 ar
  35   18   42 1
  36   19   20 ar
  37   19   22 1
  38   20   43 1
  39   23   24 am
  40   23   25 2
  41   24   26 1
  42   24   44 1
  43   26   27 ar
  44   26   31 ar
  45   27   28 ar
  46   27   45 1
  47   28   29 ar
  48   28   46 1
  49   29   30 ar
  50   29   47 1
  51   30   31 ar
  52   30   48 1

#	End of record

