#	Name: ASD02030082
#	Creating user name:	WinNT
#	Creation time:	15. 06. 2019 20:14

#	Modifying user name:	WinNT
#	Modification time:	15. 06. 2019 20:14

#	Program:	/corina/corina34_cracker 3.40 0067  02.08.2006

@<TRIPOS>MOLECULE
ASD02030082
  54   56    0    0    0
SMALL
NO_CHARGES


@<TRIPOS>ATOM
   1 C1             0.1612     1.3254     1.2286 C.ar    
   2 C2             0.0093    -0.0095     0.9036 C.ar    
   3 C3             1.0222    -0.6798     0.2435 C.ar    
   4 C4             2.1868    -0.0149    -0.0920 C.ar    
   5 C5             2.3384     1.3203     0.2323 C.ar    
   6 C6             1.3261     1.9902     0.8936 C.ar    
   7 C7             3.6082     2.0450    -0.1330 C.3     
   8 C8             3.2730     3.2630    -0.9546 C.2     
   9 C9             4.3109     3.8667    -1.8651 C.3     
  10 O10            3.7270     4.9382    -2.6088 O.3     
  11 O11            2.1725     3.7552    -0.8833 O.2     
  12 C12            4.6317     5.5827    -3.5077 C.3     
  13 C13            3.8650     6.1325    -4.7232 C.3     
  14 C14            5.2896     6.7948    -2.8165 C.3     
  15 C15            5.4010     7.8573    -3.9381 C.3     
  16 C16            4.0836     7.6595    -4.7283 C.3     
  17 N17            4.3934     5.5457    -5.9572 N.pl3   
  18 C18            3.5822     5.4594    -7.0942 C.ar    
  19 C19            4.0827     4.9034    -8.2641 C.ar    
  20 C20            3.2815     4.8186    -9.3858 C.ar    
  21 C21            1.9774     5.2892    -9.3442 C.ar    
  22 C22            1.4768     5.8452    -8.1762 C.ar    
  23 C23            2.2746     5.9247    -7.0516 C.ar    
  24 O24            1.1892     5.2058   -10.4494 O.3     
  25 C25            4.3352     2.4747     1.1429 C.3     
  26 F26            4.6464     1.3440     1.9056 F       
  27 F27            5.5140     3.1474     0.8038 F       
  28 F28            3.5099     3.3256     1.8858 F       
  29 O29            4.4513     1.1758    -0.8918 O.3     
  30 C30            3.9325     0.8424    -2.1809 C.3     
  31 H31           -0.6319     1.8503     1.7403 H       
  32 H32           -0.9006    -0.5289     1.1656 H       
  33 H33            0.9038    -1.7229    -0.0098 H       
  34 H34            2.9785    -0.5387    -0.6070 H       
  35 H35            1.4443     3.0334     1.1466 H       
  36 H36            5.1399     4.2479    -1.2688 H       
  37 H37            4.6782     3.1050    -2.5529 H       
  38 H38            5.3965     4.8786    -3.8358 H       
  39 H39            2.8028     5.9069    -4.6279 H       
  40 H40            4.6591     7.1604    -2.0060 H       
  41 H41            6.2785     6.5302    -2.4421 H       
  42 H42            5.4513     8.8609    -3.5159 H       
  43 H43            6.2653     7.6601    -4.5724 H       
  44 H44            4.1924     8.0259    -5.7491 H       
  45 H45            3.2583     8.1648    -4.2266 H       
  46 H46            5.3056     5.2170    -5.9861 H       
  47 H47            5.0983     4.5375    -8.2969 H       
  48 H48            3.6705     4.3862   -10.2957 H       
  49 H49            0.4614     6.2117    -8.1448 H       
  50 H50            1.8846     6.3573    -6.1422 H       
  51 H51            0.6819     4.3847   -10.5096 H       
  52 H52            2.9395     0.4065    -2.0713 H       
  53 H53            3.8684     1.7435    -2.7909 H       
  54 H54            4.5938     0.1230    -2.6638 H       
@<TRIPOS>BOND
   1    1    2 ar
   2    1    6 ar
   3    1   31 1
   4    2    3 ar
   5    2   32 1
   6    3    4 ar
   7    3   33 1
   8    4    5 ar
   9    4   34 1
  10    5    6 ar
  11    5    7 1
  12    6   35 1
  13    7    8 1
  14    7   25 1
  15    7   29 1
  16    8    9 1
  17    8   11 2
  18    9   10 1
  19    9   36 1
  20    9   37 1
  21   10   12 1
  22   12   13 1
  23   12   14 1
  24   12   38 1
  25   13   17 1
  26   13   16 1
  27   13   39 1
  28   14   15 1
  29   14   40 1
  30   14   41 1
  31   15   16 1
  32   15   42 1
  33   15   43 1
  34   16   44 1
  35   16   45 1
  36   17   18 1
  37   17   46 1
  38   18   19 ar
  39   18   23 ar
  40   19   20 ar
  41   19   47 1
  42   20   21 ar
  43   20   48 1
  44   21   22 ar
  45   21   24 1
  46   22   23 ar
  47   22   49 1
  48   23   50 1
  49   24   51 1
  50   25   26 1
  51   25   27 1
  52   25   28 1
  53   29   30 1
  54   30   52 1
  55   30   53 1
  56   30   54 1

#	End of record

