#	Name: ASD02690059
#	Creating user name:	WinNT
#	Creation time:	15. 06. 2019 20:26

#	Modifying user name:	WinNT
#	Modification time:	15. 06. 2019 20:26

#	Program:	/corina/corina34_cracker 3.40 0067  02.08.2006

@<TRIPOS>MOLECULE
ASD02690059
  60   62    0    0    0
SMALL
NO_CHARGES


@<TRIPOS>ATOM
   1 C1            -0.0322     1.1767    -0.0403 C.2     
   2 O2            -0.0088    -0.0339     0.0235 O.2     
   3 C3             1.2145     3.3299    -0.1984 C.ar    
   4 C4             1.2271     1.9335    -0.1242 C.ar    
   5 C5             2.4613     1.2671    -0.1307 C.ar    
   6 C6             3.6151     2.0260    -0.2107 C.ar    
   7 C7             3.5163     3.4042    -0.2809 C.ar    
   8 N8             2.3416     4.0056    -0.2729 N.ar    
   9 C9             4.7720     4.2330    -0.3675 C.3     
  10 N10           -4.0827     2.0909     0.8777 N.3     
  11 C11           -3.7949     1.7038    -0.5093 C.3     
  12 C12           -2.4486     0.9786    -0.5690 C.3     
  13 C13           -1.3510     1.9060    -0.0400 C.3     
  14 C14           -1.6992     2.3330     1.3885 C.3     
  15 C15           -3.0672     3.0190     1.3916 C.3     
  16 C16           -6.4479     1.7266     0.3532 C.3     
  17 C17           -5.4292     2.6662     0.9951 C.3     
  18 C18           -5.7920     2.8337     2.4754 C.3     
  19 C19           -7.0809     3.6482     2.5661 C.3     
  20 C20           -8.1429     3.0604     1.6741 C.ar    
  21 C21           -9.4607     3.4343     1.9044 C.ar    
  22 C22          -10.4787     2.9340     1.1196 C.ar    
  23 C23          -10.1860     2.0536     0.0944 C.ar    
  24 C24           -8.8782     1.6801    -0.1350 C.ar    
  25 C25           -7.8518     2.1810     0.6557 C.ar    
  26 O26           -5.9911     1.5499     3.0705 O.3     
  27 H27            0.2724     3.8579    -0.1989 H       
  28 H28            2.5095     0.1897    -0.0745 H       
  29 H29            4.5832     1.5474    -0.2178 H       
  30 H30            5.0401     4.3781    -1.4140 H       
  31 H31            4.6008     5.2020     0.1014 H       
  32 H32            5.5832     3.7184     0.1474 H       
  33 H33           -4.5807     1.0412    -0.8719 H       
  34 H34           -3.7550     2.5958    -1.1345 H       
  35 H35           -2.4922     0.0791     0.0450 H       
  36 H36           -2.2280     0.7053    -1.6009 H       
  37 H37           -1.2800     2.7872    -0.6776 H       
  38 H38           -1.7310     1.4548     2.0334 H       
  39 H39           -0.9432     3.0273     1.7553 H       
  40 H40           -3.0308     3.9048     0.7575 H       
  41 H41           -3.3246     3.3116     2.4095 H       
  42 H42           -6.2979     1.7173    -0.7264 H       
  43 H43           -6.3040     0.7193     0.7441 H       
  44 H44           -5.4590     3.6354     0.4973 H       
  45 H45           -4.9890     3.3584     2.9931 H       
  46 H46           -7.4356     3.6462     3.5968 H       
  47 H47           -6.8801     4.6743     2.2578 H       
  48 H48           -9.6902     4.1222     2.7047 H       
  49 H49          -11.5010     3.2287     1.3055 H       
  50 H50          -10.9786     1.6596    -0.5243 H       
  51 H51           -8.6504     0.9919    -0.9356 H       
  52 H52           -6.2238     1.5829     4.0085 H       
  53 C53           11.7574    13.3191     9.0363 C.2     
  54 C54           11.7777    11.8250     9.0281 C.2     
  55 O55           12.7991    13.9396     9.0297 O.2     
  56 O56           10.5832    13.9759     9.0454 O.3     
  57 O57           10.7360    11.2045     9.0347 O.2     
  58 O58           12.9519    11.1682     9.0133 O.3     
  59 H59           10.6207    14.9422     9.0505 H       
  60 H60           12.9144    10.2020     9.0085 H       
@<TRIPOS>BOND
   1    1    2 2
   2    1    4 1
   3    1   13 1
   4    3    4 ar
   5    3    8 ar
   6    3   27 1
   7    4    5 ar
   8    5    6 ar
   9    5   28 1
  10    6    7 ar
  11    6   29 1
  12    7    8 ar
  13    7    9 1
  14    9   30 1
  15    9   31 1
  16    9   32 1
  17   10   11 1
  18   10   15 1
  19   10   17 1
  20   11   12 1
  21   11   33 1
  22   11   34 1
  23   12   13 1
  24   12   35 1
  25   12   36 1
  26   13   14 1
  27   13   37 1
  28   14   15 1
  29   14   38 1
  30   14   39 1
  31   15   40 1
  32   15   41 1
  33   16   17 1
  34   16   25 1
  35   16   42 1
  36   16   43 1
  37   17   18 1
  38   17   44 1
  39   18   19 1
  40   18   26 1
  41   18   45 1
  42   19   20 1
  43   19   46 1
  44   19   47 1
  45   20   21 ar
  46   20   25 ar
  47   21   22 ar
  48   21   48 1
  49   22   23 ar
  50   22   49 1
  51   23   24 ar
  52   23   50 1
  53   24   25 ar
  54   24   51 1
  55   26   52 1
  56   53   54 1
  57   53   55 2
  58   53   56 1
  59   54   57 2
  60   54   58 1
  61   56   59 1
  62   58   60 1

#	End of record

