#	Name: ASD01881246
#	Creating user name:	WinNT
#	Creation time:	15. 06. 2019 19:42

#	Modifying user name:	WinNT
#	Modification time:	15. 06. 2019 19:42

#	Program:	/corina/corina34_cracker 3.40 0067  02.08.2006

@<TRIPOS>MOLECULE
ASD01881246
  39   41    0    0    0
SMALL
NO_CHARGES


@<TRIPOS>ATOM
   1 N1            -0.0159     1.3188     0.0093 N.ar    
   2 C2             0.0021    -0.0041     0.0020 C.ar    
   3 N3             1.1381    -0.6825    -0.0120 N.ar    
   4 C4             2.3025    -0.0524    -0.0198 C.ar    
   5 C5             2.3200     1.3357    -0.0129 C.ar    
   6 C6             1.1117     2.0118     0.0022 C.ar    
   7 C7             3.6248     2.0897    -0.0208 C.3     
   8 O8             3.3632     3.4945    -0.0114 O.3     
   9 C9             4.4391     4.3217    -0.0169 C.ar    
  10 C10            4.2555     5.7010    -0.0083 C.ar    
  11 C11            5.3446     6.5365    -0.0134 C.ar    
  12 C12            6.6406     6.0101    -0.0272 C.ar    
  13 C13            6.8193     4.6240    -0.0354 C.ar    
  14 C14            5.7232     3.7903    -0.0253 C.ar    
  15 C15            5.4949     8.0374    -0.0071 C.3     
  16 N16            6.9377     8.3048    -0.0181 N.am    
  17 C17            7.5948     7.1324    -0.0297 C.2     
  18 O18            8.8049     7.0148    -0.0404 O.2     
  19 Cl19           3.7881    -0.9504    -0.0376 Cl      
  20 C20            7.7882    10.0862     1.4256 C.3     
  21 C21            7.5594     9.6313    -0.0171 C.3     
  22 O22           -1.1714    -0.6807     0.0096 O.3     
  23 C23           -1.0975    -2.1077     0.0012 C.3     
  24 H24            1.0897     3.0916     0.0076 H       
  25 H25            4.2044     1.8221     0.8626 H       
  26 H26            4.1885     1.8311    -0.9172 H       
  27 H27            3.2575     6.1136     0.0020 H       
  28 H28            7.8157     4.2073    -0.0465 H       
  29 H29            5.8620     2.7193    -0.0313 H       
  30 H30            5.0279     8.4645    -0.8945 H       
  31 H31            5.0433     8.4554     0.8926 H       
  32 H32            6.8326    10.1325     1.9478 H       
  33 H33            8.4442     9.3771     1.9305 H       
  34 H34            8.2509    11.0732     1.4263 H       
  35 H35            8.5151     9.5850    -0.5394 H       
  36 H36            6.9035    10.3404    -0.5221 H       
  37 H37           -2.1049    -2.5238     0.0086 H       
  38 H38           -0.5741    -2.4392    -0.8956 H       
  39 H39           -0.5571    -2.4488     0.8843 H       
@<TRIPOS>BOND
   1    1    2 ar
   2    1    6 ar
   3    2    3 ar
   4    2   22 1
   5    3    4 ar
   6    4    5 ar
   7    4   19 1
   8    5    6 ar
   9    5    7 1
  10    6   24 1
  11    7    8 1
  12    7   25 1
  13    7   26 1
  14    8    9 1
  15    9   10 ar
  16    9   14 ar
  17   10   11 ar
  18   10   27 1
  19   11   12 ar
  20   11   15 1
  21   12   13 ar
  22   12   17 1
  23   13   14 ar
  24   13   28 1
  25   14   29 1
  26   15   16 1
  27   15   30 1
  28   15   31 1
  29   16   17 am
  30   16   21 1
  31   17   18 2
  32   20   21 1
  33   20   32 1
  34   20   33 1
  35   20   34 1
  36   21   35 1
  37   21   36 1
  38   22   23 1
  39   23   37 1
  40   23   38 1
  41   23   39 1

#	End of record

