#	Name: ASD00110017
#	Creating user name:	WinNT
#	Creation time:	15. 06. 2019 18:30

#	Modifying user name:	WinNT
#	Modification time:	15. 06. 2019 18:30

#	Program:	/corina/corina34_cracker 3.40 0067  02.08.2006

@<TRIPOS>MOLECULE
ASD00110017
  52   54    0    0    0
SMALL
NO_CHARGES


@<TRIPOS>ATOM
   1 C1             0.3274     1.3811    -0.8470 C.ar    
   2 C2             0.5207     0.0244    -1.0082 C.ar    
   3 C3             1.3851    -0.6583    -0.1713 C.ar    
   4 C4             2.0609     0.0131     0.8324 C.ar    
   5 C5             1.8766     1.3693     1.0042 C.ar    
   6 C6             1.0061     2.0644     0.1629 C.ar    
   7 C7             0.8042     3.5181     0.3411 C.2     
   8 N8             1.8519     4.3129     0.6359 N.am    
   9 O9            -0.3069     3.9965     0.2216 O.2     
  10 C10            1.6518     5.7534     0.8125 C.3     
  11 C11            1.2203     6.0356     2.2530 C.3     
  12 O12            2.2819     5.6893     3.1447 O.3     
  13 C13           -0.6099     2.1244    -1.7635 C.3     
  14 N14           -2.5750     2.0670    -3.8786 N.3     
  15 C15           -1.2173     2.5584    -4.1461 C.3     
  16 C16           -0.2256     1.8505    -3.2201 C.3     
  17 C17           -2.0450     1.6473    -1.5242 C.3     
  18 C18           -2.9840     2.3611    -2.4993 C.3     
  19 C19            2.9602     6.4899     0.5184 C.3     
  20 C20            3.3852     6.2119    -0.9005 C.ar    
  21 O21            3.9745     6.0362     1.4170 O.3     
  22 C22            4.1654     5.7022    -3.5033 C.ar    
  23 C23            4.4082     4.7683    -2.5135 C.ar    
  24 C24            4.0183     5.0232    -1.2120 C.ar    
  25 C25            3.1369     7.1432    -1.8914 C.ar    
  26 C26            3.5268     6.8882    -3.1929 C.ar    
  27 H27           -0.0042    -0.5056    -1.7891 H       
  28 H28            1.5330    -1.7202    -0.3017 H       
  29 H29            2.7338    -0.5259     1.4828 H       
  30 H30            2.4044     1.8921     1.7882 H       
  31 H31            2.7385     3.9311     0.7313 H       
  32 H32            0.8781     6.0994     0.1270 H       
  33 H33            0.9857     7.0945     2.3612 H       
  34 H34            0.3377     5.4418     2.4908 H       
  35 H35            2.0778     5.8425     4.0774 H       
  36 H36           -0.5434     3.1938    -1.5632 H       
  37 H37           -3.2345     2.4482    -4.5404 H       
  38 H38           -0.9549     2.3536    -5.1840 H       
  39 H39           -1.1781     3.6328    -3.9669 H       
  40 H40            0.7800     2.2267    -3.4081 H       
  41 H41           -0.2543     0.7772    -3.4084 H       
  42 H42           -2.1024     0.5709    -1.6857 H       
  43 H43           -2.3394     1.8784    -0.5004 H       
  44 H44           -2.9365     3.4365    -2.3278 H       
  45 H45           -4.0048     2.0131    -2.3411 H       
  46 H46            2.8113     7.5616     0.6497 H       
  47 H47            4.1600     5.0892     1.3550 H       
  48 H48            4.4700     5.5030    -4.5202 H       
  49 H49            4.9071     3.8416    -2.7561 H       
  50 H50            4.2087     4.2939    -0.4386 H       
  51 H51            2.6380     8.0698    -1.6488 H       
  52 H52            3.3371     7.6179    -3.9662 H       
@<TRIPOS>BOND
   1    1    2 ar
   2    1    6 ar
   3    1   13 1
   4    2    3 ar
   5    2   27 1
   6    3    4 ar
   7    3   28 1
   8    4    5 ar
   9    4   29 1
  10    5    6 ar
  11    5   30 1
  12    6    7 1
  13    7    8 am
  14    7    9 2
  15    8   10 1
  16    8   31 1
  17   10   11 1
  18   10   19 1
  19   10   32 1
  20   11   12 1
  21   11   33 1
  22   11   34 1
  23   12   35 1
  24   13   17 1
  25   13   16 1
  26   13   36 1
  27   14   15 1
  28   14   18 1
  29   14   37 1
  30   15   16 1
  31   15   38 1
  32   15   39 1
  33   16   40 1
  34   16   41 1
  35   17   18 1
  36   17   42 1
  37   17   43 1
  38   18   44 1
  39   18   45 1
  40   19   20 1
  41   19   21 1
  42   19   46 1
  43   20   25 ar
  44   20   24 ar
  45   21   47 1
  46   22   23 ar
  47   22   26 ar
  48   22   48 1
  49   23   24 ar
  50   23   49 1
  51   24   50 1
  52   25   26 ar
  53   25   51 1
  54   26   52 1

#	End of record

