#	Name: ASD05430440
#	Creating user name:	WinNT
#	Creation time:	15. 06. 2019 21:00

#	Modifying user name:	WinNT
#	Modification time:	15. 06. 2019 21:00

#	Program:	/corina/corina34_cracker 3.40 0067  02.08.2006

@<TRIPOS>MOLECULE
ASD05430440
  54   58    0    0    0
SMALL
NO_CHARGES


@<TRIPOS>ATOM
   1 C1            -0.1689     1.2120     0.9595 C.ar    
   2 C2            -0.0148    -0.0170     0.3186 C.ar    
   3 C3            -1.0662    -0.5623    -0.4074 C.ar    
   4 C4            -2.2663     0.1083    -0.4973 C.ar    
   5 C5            -2.4283     1.3411     0.1432 C.ar    
   6 C6            -1.3717     1.8875     0.8784 C.ar    
   7 C7            -4.8619     1.3700    -0.0474 C.2     
   8 C8            -3.7096     2.0592     0.0479 C.2     
   9 O9             0.8623     1.7429     1.6687 O.3     
  10 C10            1.3746    -2.0193     0.7506 C.2     
  11 N11            1.2035    -0.7032     0.4067 N.pl3   
  12 C12            2.6981    -2.2642     0.7095 C.2     
  13 N13            3.3226    -1.1326     0.3511 N.2     
  14 C14            2.4383    -0.1904     0.1669 C.2     
  15 C15            3.3627    -3.5820     1.0141 C.3     
  16 C16           -7.3403    -0.0503     0.5225 C.3     
  17 N17           -7.3303     1.3391     0.0774 N.pl3   
  18 O18           -6.0430    -0.4593     0.9526 O.3     
  19 C19           -6.1756     2.0135    -0.3131 C.2     
  20 C20           -4.9429    -0.1436     0.1003 C.3     
  21 C21           -8.4473     2.2825    -0.0266 C.3     
  22 C22           -7.8629     3.3891    -0.9378 C.3     
  23 N23           -6.4114     3.1381    -0.8967 N.2     
  24 C24           -9.6407     1.6300    -0.6757 C.ar    
  25 C25          -10.9129     1.8896    -0.2011 C.ar    
  26 C26          -12.0080     1.2921    -0.7958 C.ar    
  27 C27          -11.8306     0.4333    -1.8673 C.ar    
  28 C28          -10.5559     0.1740    -2.3416 C.ar    
  29 C29           -9.4627     0.7767    -1.7487 C.ar    
  30 F30          -12.9004    -0.1517    -2.4491 F       
  31 C31            0.6343     3.0048     2.2993 C.3     
  32 H32           -0.9424    -1.5139    -0.9028 H       
  33 H33           -3.0819    -0.3178    -1.0627 H       
  34 H34           -1.4927     2.8390     1.3748 H       
  35 H35           -3.7251     3.1391     0.0543 H       
  36 H36            0.5974    -2.7232     1.0092 H       
  37 H37            2.6525     0.8265    -0.1274 H       
  38 H38            3.4425    -4.1688     0.0990 H       
  39 H39            4.3589    -3.4017     1.4181 H       
  40 H40            2.7675    -4.1287     1.7455 H       
  41 H41           -8.0413    -0.1561     1.3505 H       
  42 H42           -7.6614    -0.6880    -0.3011 H       
  43 H43           -5.0955    -0.5991    -0.8781 H       
  44 H44           -4.0191    -0.5182     0.5412 H       
  45 H45           -8.7085     2.6830     0.9529 H       
  46 H46           -8.2451     3.2909    -1.9539 H       
  47 H47           -8.0892     4.3765    -0.5355 H       
  48 H48          -11.0510     2.5592     0.6348 H       
  49 H49          -13.0018     1.4948    -0.4247 H       
  50 H50          -10.4164    -0.4957    -3.1773 H       
  51 H51           -8.4683     0.5747    -2.1186 H       
  52 H52            1.5348     3.3136     2.8303 H       
  53 H53            0.3852     3.7491     1.5431 H       
  54 H54           -0.1909     2.9142     3.0057 H       
@<TRIPOS>BOND
   1    1    2 ar
   2    1    9 1
   3    1    6 ar
   4    2    3 ar
   5    2   11 1
   6    3    4 ar
   7    3   32 1
   8    4    5 ar
   9    4   33 1
  10    5    6 ar
  11    5    8 1
  12    6   34 1
  13    7    8 2
  14    7   19 1
  15    7   20 1
  16    8   35 1
  17    9   31 1
  18   10   11 1
  19   10   12 2
  20   10   36 1
  21   11   14 1
  22   12   13 1
  23   12   15 1
  24   13   14 2
  25   14   37 1
  26   15   38 1
  27   15   39 1
  28   15   40 1
  29   16   17 1
  30   16   18 1
  31   16   41 1
  32   16   42 1
  33   17   21 1
  34   17   19 1
  35   18   20 1
  36   19   23 2
  37   20   43 1
  38   20   44 1
  39   21   22 1
  40   21   24 1
  41   21   45 1
  42   22   23 1
  43   22   46 1
  44   22   47 1
  45   24   25 ar
  46   24   29 ar
  47   25   26 ar
  48   25   48 1
  49   26   27 ar
  50   26   49 1
  51   27   28 ar
  52   27   30 1
  53   28   29 ar
  54   28   50 1
  55   29   51 1
  56   31   52 1
  57   31   53 1
  58   31   54 1

#	End of record

