#	Name: ASD01141109
#	Creating user name:	WinNT
#	Creation time:	15. 06. 2019 19:01

#	Modifying user name:	WinNT
#	Modification time:	15. 06. 2019 19:01

#	Program:	/corina/corina34_cracker 3.40 0067  02.08.2006

@<TRIPOS>MOLECULE
ASD01141109
  51   54    0    0    0
SMALL
NO_CHARGES


@<TRIPOS>ATOM
   1 C1             0.0673     1.3449     0.1625 C.3     
   2 C2             0.3068    -0.1701     0.2773 C.3     
   3 C3             1.4214     2.0055    -0.0007 C.3     
   4 C4             1.2405    -0.4977     1.4376 C.3     
   5 C5             2.2269     1.7497     1.3019 C.3     
   6 C6             1.4367     3.4993    -0.1361 C.2     
   7 C7             2.1567     1.3838    -1.1898 C.3     
   8 C8             2.5665     0.2706     1.3282 C.3     
   9 C9             1.5270    -1.9994     1.4712 C.3     
  10 H10            0.7508    -0.2234     2.3720 H       
  11 H11            1.6382     2.0219     2.1779 H       
  12 C12            3.4139     2.7017     1.1087 C.3     
  13 O13            0.5917     4.1916    -0.6509 O.2     
  14 C14            2.7373     3.9654     0.5104 C.3     
  15 C15            3.4367    -0.0524     2.5436 C.3     
  16 H16            3.0779    -0.0065     0.4063 H       
  17 C17            2.4019    -2.3224     2.6845 C.3     
  18 C18            0.2074    -2.7669     1.5763 C.3     
  19 C19            3.7214    -1.5553     2.5818 C.3     
  20 H20            4.3772     0.4940     2.4727 H       
  21 C21            2.6860    -3.8250     2.7246 C.3     
  22 H22            1.8819    -2.0270     3.5958 H       
  23 C23            0.4915    -4.2695     1.6172 C.3     
  24 C24            1.3654    -4.5906     2.8314 C.3     
  25 O25            0.6840    -4.2009     4.0254 O.3     
  26 H26           -0.1633    -4.6476     4.1584 H       
  27 C27            2.2556    -2.4091     0.1897 C.3     
  28 H28           -0.6481    -0.6714     0.4352 H       
  29 H29           -0.5557     1.5568    -0.7064 H       
  30 H30           -0.4181     1.7129     1.0664 H       
  31 H31            0.7497    -0.5326    -0.6504 H       
  32 H32            1.6188     1.6128    -2.1097 H       
  33 H33            3.1654     1.7927    -1.2473 H       
  34 H34            2.2097     0.3029    -1.0594 H       
  35 H35            3.8858     2.9310     2.0642 H       
  36 H36            4.1370     2.2820     0.4094 H       
  37 H37            3.3865     4.4165    -0.2401 H       
  38 H38            2.5244     4.6847     1.3012 H       
  39 H39            2.9134     0.2415     3.4535 H       
  40 H40           -0.3134    -2.4708     2.4869 H       
  41 H41           -0.4154    -2.5385     0.7113 H       
  42 H42            4.2427    -1.8495     1.6708 H       
  43 H43            4.3436    -1.7853     3.4467 H       
  44 H44            3.2051    -4.1212     1.8131 H       
  45 H45            3.3097    -4.0540     3.5888 H       
  46 H46           -0.4491    -4.8152     1.6922 H       
  47 H47            1.0118    -4.5658     0.7065 H       
  48 H48            1.5674    -5.6613     2.8609 H       
  49 H49            3.1953    -1.8617     0.1152 H       
  50 H50            2.4596    -3.4795     0.2142 H       
  51 H51            1.6310    -2.1779    -0.6731 H       
@<TRIPOS>BOND
   1    1    2 1
   2    1    3 1
   3    1   29 1
   4    1   30 1
   5    2    4 1
   6    2   28 1
   7    2   31 1
   8    3    5 1
   9    3    6 1
  10    3    7 1
  11    4    8 1
  12    4   10 1
  13    4    9 1
  14    5    8 1
  15    5   11 1
  16    5   12 1
  17    6   13 2
  18    6   14 1
  19    7   32 1
  20    7   33 1
  21    7   34 1
  22    8   15 1
  23    8   16 1
  24    9   18 1
  25    9   27 1
  26    9   17 1
  27   12   14 1
  28   12   35 1
  29   12   36 1
  30   14   37 1
  31   14   38 1
  32   15   19 1
  33   15   20 1
  34   15   39 1
  35   17   21 1
  36   17   22 1
  37   17   19 1
  38   18   23 1
  39   18   40 1
  40   18   41 1
  41   19   42 1
  42   19   43 1
  43   21   24 1
  44   21   44 1
  45   21   45 1
  46   23   24 1
  47   23   46 1
  48   23   47 1
  49   24   25 1
  50   24   48 1
  51   25   26 1
  52   27   49 1
  53   27   50 1
  54   27   51 1

#	End of record

