#	Name: ASD00170042
#	Creating user name:	WinNT
#	Creation time:	15. 06. 2019 18:31

#	Modifying user name:	WinNT
#	Modification time:	15. 06. 2019 18:31

#	Program:	/corina/corina34_cracker 3.40 0067  02.08.2006

@<TRIPOS>MOLECULE
ASD00170042
  39   42    0    0    0
SMALL
NO_CHARGES


@<TRIPOS>ATOM
   1 C1            -0.0121     1.4159     0.0535 C.ar    
   2 C2             0.0079    -0.0020     0.0552 C.ar    
   3 C3            -1.2047    -0.7158     0.0544 C.ar    
   4 C4            -2.3859    -0.0475     0.0515 C.ar    
   5 C5            -2.4190     1.3586     0.0499 C.ar    
   6 C6            -1.2428     2.0895     0.0457 C.ar    
   7 C7             1.2038     2.1230     0.0537 C.ar    
   8 C8             2.3805     1.4393     0.0557 C.ar    
   9 C9             2.3998     0.0458     0.0570 C.ar    
  10 C10            1.2428    -0.6717     0.0572 C.ar    
  11 C11           -3.7198     2.0618     0.0468 C.2     
  12 C12           -3.7636     3.5190     0.1652 C.2     
  13 C13           -3.6408     4.4233    -0.9765 C.2     
  14 C14           -3.7112     5.7018    -0.6217 C.2     
  15 S15           -3.9308     5.8585     1.1209 S.3     
  16 C16           -3.9296     4.1740     1.3558 C.2     
  17 O17           -4.7545     1.4277    -0.0542 O.2     
  18 N18           -4.0714     3.5525     2.5798 N.pl3   
  19 C19           -3.4509     4.3035    -2.4861 C.3     
  20 C20           -3.8603     5.6797    -3.0478 C.3     
  21 C21           -3.5783     6.6019    -1.8446 C.3     
  22 C22           -1.1918    -2.2227     0.0561 C.3     
  23 H23           -3.3124    -0.6025     0.0502 H       
  24 H24           -1.2726     3.1691     0.0444 H       
  25 H25            1.2036     3.2030     0.0520 H       
  26 H26            3.3128     1.9845     0.0559 H       
  27 H27            3.3471    -0.4729     0.0582 H       
  28 H28            1.2742    -1.7513     0.0582 H       
  29 H29           -4.1068     4.0824     3.3916 H       
  30 H30           -4.1357     2.5859     2.6285 H       
  31 H31           -2.4076     4.0931    -2.7214 H       
  32 H32           -4.0961     3.5226    -2.8885 H       
  33 H33           -3.2414     5.9526    -3.9026 H       
  34 H34           -4.9176     5.6949    -3.3123 H       
  35 H35           -4.3117     7.4073    -1.8041 H       
  36 H36           -2.5693     7.0096    -1.9075 H       
  37 H37           -1.1900    -2.5848     1.0842 H       
  38 H38           -2.0779    -2.5943    -0.4585 H       
  39 H39           -0.2980    -2.5790    -0.4561 H       
@<TRIPOS>BOND
   1    1    2 ar
   2    1    7 ar
   3    1    6 ar
   4    2    3 ar
   5    2   10 ar
   6    3    4 ar
   7    3   22 1
   8    4    5 ar
   9    4   23 1
  10    5    6 ar
  11    5   11 1
  12    6   24 1
  13    7    8 ar
  14    7   25 1
  15    8    9 ar
  16    8   26 1
  17    9   10 ar
  18    9   27 1
  19   10   28 1
  20   11   12 1
  21   11   17 2
  22   12   13 1
  23   12   16 2
  24   13   14 2
  25   13   19 1
  26   14   15 1
  27   14   21 1
  28   15   16 1
  29   16   18 1
  30   18   29 1
  31   18   30 1
  32   19   20 1
  33   19   31 1
  34   19   32 1
  35   20   21 1
  36   20   33 1
  37   20   34 1
  38   21   35 1
  39   21   36 1
  40   22   37 1
  41   22   38 1
  42   22   39 1

#	End of record

