#	Name: ASD01850085
#	Creating user name:	WinNT
#	Creation time:	15. 06. 2019 19:38

#	Modifying user name:	WinNT
#	Modification time:	15. 06. 2019 19:38

#	Program:	/corina/corina34_cracker 3.40 0067  02.08.2006

@<TRIPOS>MOLECULE
ASD01850085
  66   70    0    0    0
SMALL
NO_CHARGES


@<TRIPOS>ATOM
   1 C1             8.8781     2.0753     1.3339 C.ar    
   2 C2             9.1515     3.2364     0.6358 C.ar    
   3 C3             8.1539     4.1716     0.4319 C.ar    
   4 C4             6.8831     3.9453     0.9259 C.ar    
   5 C5             6.6093     2.7834     1.6235 C.ar    
   6 C6             7.6070     1.8491     1.8285 C.ar    
   7 C7             3.4935     3.3390     0.4893 C.3     
   8 N8             4.3177     3.5802     1.6762 N.am    
   9 C9             4.2423     4.7617     2.3203 C.2     
  10 C10            5.1587     5.0463     3.4823 C.3     
  11 O11            3.4369     5.5959     1.9647 O.2     
  12 C12            5.1288     6.5430     3.8005 C.3     
  13 C13            4.6924     4.2535     4.7054 C.3     
  14 C14            5.6462     4.5184     5.8746 C.3     
  15 N15            5.7349     5.9685     6.0934 N.am    
  16 C16            6.0875     6.8338     4.9594 C.3     
  17 C17            6.9807     6.6613     8.4476 C.ar    
  18 C18            7.7778     7.7644     8.3478 C.ar    
  19 C19            8.9991     7.7997     9.0302 C.ar    
  20 C20            9.3922     6.6968     9.8125 C.ar    
  21 C21            8.5574     5.5849     9.8957 C.ar    
  22 C22            7.3679     5.5759     9.2244 C.ar    
  23 C23           10.0683     8.7861     9.1454 C.2     
  24 N24           10.9867     8.2883     9.9233 N.2     
  25 N25           10.6116     7.0111    10.3531 N.pl3   
  26 C26            5.2239     2.5371     2.1630 C.3     
  27 C27            4.2078     3.8873    -0.7476 C.3     
  28 C28            3.4759     3.5855    -2.0660 C.3     
  29 C29            3.8551     5.0079    -2.5108 C.3     
  30 C30            3.9181     5.3731    -1.0183 C.3     
  31 S31            5.4425     6.6156     7.5894 S.o2    
  32 O32            5.0626     7.9679     7.3745 O.2     
  33 O33            4.6259     5.6791     8.2790 O.2     
  34 C34            7.3087     0.5829     2.5894 C.3     
  35 F35            8.4955    -0.1293     2.7930 F       
  36 F36            6.7401     0.9051     3.8263 F       
  37 F37            6.4137    -0.2025     1.8550 F       
  38 H38            9.6563     1.3427     1.4893 H       
  39 H39           10.1446     3.4132     0.2498 H       
  40 H40            8.3677     5.0792    -0.1130 H       
  41 H41            6.1039     4.6762     0.7673 H       
  42 H42            3.3321     2.2676     0.3706 H       
  43 H43            2.5327     3.8404     0.6061 H       
  44 H44            6.1754     4.7503     3.2239 H       
  45 H45            5.4386     7.1081     2.9215 H       
  46 H46            4.1173     6.8346     4.0832 H       
  47 H47            3.6850     4.5667     4.9796 H       
  48 H48            4.6917     3.1891     4.4705 H       
  49 H49            5.2643     4.0358     6.7743 H       
  50 H50            6.6340     4.1236     5.6370 H       
  51 H51            7.1113     6.6278     4.6472 H       
  52 H52            5.9968     7.8789     5.2553 H       
  53 H53            7.4680     8.6053     7.7451 H       
  54 H54            8.8486     4.7330    10.4923 H       
  55 H55            6.7238     4.7117     9.2921 H       
  56 H56           10.0937     9.7557     8.6704 H       
  57 H57           11.1311     6.4397    10.9399 H       
  58 H58            4.8707     1.5626     1.8259 H       
  59 H59            5.2494     2.5574     3.2525 H       
  60 H60            5.2684     3.6368    -0.7698 H       
  61 H61            3.9487     2.8022    -2.6585 H       
  62 H62            2.4028     3.4371    -1.9456 H       
  63 H63            4.8196     5.0651    -3.0154 H       
  64 H64            3.0614     5.5220    -3.0529 H       
  65 H65            2.9659     5.7135    -0.6115 H       
  66 H66            4.7479     6.0330    -0.7649 H       
@<TRIPOS>BOND
   1    1    2 ar
   2    1    6 ar
   3    1   38 1
   4    2    3 ar
   5    2   39 1
   6    3    4 ar
   7    3   40 1
   8    4    5 ar
   9    4   41 1
  10    5    6 ar
  11    5   26 1
  12    6   34 1
  13    7    8 1
  14    7   27 1
  15    7   42 1
  16    7   43 1
  17    8    9 am
  18    8   26 1
  19    9   10 1
  20    9   11 2
  21   10   12 1
  22   10   13 1
  23   10   44 1
  24   12   16 1
  25   12   45 1
  26   12   46 1
  27   13   14 1
  28   13   47 1
  29   13   48 1
  30   14   15 1
  31   14   49 1
  32   14   50 1
  33   15   31 am
  34   15   16 1
  35   16   51 1
  36   16   52 1
  37   17   31 1
  38   17   18 ar
  39   17   22 ar
  40   18   19 ar
  41   18   53 1
  42   19   20 ar
  43   19   23 1
  44   20   21 ar
  45   20   25 1
  46   21   22 ar
  47   21   54 1
  48   22   55 1
  49   23   24 2
  50   23   56 1
  51   24   25 1
  52   25   57 1
  53   26   58 1
  54   26   59 1
  55   27   28 1
  56   27   30 1
  57   27   60 1
  58   28   29 1
  59   28   61 1
  60   28   62 1
  61   29   30 1
  62   29   63 1
  63   29   64 1
  64   30   65 1
  65   30   66 1
  66   31   32 2
  67   31   33 2
  68   34   35 1
  69   34   36 1
  70   34   37 1

#	End of record

