#	Name: ASD01910583
#	Creating user name:	WinNT
#	Creation time:	15. 06. 2019 19:56

#	Modifying user name:	WinNT
#	Modification time:	15. 06. 2019 19:56

#	Program:	/corina/corina34_cracker 3.40 0067  02.08.2006

@<TRIPOS>MOLECULE
ASD01910583
  44   47    0    0    0
SMALL
NO_CHARGES


@<TRIPOS>ATOM
   1 C1            -0.6686     1.8350    -1.9794 C.ar    
   2 C2            -0.7390     0.4765    -1.7124 C.ar    
   3 C3             0.3312    -0.1747    -1.1188 C.ar    
   4 C4             1.4720     0.5265    -0.7906 C.ar    
   5 C5             1.5482     1.8949    -1.0573 C.ar    
   6 C6             0.4674     2.5458    -1.6554 C.ar    
   7 F7            -1.8547    -0.2152    -2.0315 F       
   8 C8             2.7680     2.6516    -0.7074 C.2     
   9 N9             2.9790     3.9419    -0.9001 N.2     
  10 C10            4.2135     4.1785    -0.4299 C.2     
  11 N11            4.6875     3.0528     0.0164 N.2     
  12 O12            3.8752     2.1636    -0.1268 O.3     
  13 C13            4.9224     5.5083    -0.4208 C.3     
  14 C14            5.2596     5.8975     1.0204 C.3     
  15 C15            5.9502     7.2632     1.0335 C.3     
  16 C16            7.2563     7.1781     0.2374 C.3     
  17 N17            6.9582     6.6655    -1.1069 N.am    
  18 C18            6.2168     5.4034    -1.2333 C.3     
  19 C19            7.3573     7.3403    -2.2032 C.2     
  20 C20            8.0279     8.6490    -2.0616 C.ar    
  21 O21            7.1653     6.8721    -3.3085 O.2     
  22 C22            9.1112     8.7908    -1.1918 C.ar    
  23 C23            9.7336    10.0139    -1.0639 C.ar    
  24 C24            9.2859    11.1024    -1.7969 C.ar    
  25 C25            8.2105    10.9673    -2.6616 C.ar    
  26 C26            7.5845     9.7472    -2.8015 C.ar    
  27 F27            9.8995    12.2991    -1.6678 F       
  28 H28           -1.5035     2.3366    -2.4461 H       
  29 H29            0.2710    -1.2331    -0.9126 H       
  30 H30            2.3050     0.0183    -0.3278 H       
  31 H31            0.5214     3.6041    -1.8641 H       
  32 H32            4.2765     6.2679    -0.8611 H       
  33 H33            4.3423     5.9489     1.6068 H       
  34 H34            5.9250     5.1499     1.4522 H       
  35 H35            5.2951     8.0065     0.5793 H       
  36 H36            6.1691     7.5503     2.0620 H       
  37 H37            7.7022     8.1697     0.1598 H       
  38 H38            7.9478     6.5026     0.7410 H       
  39 H39            6.8236     4.5832    -0.8497 H       
  40 H40            5.9768     5.2240    -2.2813 H       
  41 H41            9.4604     7.9436    -0.6201 H       
  42 H42           10.5712    10.1248    -0.3913 H       
  43 H43            7.8655    11.8184    -3.2300 H       
  44 H44            6.7471     9.6430    -3.4755 H       
@<TRIPOS>BOND
   1    1    2 ar
   2    1    6 ar
   3    1   28 1
   4    2    3 ar
   5    2    7 1
   6    3    4 ar
   7    3   29 1
   8    4    5 ar
   9    4   30 1
  10    5    6 ar
  11    5    8 1
  12    6   31 1
  13    8    9 2
  14    8   12 1
  15    9   10 1
  16   10   11 2
  17   10   13 1
  18   11   12 1
  19   13   14 1
  20   13   18 1
  21   13   32 1
  22   14   15 1
  23   14   33 1
  24   14   34 1
  25   15   16 1
  26   15   35 1
  27   15   36 1
  28   16   17 1
  29   16   37 1
  30   16   38 1
  31   17   18 1
  32   17   19 am
  33   18   39 1
  34   18   40 1
  35   19   20 1
  36   19   21 2
  37   20   22 ar
  38   20   26 ar
  39   22   23 ar
  40   22   41 1
  41   23   24 ar
  42   23   42 1
  43   24   25 ar
  44   24   27 1
  45   25   26 ar
  46   25   43 1
  47   26   44 1

#	End of record

