#	Name: ASD00898002
#	Creating user name:	WinNT
#	Creation time:	15. 06. 2019 18:53

#	Modifying user name:	WinNT
#	Modification time:	15. 06. 2019 18:53

#	Program:	/corina/corina34_cracker 3.40 0067  02.08.2006

@<TRIPOS>MOLECULE
ASD00898002
  66   70    0    0    0
SMALL
NO_CHARGES


@<TRIPOS>ATOM
   1 N1            -0.0438     1.4363     0.0449 N.am    
   2 C2            -0.0760     0.0429     0.0732 C.ar    
   3 C3             0.3847    -0.6579    -1.0292 C.ar    
   4 N4             0.7532     0.0883    -2.1460 N.pl3   
   5 C5             1.7810     0.9742    -2.1785 C.2     
   6 C6             2.0192     1.9190    -1.2551 C.2     
   7 C7             1.2129     2.1535     0.0020 C.3     
   8 C8             0.4352    -2.0447    -1.0131 C.ar    
   9 C9            -0.0222    -2.7271     0.1071 C.ar    
  10 C10           -0.5193    -2.0280     1.1914 C.ar    
  11 C11           -0.5482    -0.6447     1.1819 C.ar    
  12 C12            3.0999     2.8177    -1.4154 C.2     
  13 C13            4.0080     2.7799    -2.6073 C.3     
  14 C14            3.2357     2.1946    -3.7953 C.3     
  15 C15            2.7064     0.8240    -3.3759 C.3     
  16 O16            3.2998     3.6517    -0.5541 O.2     
  17 C17            2.0670     3.1132    -4.1573 C.3     
  18 C18            4.1699     2.0439    -4.9976 C.3     
  19 O19            0.9262    -2.7275    -2.0815 O.3     
  20 C20            2.0433     1.7358     1.1882 C.ar    
  21 C21            1.7571     2.2412     2.4445 C.ar    
  22 C22            2.5181     1.8595     3.5336 C.ar    
  23 C23            3.5687     0.9691     3.3660 C.ar    
  24 C24            3.8528     0.4639     2.1057 C.ar    
  25 C25            3.0862     0.8442     1.0208 C.ar    
  26 Cl26           0.4422     3.3554     2.6526 Cl      
  27 O27            4.3186     0.5925     4.4350 O.3     
  28 C28            5.3841    -0.3273     4.1883 C.3     
  29 C29            6.0989    -0.6264     5.4808 C.ar    
  30 C30            5.6822    -1.6796     6.2733 C.ar    
  31 C31            6.3378    -1.9540     7.4590 C.ar    
  32 C32            7.4104    -1.1755     7.8519 C.ar    
  33 C33            7.8276    -0.1229     7.0589 C.ar    
  34 C34            7.1747     0.1488     5.8711 C.ar    
  35 C35           -1.2013     2.1266     0.0519 C.2     
  36 O36           -1.1844     3.3392     0.0274 O.2     
  37 C37           -2.5165     1.3920     0.0901 C.3     
  38 H38            0.2386    -0.0342    -2.9590 H       
  39 H39            1.0059     3.2203     0.0869 H       
  40 H40            0.0110    -3.8063     0.1312 H       
  41 H41           -0.8886    -2.5658     2.0520 H       
  42 H42           -0.9352    -0.1035     2.0326 H       
  43 H43            4.3379     3.7905    -2.8479 H       
  44 H44            4.8725     2.1529    -2.3886 H       
  45 H45            3.5434     0.1789    -3.1085 H       
  46 H46            2.1569     0.3782    -4.2050 H       
  47 H47            2.4488     4.0982    -4.4258 H       
  48 H48            1.5220     2.6921    -5.0021 H       
  49 H49            1.3976     3.2038    -3.3018 H       
  50 H50            4.9915     1.3764    -4.7379 H       
  51 H51            3.6154     1.6276    -5.8386 H       
  52 H52            4.5683     3.0205    -5.2728 H       
  53 H53            1.8783    -2.8914    -2.0397 H       
  54 H54            2.2953     2.2543     4.5138 H       
  55 H55            4.6702    -0.2294     1.9732 H       
  56 H56            3.3049     0.4478     0.0403 H       
  57 H57            4.9785    -1.2508     3.7752 H       
  58 H58            6.0854     0.1111     3.4783 H       
  59 H59            4.8442    -2.2878     5.9664 H       
  60 H60            6.0118    -2.7764     8.0785 H       
  61 H61            7.9222    -1.3894     8.7786 H       
  62 H62            8.6654     0.4856     7.3660 H       
  63 H63            7.5030     0.9689     5.2498 H       
  64 H64           -2.8152     1.2353     1.1266 H       
  65 H65           -3.2770     1.9815    -0.4220 H       
  66 H66           -2.4087     0.4277    -0.4066 H       
@<TRIPOS>BOND
   1    1    2 1
   2    1    7 1
   3    1   35 am
   4    2    3 ar
   5    2   11 ar
   6    3    4 1
   7    3    8 ar
   8    4    5 1
   9    4   38 1
  10    5    6 2
  11    5   15 1
  12    6    7 1
  13    6   12 1
  14    7   20 1
  15    7   39 1
  16    8    9 ar
  17    8   19 1
  18    9   10 ar
  19    9   40 1
  20   10   11 ar
  21   10   41 1
  22   11   42 1
  23   12   13 1
  24   12   16 2
  25   13   14 1
  26   13   43 1
  27   13   44 1
  28   14   15 1
  29   14   17 1
  30   14   18 1
  31   15   45 1
  32   15   46 1
  33   17   47 1
  34   17   48 1
  35   17   49 1
  36   18   50 1
  37   18   51 1
  38   18   52 1
  39   19   53 1
  40   20   21 ar
  41   20   25 ar
  42   21   22 ar
  43   21   26 1
  44   22   23 ar
  45   22   54 1
  46   23   24 ar
  47   23   27 1
  48   24   25 ar
  49   24   55 1
  50   25   56 1
  51   27   28 1
  52   28   29 1
  53   28   57 1
  54   28   58 1
  55   29   30 ar
  56   29   34 ar
  57   30   31 ar
  58   30   59 1
  59   31   32 ar
  60   31   60 1
  61   32   33 ar
  62   32   61 1
  63   33   34 ar
  64   33   62 1
  65   34   63 1
  66   35   36 2
  67   35   37 1
  68   37   64 1
  69   37   65 1
  70   37   66 1

#	End of record

