#	Name: ASD07930736
#	Creating user name:	WinNT
#	Creation time:	15. 06. 2019 21:13

#	Modifying user name:	WinNT
#	Modification time:	15. 06. 2019 21:13

#	Program:	/corina/corina34_cracker 3.40 0067  02.08.2006

@<TRIPOS>MOLECULE
ASD07930736
  29   30    0    0    0
SMALL
NO_CHARGES


@<TRIPOS>ATOM
   1 C1            -0.0178     1.4608     0.0101 C.3     
   2 N2             0.8031    -0.4153    -2.1619 N.2     
   3 N3            -0.8796    -1.7833    -1.2911 N.pl3   
   4 C4            -0.9005    -2.8248    -0.2586 C.3     
   5 C5            -1.2102    -2.1834     1.1010 C.3     
   6 S6             0.0275    -0.8859     1.4156 S.o2    
   7 N7             0.0021    -0.0041     0.0020 N.am    
   8 C8             0.0002    -0.7257    -1.1832 C.2     
   9 C9             0.4646    -3.5132    -0.1997 C.3     
  10 O10           -0.4323     0.0192     2.4099 O.2     
  11 O11            1.3354    -1.4387     1.4687 O.2     
  12 C12           -1.9634    -3.8404    -0.5898 C.2     
  13 S13           -3.3425    -4.2331     0.4286 S.3     
  14 C14           -3.9123    -5.4124    -0.7452 C.2     
  15 C15           -3.0782    -5.4464    -1.7869 C.2     
  16 C16           -2.0051    -4.5748    -1.7029 C.2     
  17 Br17          -5.4681    -6.4711    -0.5596 Br      
  18 Cl18          -0.7997    -4.4549    -2.9465 Cl      
  19 H19            1.0048     1.8381     0.0023 H       
  20 H20           -0.5450     1.8219    -0.8730 H       
  21 H21           -0.5280     1.8123     0.9069 H       
  22 H22            0.7883    -0.9307    -2.9835 H       
  23 H23           -1.4804    -1.8399    -2.0505 H       
  24 H24           -2.2071    -1.7432     1.0811 H       
  25 H25           -1.1573    -2.9394     1.8845 H       
  26 H26            1.2322    -2.7780     0.0418 H       
  27 H27            0.4485    -4.2871     0.5677 H       
  28 H28            0.6857    -3.9650    -1.1667 H       
  29 H29           -3.2305    -6.1010    -2.6323 H       
@<TRIPOS>BOND
   1    1    7 1
   2    1   19 1
   3    1   20 1
   4    1   21 1
   5    2    8 2
   6    2   22 1
   7    3    4 1
   8    3    8 1
   9    3   23 1
  10    4    5 1
  11    4    9 1
  12    4   12 1
  13    5    6 1
  14    5   24 1
  15    5   25 1
  16    6    7 am
  17    6   10 2
  18    6   11 2
  19    7    8 1
  20    9   26 1
  21    9   27 1
  22    9   28 1
  23   12   13 1
  24   12   16 2
  25   13   14 1
  26   14   15 2
  27   14   17 1
  28   15   16 1
  29   15   29 1
  30   16   18 1

#	End of record

