#	Name: ASD01912412
#	Creating user name:	WinNT
#	Creation time:	15. 06. 2019 19:59

#	Modifying user name:	WinNT
#	Modification time:	15. 06. 2019 19:59

#	Program:	/corina/corina34_cracker 3.40 0067  02.08.2006

@<TRIPOS>MOLECULE
ASD01912412
  45   48    0    0    0
SMALL
NO_CHARGES


@<TRIPOS>ATOM
   1 C1            -0.0172     1.4139     0.0098 C.ar    
   2 C2             0.0021    -0.0041     0.0020 C.ar    
   3 N3             1.1418     2.0834     0.0023 N.ar    
   4 N4             1.1702    -0.6538    -0.0122 N.ar    
   5 C5             2.2936     0.0278    -0.0188 C.ar    
   6 C6             2.2775     1.4238    -0.0120 C.ar    
   7 C7            -1.2183    -0.7037     0.0099 C.ar    
   8 C8            -2.3887     0.0306     0.0251 C.ar    
   9 C9            -2.3275     1.4307     0.0320 C.ar    
  10 N10           -1.1829     2.0672     0.0300 N.ar    
  11 N11           -3.6241    -0.6179     0.0330 N.3     
  12 C12           -4.7270     0.3512     0.0488 C.3     
  13 C13           -6.0524    -0.3819    -0.1879 C.3     
  14 C14           -6.1634    -1.5003     0.8270 C.2     
  15 C15           -4.9738    -2.4223     0.9941 C.3     
  16 C16           -3.7169    -1.5596     1.1557 C.3     
  17 C17           -7.2705    -1.6673     1.5491 C.2     
  18 C18           -7.3497    -2.7330     2.5023 C.1     
  19 C19           -7.4147    -3.6067     3.2838 C.1     
  20 C20           -7.4939    -4.6724     4.2370 C.ar    
  21 C21           -8.6579    -4.8432     4.9921 C.ar    
  22 C22           -8.7179    -5.8772     5.9081 C.ar    
  23 C23           -7.6143    -6.7095     6.0428 C.ar    
  24 C24           -6.4939    -6.4844     5.2640 C.ar    
  25 N25           -6.4616    -5.4961     4.3938 N.ar    
  26 C26           -5.2954    -7.3863     5.4085 C.3     
  27 H27            3.2377    -0.4966    -0.0300 H       
  28 H28            3.2103     1.9680    -0.0184 H       
  29 H29           -1.2399    -1.7834     0.0040 H       
  30 H30           -3.2462     1.9983     0.0438 H       
  31 H31           -4.7566     0.8525     1.0162 H       
  32 H32           -4.5740     1.0891    -0.7388 H       
  33 H33           -6.8837     0.3120    -0.0627 H       
  34 H34           -6.0680    -0.7970    -1.1956 H       
  35 H35           -5.1106    -3.0421     1.8802 H       
  36 H36           -4.8736    -3.0564     0.1132 H       
  37 H37           -2.8351    -2.2002     1.1667 H       
  38 H38           -3.7749    -1.0044     2.0919 H       
  39 H39           -8.1083    -0.9989     1.4156 H       
  40 H40           -9.4979    -4.1770     4.8621 H       
  41 H41           -9.6035    -6.0340     6.5061 H       
  42 H42           -7.6308    -7.5255     6.7500 H       
  43 H43           -5.3861    -8.2246     4.7178 H       
  44 H44           -4.3889    -6.8251     5.1818 H       
  45 H45           -5.2443    -7.7617     6.4306 H       
@<TRIPOS>BOND
   1    1    2 ar
   2    1    3 ar
   3    1   10 ar
   4    2    4 ar
   5    2    7 ar
   6    3    6 ar
   7    4    5 ar
   8    5    6 ar
   9    5   27 1
  10    6   28 1
  11    7    8 ar
  12    7   29 1
  13    8    9 ar
  14    8   11 1
  15    9   10 ar
  16    9   30 1
  17   11   12 1
  18   11   16 1
  19   12   13 1
  20   12   31 1
  21   12   32 1
  22   13   14 1
  23   13   33 1
  24   13   34 1
  25   14   15 1
  26   14   17 2
  27   15   16 1
  28   15   35 1
  29   15   36 1
  30   16   37 1
  31   16   38 1
  32   17   18 1
  33   17   39 1
  34   18   19 3
  35   19   20 1
  36   20   21 ar
  37   20   25 ar
  38   21   22 ar
  39   21   40 1
  40   22   23 ar
  41   22   41 1
  42   23   24 ar
  43   23   42 1
  44   24   25 ar
  45   24   26 1
  46   26   43 1
  47   26   44 1
  48   26   45 1

#	End of record

