#	Name: ASD01913812
#	Creating user name:	WinNT
#	Creation time:	15. 06. 2019 20:02

#	Modifying user name:	WinNT
#	Modification time:	15. 06. 2019 20:02

#	Program:	/corina/corina34_cracker 3.40 0067  02.08.2006

@<TRIPOS>MOLECULE
ASD01913812
  39   41    0    0    0
SMALL
NO_CHARGES


@<TRIPOS>ATOM
   1 C1            -0.0223     1.4278    -0.0314 C.ar    
   2 C2            -0.0014    -0.0041    -0.0270 C.1     
   3 C3             0.0157    -1.1780    -0.0233 C.1     
   4 C4             0.0365    -2.6098    -0.0189 C.ar    
   5 C5            -1.1336    -3.3382     0.2422 C.ar    
   6 C6             0.1561    -5.3344    -0.0280 C.ar    
   7 N7             1.2427    -4.6190    -0.2767 N.ar    
   8 C8             1.2210    -3.3024    -0.2802 C.ar    
   9 C9            -1.0629    -4.7169     0.2354 C.ar    
  10 N10            0.2332    -6.7251    -0.0364 N.am    
  11 C11           -0.8328    -7.5439    -0.0310 C.2     
  12 C12           -0.3801    -8.9874    -0.0331 C.3     
  13 C13            1.1087    -8.9185     0.3788 C.3     
  14 C14            1.4888    -7.4847    -0.0588 C.3     
  15 O15           -1.9892    -7.1786    -0.0248 O.2     
  16 C16            1.1422     2.1547    -0.2912 C.ar    
  17 N17            1.1221     3.4714    -0.2950 N.ar    
  18 C18            0.0176     4.1523    -0.0571 C.ar    
  19 C19           -1.1771     3.5069     0.2094 C.ar    
  20 C20           -1.2125     2.1243     0.2193 C.ar    
  21 C21            1.2673    -9.0959     1.8902 C.3     
  22 C22            1.9359    -9.9567    -0.3820 C.3     
  23 H23           -2.0666    -2.8330     0.4439 H       
  24 H24            2.1274    -2.7529    -0.4875 H       
  25 H25           -1.9439    -5.3097     0.4326 H       
  26 H26           -0.9504    -9.5671     0.6927 H       
  27 H27           -0.4807    -9.4172    -1.0297 H       
  28 H28            1.9117    -7.4966    -1.0634 H       
  29 H29            2.1992    -7.0513     0.6452 H       
  30 H30            2.0663     1.6325    -0.4903 H       
  31 H31            0.0463     5.2318    -0.0701 H       
  32 H32           -2.0737     4.0770     0.4028 H       
  33 H33           -2.1315     1.5951     0.4239 H       
  34 H34            0.8905   -10.0760     2.1826 H       
  35 H35            2.3214    -9.0176     2.1566 H       
  36 H36            0.7031    -8.3204     2.4083 H       
  37 H37            1.8395    -9.7835    -1.4538 H       
  38 H38            2.9832    -9.8697    -0.0926 H       
  39 H39            1.5744   -10.9565    -0.1415 H       
@<TRIPOS>BOND
   1    1    2 1
   2    1   16 ar
   3    1   20 ar
   4    2    3 3
   5    3    4 1
   6    4    5 ar
   7    4    8 ar
   8    5    9 ar
   9    5   23 1
  10    6    7 ar
  11    6   10 1
  12    6    9 ar
  13    7    8 ar
  14    8   24 1
  15    9   25 1
  16   10   11 am
  17   10   14 1
  18   11   12 1
  19   11   15 2
  20   12   13 1
  21   12   26 1
  22   12   27 1
  23   13   14 1
  24   13   21 1
  25   13   22 1
  26   14   28 1
  27   14   29 1
  28   16   17 ar
  29   16   30 1
  30   17   18 ar
  31   18   19 ar
  32   18   31 1
  33   19   20 ar
  34   19   32 1
  35   20   33 1
  36   21   34 1
  37   21   35 1
  38   21   36 1
  39   22   37 1
  40   22   38 1
  41   22   39 1

#	End of record

