#	Name: ASD03331318
#	Creating user name:	WinNT
#	Creation time:	15. 06. 2019 20:39

#	Modifying user name:	WinNT
#	Modification time:	15. 06. 2019 20:39

#	Program:	/corina/corina34_cracker 3.40 0067  02.08.2006

@<TRIPOS>MOLECULE
ASD03331318
  54   56    0    0    0
SMALL
NO_CHARGES


@<TRIPOS>ATOM
   1 C1             0.3900     1.6452    -1.4059 C.3     
   2 C2             0.2845     0.1563    -1.1914 C.2     
   3 C3             1.3411    -0.6875    -1.2757 C.2     
   4 C4             2.7415    -0.2284    -1.5989 C.3     
   5 C5             2.6492     1.1893    -2.1808 C.3     
   6 N6             1.8098     2.0259    -1.3126 N.3     
   7 N7            -0.4853    -1.8661    -0.7820 N.2     
   8 N8             0.8951    -1.9415    -1.0255 N.am    
   9 C9            -0.8537    -0.6049    -0.8818 C.2     
  10 C10            1.6433    -3.0625    -1.0130 C.2     
  11 O11            2.8351    -2.9999    -1.2409 O.2     
  12 N12            1.0695    -4.2528    -0.7478 N.am    
  13 C13            1.9938     3.4511    -1.6171 C.3     
  14 C14           -2.2299    -0.0812    -0.6989 C.ar    
  15 C15           -3.3258    -0.8395    -1.1066 C.ar    
  16 C16           -4.6053    -0.3480    -0.9339 C.ar    
  17 C17           -4.7987     0.8988    -0.3558 C.ar    
  18 C18           -3.7114     1.6539     0.0499 C.ar    
  19 C19           -2.4301     1.1673    -0.1140 C.ar    
  20 F20           -6.0511     1.3772    -0.1891 F       
  21 F21           -5.6691    -1.0815    -1.3283 F       
  22 C22            2.0082    -6.0072    -2.1372 C.2     
  23 C23            1.8828    -5.4712    -0.7343 C.3     
  24 C24            1.2137    -6.5212     0.1549 C.3     
  25 C25           -0.2105    -6.7776    -0.3421 C.3     
  26 C26           -0.8316    -7.9237     0.4589 C.3     
  27 O27            1.1987    -5.6891    -2.9824 O.2     
  28 C28            1.1667    -6.0130     1.5973 C.3     
  29 N29            3.0199    -6.8399    -2.4525 N.am    
  30 H30            0.0046     1.9026    -2.3924 H       
  31 H31           -0.1818     2.1683    -0.6394 H       
  32 H32            3.3445    -0.2160    -0.6910 H       
  33 H33            3.1900    -0.8994    -2.3315 H       
  34 H34            3.6480     1.6208    -2.2451 H       
  35 H35            2.2088     1.1447    -3.1769 H       
  36 H36            0.1180    -4.3027    -0.5660 H       
  37 H37            1.4238     4.0508    -0.9074 H       
  38 H38            3.0510     3.7054    -1.5409 H       
  39 H39            1.6432     3.6547    -2.6288 H       
  40 H40           -3.1751    -1.8095    -1.5570 H       
  41 H41           -3.8662     2.6237     0.4993 H       
  42 H42           -1.5833     1.7559     0.2068 H       
  43 H43            2.8740    -5.2421    -0.3429 H       
  44 H44            1.7850    -7.4486     0.1149 H       
  45 H45           -0.8090    -5.8762    -0.2106 H       
  46 H46           -0.1840    -7.0453    -1.3984 H       
  47 H47           -0.2330    -8.8251     0.3274 H       
  48 H48           -0.8581    -7.6561     1.5152 H       
  49 H49           -1.8462    -8.1064     0.1049 H       
  50 H50            0.5954    -5.0855     1.6373 H       
  51 H51            0.6899    -6.7610     2.2307 H       
  52 H52            2.1812    -5.8303     1.9513 H       
  53 H53            3.0600    -7.2423    -3.3342 H       
  54 H54            3.7080    -7.0369    -1.7978 H       
@<TRIPOS>BOND
   1    1    2 1
   2    1    6 1
   3    1   30 1
   4    1   31 1
   5    2    3 2
   6    2    9 1
   7    3    4 1
   8    3    8 1
   9    4    5 1
  10    4   32 1
  11    4   33 1
  12    5    6 1
  13    5   34 1
  14    5   35 1
  15    6   13 1
  16    7    8 1
  17    7    9 2
  18    8   10 am
  19    9   14 1
  20   10   11 2
  21   10   12 am
  22   12   23 1
  23   12   36 1
  24   13   37 1
  25   13   38 1
  26   13   39 1
  27   14   15 ar
  28   14   19 ar
  29   15   16 ar
  30   15   40 1
  31   16   17 ar
  32   16   21 1
  33   17   18 ar
  34   17   20 1
  35   18   19 ar
  36   18   41 1
  37   19   42 1
  38   22   27 2
  39   22   29 am
  40   22   23 1
  41   23   24 1
  42   23   43 1
  43   24   25 1
  44   24   28 1
  45   24   44 1
  46   25   26 1
  47   25   45 1
  48   25   46 1
  49   26   47 1
  50   26   48 1
  51   26   49 1
  52   28   50 1
  53   28   51 1
  54   28   52 1
  55   29   53 1
  56   29   54 1

#	End of record

