#	Name: ASD03910144
#	Creating user name:	WinNT
#	Creation time:	15. 06. 2019 20:47

#	Modifying user name:	WinNT
#	Modification time:	15. 06. 2019 20:47

#	Program:	/corina/corina34_cracker 3.40 0067  02.08.2006

@<TRIPOS>MOLECULE
ASD03910144
  63   62    0    0    0
SMALL
NO_CHARGES


@<TRIPOS>ATOM
   1 C1            -0.0127     1.0858     0.0080 C.3     
   2 O2            -0.7038     1.5592    -1.1497 O.3     
   3 C3            -0.7288     1.5792     1.2668 C.3     
   4 N4            -0.6445     3.0442     1.3358 N.3     
   5 C5            -0.0638     0.9713     2.5033 C.3     
   6 O6            -0.1458    -0.4537     2.4363 O.3     
   7 C7            -0.7691     1.4573     3.7432 C.2     
   8 C8            -1.2471     0.5947     4.6055 C.2     
   9 C9            -1.9525     1.0807     5.8454 C.3     
  10 C10           -3.3451     0.4513     5.9198 C.3     
  11 C11           -4.0612     0.9447     7.1786 C.3     
  12 C12           -5.4537     0.3153     7.2529 C.3     
  13 C13           -6.1699     0.8087     8.5117 C.3     
  14 C14           -7.5624     0.1793     8.5861 C.3     
  15 C15           -8.2786     0.6727     9.8449 C.3     
  16 C16           -9.6711     0.0433     9.9193 C.3     
  17 C17          -10.3873     0.5367    11.1781 C.3     
  18 C18          -11.7798    -0.0927    11.2524 C.3     
  19 C19          -12.4960     0.4007    12.5112 C.3     
  20 C20          -13.8885    -0.2287    12.5856 C.3     
  21 C21          -14.6046     0.2647    13.8444 C.3     
  22 P22           -0.2267     1.2297    -2.6516 P.3     
  23 O23           -0.3532    -0.3528    -2.9199 O.3     
  24 O24           -1.1558     2.0271    -3.6970 O.3     
  25 O25            1.1822     1.6483    -2.8247 O.2     
  26 H26            0.0021    -0.0041     0.0020 H       
  27 H27            1.0099     1.4631     0.0003 H       
  28 H28           -1.7755     1.2768     1.2315 H       
  29 H29           -1.1648     3.3997     2.1238 H       
  30 H30            0.3165     3.3498     1.3694 H       
  31 H31            0.9829     1.2737     2.5386 H       
  32 H32           -1.0502    -0.7944     2.4021 H       
  33 H33           -0.8806     2.5168     3.9209 H       
  34 H34           -1.1357    -0.4647     4.4278 H       
  35 H35           -1.3773     0.7953     6.7261 H       
  36 H36           -2.0459     2.1661     5.8085 H       
  37 H37           -3.9203     0.7367     5.0390 H       
  38 H38           -3.2517    -0.6341     5.9567 H       
  39 H39           -3.4860     0.6593     8.0593 H       
  40 H40           -4.1546     2.0301     7.1416 H       
  41 H41           -6.0290     0.6007     6.3722 H       
  42 H42           -5.3604    -0.7701     7.2899 H       
  43 H43           -5.5946     0.5233     9.3925 H       
  44 H44           -6.2632     1.8941     8.4748 H       
  45 H45           -8.1377     0.4647     7.7053 H       
  46 H46           -7.4691    -0.9061     8.6230 H       
  47 H47           -7.7033     0.3873    10.7256 H       
  48 H48           -8.3719     1.7581     9.8080 H       
  49 H49          -10.2464     0.3287     9.0385 H       
  50 H50           -9.5778    -1.0421     9.9562 H       
  51 H51           -9.8120     0.2513    12.0588 H       
  52 H52          -10.4806     1.6221    11.1411 H       
  53 H53          -12.3551     0.1927    10.3717 H       
  54 H54          -11.6865    -1.1781    11.2894 H       
  55 H55          -11.9207     0.1153    13.3920 H       
  56 H56          -12.5893     1.4861    12.4743 H       
  57 H57          -14.4637     0.0567    11.7048 H       
  58 H58          -13.7951    -1.3141    12.6225 H       
  59 H59          -14.0294    -0.0207    14.7252 H       
  60 H60          -14.6980     1.3501    13.8075 H       
  61 H61          -15.5967    -0.1837    13.8974 H       
  62 H62           -1.2516    -0.6974    -2.8238 H       
  63 H63           -0.9249     1.8755    -4.6237 H       
@<TRIPOS>BOND
   1    1   26 1
   2    1   27 1
   3    1    2 1
   4    1    3 1
   5    2   22 1
   6    3   28 1
   7    3    4 1
   8    3    5 1
   9    4   29 1
  10    4   30 1
  11    5    6 1
  12    5   31 1
  13    5    7 1
  14    6   32 1
  15    7   33 1
  16    7    8 2
  17    8   34 1
  18    8    9 1
  19    9   35 1
  20    9   36 1
  21    9   10 1
  22   10   37 1
  23   10   38 1
  24   10   11 1
  25   11   12 1
  26   11   39 1
  27   11   40 1
  28   12   41 1
  29   12   42 1
  30   12   13 1
  31   13   43 1
  32   13   44 1
  33   13   14 1
  34   14   45 1
  35   14   46 1
  36   14   15 1
  37   15   16 1
  38   15   47 1
  39   15   48 1
  40   16   49 1
  41   16   50 1
  42   16   17 1
  43   17   18 1
  44   17   51 1
  45   17   52 1
  46   18   19 1
  47   18   53 1
  48   18   54 1
  49   19   20 1
  50   19   55 1
  51   19   56 1
  52   20   21 1
  53   20   57 1
  54   20   58 1
  55   21   59 1
  56   21   60 1
  57   21   61 1
  58   22   23 1
  59   22   24 1
  60   22   25 2
  61   23   62 1
  62   24   63 1

#	End of record

