#	Name: ASD01815519
#	Creating user name:	WinNT
#	Creation time:	15. 06. 2019 19:33

#	Modifying user name:	WinNT
#	Modification time:	15. 06. 2019 19:33

#	Program:	/corina/corina34_cracker 3.40 0067  02.08.2006

@<TRIPOS>MOLECULE
ASD01815519
  67   72    0    0    0
SMALL
NO_CHARGES


@<TRIPOS>ATOM
   1 C1            -0.1170     1.2758    -0.2421 C.ar    
   2 C2            -0.0563    -0.1140    -0.2422 C.ar    
   3 C3             1.1401    -0.7641    -0.1781 C.ar    
   4 C4             2.3313    -0.0254    -0.1110 C.ar    
   5 C5             2.2657     1.3894    -0.1112 C.ar    
   6 C6             1.0216     2.0248    -0.1779 C.ar    
   7 C7             3.5841    -0.6704    -0.0443 C.ar    
   8 C8             4.7353     0.0401     0.0200 C.ar    
   9 C9             4.7259     1.4437     0.0228 C.ar    
  10 C10            3.5104     2.1491    -0.0412 C.ar    
  11 C11            5.9678     2.2243     0.0913 C.2     
  12 N12            5.8576     3.5731     0.0876 N.am    
  13 C13            4.6383     4.1641     0.0232 C.2     
  14 N14            3.5256     3.4926    -0.0385 N.2     
  15 O15            7.0551     1.6789     0.1495 O.2     
  16 C16            7.0642     4.4013     0.1543 C.3     
  17 C17            7.0113     5.2842     1.4049 C.3     
  18 C18            8.2369     6.2015     1.4247 C.3     
  19 O19            8.2640     6.9838     0.2291 O.3     
  20 C20            8.3611     6.2132    -0.9704 C.3     
  21 C21            7.1405     5.2964    -1.0864 C.3     
  22 O22            7.0131     4.4597     2.5720 O.3     
  23 C23            3.6424    -2.1763    -0.0442 C.3     
  24 N24            3.4194    -2.6748     1.3195 N.4     
  25 C25            3.4325    -4.1426     1.3105 C.3     
  26 C26            3.1202    -4.6678     2.7134 C.3     
  27 C27            4.1787    -4.1524     3.6928 C.3     
  28 C28            4.2076    -2.6222     3.6391 C.3     
  29 C29            4.4796    -2.1728     2.2019 C.3     
  30 C30            3.8340    -4.6012     5.0895 C.ar    
  31 C31            4.7887    -4.5271     6.0857 C.ar    
  32 N32            2.6230    -5.0550     5.3480 N.ar    
  33 C33            2.2766    -5.4580     6.5547 C.ar    
  34 C34            3.1801    -5.4180     7.6001 C.ar    
  35 C35            4.4613    -4.9422     7.3677 C.ar    
  36 O36            2.1220    -2.2031     1.8036 O.3     
  37 C37            5.4987    -4.6832     3.3152 C.1     
  38 N38            6.5174    -5.0929     3.0238 N.1     
  39 H39           -1.0767     1.7679    -0.2981 H       
  40 H40           -0.9707    -0.6864    -0.2933 H       
  41 H41            1.1710    -1.8436    -0.1787 H       
  42 H42            0.9625     3.1032    -0.1789 H       
  43 H43            5.6787    -0.4833     0.0705 H       
  44 H44            4.5889     5.2429     0.0231 H       
  45 H45            7.9446     3.7601     0.1976 H       
  46 H46            6.1044     5.8885     1.3860 H       
  47 H47            8.1827     6.8619     2.2901 H       
  48 H48            9.1422     5.5973     1.4844 H       
  49 H49            8.3963     6.8821    -1.8303 H       
  50 H50            9.2680     5.6092    -0.9420 H       
  51 H51            7.2342     4.6762    -1.9778 H       
  52 H52            6.2361     5.9009    -1.1556 H       
  53 H53            6.9808     4.9537     3.4026 H       
  54 H54            2.8706    -2.5698    -0.7057 H       
  55 H55            4.6219    -2.5020    -0.3945 H       
  56 H56            2.6808    -4.5078     0.6107 H       
  57 H57            4.4167    -4.4949     1.0018 H       
  58 H58            2.1360    -4.3163     3.0230 H       
  59 H59            3.1321    -5.7577     2.7050 H       
  60 H60            3.2460    -2.2282     3.9679 H       
  61 H61            4.9968    -2.2499     4.2923 H       
  62 H62            5.4415    -2.5670     1.8742 H       
  63 H63            4.5010    -1.0838     2.1601 H       
  64 H64            5.7776    -4.1511     5.8686 H       
  65 H65            1.2751    -5.8232     6.7285 H       
  66 H66            2.8904    -5.7495     8.5863 H       
  67 H67            5.1883    -4.8997     8.1652 H       
@<TRIPOS>BOND
   1    1    2 ar
   2    1    6 ar
   3    1   39 1
   4    2    3 ar
   5    2   40 1
   6    3    4 ar
   7    3   41 1
   8    4    5 ar
   9    4    7 ar
  10    5    6 ar
  11    5   10 ar
  12    6   42 1
  13    7    8 ar
  14    7   23 1
  15    8    9 ar
  16    8   43 1
  17    9   10 ar
  18    9   11 1
  19   10   14 1
  20   11   12 am
  21   11   15 2
  22   12   13 1
  23   12   16 1
  24   13   14 2
  25   13   44 1
  26   16   17 1
  27   16   21 1
  28   16   45 1
  29   17   18 1
  30   17   22 1
  31   17   46 1
  32   18   19 1
  33   18   47 1
  34   18   48 1
  35   19   20 1
  36   20   21 1
  37   20   49 1
  38   20   50 1
  39   21   51 1
  40   21   52 1
  41   22   53 1
  42   23   24 1
  43   23   54 1
  44   23   55 1
  45   24   25 1
  46   24   36 1
  47   24   29 1
  48   25   26 1
  49   25   56 1
  50   25   57 1
  51   26   27 1
  52   26   58 1
  53   26   59 1
  54   27   28 1
  55   27   30 1
  56   27   37 1
  57   28   29 1
  58   28   60 1
  59   28   61 1
  60   29   62 1
  61   29   63 1
  62   30   31 ar
  63   30   32 ar
  64   31   35 ar
  65   31   64 1
  66   32   33 ar
  67   33   34 ar
  68   33   65 1
  69   34   35 ar
  70   34   66 1
  71   35   67 1
  72   37   38 3

#	End of record

