#	Name: ASD01120203
#	Creating user name:	WinNT
#	Creation time:	15. 06. 2019 18:59

#	Modifying user name:	WinNT
#	Modification time:	15. 06. 2019 18:59

#	Program:	/corina/corina34_cracker 3.40 0067  02.08.2006

@<TRIPOS>MOLECULE
ASD01120203
  42   44    0    0    0
SMALL
NO_CHARGES


@<TRIPOS>ATOM
   1 C1            -0.0105     2.4527     0.5814 C.ar    
   2 C2             0.2315     1.0877     0.6269 C.ar    
   3 C3            -0.8147     0.1891     0.5613 C.ar    
   4 C4            -2.1157     0.6507     0.4498 C.ar    
   5 C5            -2.3656     2.0306     0.4039 C.ar    
   6 C6            -1.3006     2.9288     0.4762 C.ar    
   7 O7            -3.3211     0.0414     0.3666 O.3     
   8 C8            -4.2667     0.9927     0.2741 C.2     
   9 N9            -3.7146     2.1789     0.2949 N.2     
  10 Cl10           1.3172     3.5680     0.6645 Cl      
  11 N11           -5.6185     0.7537     0.1723 N.am    
  12 S12           -6.6778     2.0221     0.0649 S.o2    
  13 O13           -7.9737     1.4530    -0.0611 O.2     
  14 O14           -6.3244     2.9289     1.1003 O.2     
  15 C15           -6.3480     2.8497    -1.4553 C.ar    
  16 C16           -7.0096     2.4661    -2.6074 C.ar    
  17 C17           -6.7533     3.1129    -3.8005 C.ar    
  18 C18           -5.8304     4.1497    -3.8423 C.ar    
  19 C19           -5.1679     4.5328    -2.6835 C.ar    
  20 C20           -5.4322     3.8852    -1.4925 C.ar    
  21 N21           -5.5681     4.8066    -5.0496 N.am    
  22 C22           -6.5621     5.0071    -5.9375 C.2     
  23 C23           -6.3045     5.8057    -7.1892 C.3     
  24 C24           -7.5881     5.8824    -8.0184 C.3     
  25 C25           -7.3267     6.6932    -9.2893 C.3     
  26 O26           -7.6638     4.5447    -5.7290 O.2     
  27 H27            1.2451     0.7253     0.7139 H       
  28 H28           -0.6187    -0.8724     0.5966 H       
  29 H29           -1.4849     3.9924     0.4419 H       
  30 H30           -5.9506    -0.1576     0.1636 H       
  31 H31           -7.7273     1.6598    -2.5742 H       
  32 H32           -7.2699     2.8124    -4.7001 H       
  33 H33           -4.4496     5.3387    -2.7127 H       
  34 H34           -4.9176     4.1829    -0.5909 H       
  35 H35           -4.6709     5.1177    -5.2475 H       
  36 H36           -5.9860     6.8124    -6.9188 H       
  37 H37           -5.5224     5.3220    -7.7744 H       
  38 H38           -7.9067     4.8757    -8.2888 H       
  39 H39           -8.3703     6.3661    -7.4333 H       
  40 H40           -7.0081     7.6999    -9.0188 H       
  41 H41           -6.5445     6.2095    -9.8744 H       
  42 H42           -8.2411     6.7478    -9.8799 H       
@<TRIPOS>BOND
   1    1    2 ar
   2    1   10 1
   3    1    6 ar
   4    2    3 ar
   5    2   27 1
   6    3    4 ar
   7    3   28 1
   8    4    5 ar
   9    4    7 1
  10    5    6 ar
  11    5    9 1
  12    6   29 1
  13    7    8 1
  14    8    9 2
  15    8   11 1
  16   11   12 am
  17   11   30 1
  18   12   13 2
  19   12   14 2
  20   12   15 1
  21   15   16 ar
  22   15   20 ar
  23   16   17 ar
  24   16   31 1
  25   17   18 ar
  26   17   32 1
  27   18   19 ar
  28   18   21 1
  29   19   20 ar
  30   19   33 1
  31   20   34 1
  32   21   22 am
  33   21   35 1
  34   22   23 1
  35   22   26 2
  36   23   24 1
  37   23   36 1
  38   23   37 1
  39   24   25 1
  40   24   38 1
  41   24   39 1
  42   25   40 1
  43   25   41 1
  44   25   42 1

#	End of record

