#	Name: ASD02560180
#	Creating user name:	WinNT
#	Creation time:	15. 06. 2019 20:24

#	Modifying user name:	WinNT
#	Modification time:	15. 06. 2019 20:24

#	Program:	/corina/corina34_cracker 3.40 0067  02.08.2006

@<TRIPOS>MOLECULE
ASD02560180
  53   56    0    0    0
SMALL
NO_CHARGES


@<TRIPOS>ATOM
   1 Br1            1.9568     2.5280    -1.6849 Br      
   2 N2             0.0630     1.3523     0.0657 N.2     
   3 N3            -0.0027     0.1219    -0.0164 N.2     
   4 C4             1.4584     1.8103     0.0763 C.3     
   5 N5             2.2534     0.5944     0.3829 N.3     
   6 C6             1.3360    -0.4789    -0.0765 C.3     
   7 S7             1.4356    -1.9120     1.0311 S.3     
   8 C8             0.9386    -1.2240     2.6343 C.3     
   9 C9             0.9708    -2.3099     3.6788 C.2     
  10 O10            1.2970    -3.4370     3.3718 O.2     
  11 N11            0.6373    -2.0285     4.9539 N.am    
  12 C12            3.4456     0.5792    -0.3446 C.ar    
  13 C13            0.5877    -3.0528     5.9067 C.ar    
  14 C14           -0.2357    -2.9296     7.0197 C.ar    
  15 C15           -0.2823    -3.9431     7.9579 C.ar    
  16 C16            0.4893    -5.0785     7.7899 C.ar    
  17 C17            1.3092    -5.2035     6.6838 C.ar    
  18 C18            1.3565    -4.1963     5.7392 C.ar    
  19 Cl19          -1.2039    -1.5042     7.2311 Cl      
  20 S20            0.4277    -6.3684     8.9887 S.o2    
  21 O21            1.6500    -7.0836     8.8717 O.2     
  22 O22           -0.0093    -5.7692    10.2008 O.2     
  23 C23            3.4182     0.4051    -1.7223 C.ar    
  24 C24            4.6613     0.7440     0.3075 C.ar    
  25 C25            5.8381     0.7284    -0.4148 C.ar    
  26 C26            5.8075     0.5495    -1.7859 C.ar    
  27 C27            4.5990     0.3905    -2.4386 C.ar    
  28 N28           -0.7712    -7.4122     8.5244 N.am    
  29 C29            7.0937     0.5341    -2.5709 C.3     
  30 C30            7.4236    -0.7335    -3.3616 C.3     
  31 C31            6.9898     0.5359    -4.0974 C.3     
  32 C32            4.6956     0.9400     1.8013 C.3     
  33 H33            1.6045     2.5644     0.8496 H       
  34 H34            1.5755    -0.7710    -1.0990 H       
  35 H35            1.6269    -0.4274     2.9170 H       
  36 H36           -0.0717    -0.8217     2.5596 H       
  37 H37            0.4315    -1.1162     5.2114 H       
  38 H38           -0.9215    -3.8483     8.8232 H       
  39 H39            1.9106    -6.0914     6.5559 H       
  40 H40            1.9974    -4.2951     4.8755 H       
  41 H41            2.4746     0.2808    -2.2328 H       
  42 H42            6.7834     0.8565     0.0915 H       
  43 H43            4.5786     0.2510    -3.5094 H       
  44 H44           -1.2800    -7.2382     7.7171 H       
  45 H45           -0.9646    -8.1977     9.0597 H       
  46 H46            7.9249     1.0780    -2.1221 H       
  47 H47            8.4719    -1.0234    -3.4334 H       
  48 H48            6.7103    -1.5563    -3.3140 H       
  49 H49            5.9910     0.5482    -4.5338 H       
  50 H50            7.7526     1.0811    -4.6532 H       
  51 H51            4.7709    -0.0297     2.2933 H       
  52 H52            5.5581     1.5507     2.0679 H       
  53 H53            3.7824     1.4407     2.1231 H       
@<TRIPOS>BOND
   1    1    4 1
   2    2    3 2
   3    2    4 1
   4    3    6 1
   5    4    5 1
   6    4   33 1
   7    5    6 1
   8    5   12 1
   9    6    7 1
  10    6   34 1
  11    7    8 1
  12    8    9 1
  13    8   35 1
  14    8   36 1
  15    9   10 2
  16    9   11 am
  17   11   13 1
  18   11   37 1
  19   12   23 ar
  20   12   24 ar
  21   13   14 ar
  22   13   18 ar
  23   14   15 ar
  24   14   19 1
  25   15   16 ar
  26   15   38 1
  27   16   17 ar
  28   16   20 1
  29   17   18 ar
  30   17   39 1
  31   18   40 1
  32   20   21 2
  33   20   22 2
  34   20   28 am
  35   23   27 ar
  36   23   41 1
  37   24   25 ar
  38   24   32 1
  39   25   26 ar
  40   25   42 1
  41   26   27 ar
  42   26   29 1
  43   27   43 1
  44   28   44 1
  45   28   45 1
  46   29   30 1
  47   29   31 1
  48   29   46 1
  49   30   31 1
  50   30   47 1
  51   30   48 1
  52   31   49 1
  53   31   50 1
  54   32   51 1
  55   32   52 1
  56   32   53 1

#	End of record

