#	Name: ASD05213031
#	Creating user name:	WinNT
#	Creation time:	15. 06. 2019 20:57

#	Modifying user name:	WinNT
#	Modification time:	15. 06. 2019 20:57

#	Program:	/corina/corina34_cracker 3.40 0067  02.08.2006

@<TRIPOS>MOLECULE
ASD05213031
  28   31    0    0    0
SMALL
NO_CHARGES


@<TRIPOS>ATOM
   1 S1            -0.0218     1.7577     0.0117 S.3     
   2 C2             0.0021    -0.0041     0.0020 C.2     
   3 N3             0.0222    -0.7474     1.0581 N.2     
   4 C4             0.0383    -2.0838     0.8865 C.ar    
   5 C5             0.0303    -2.4599    -0.4600 C.ar    
   6 S6            -0.0057    -1.0004    -1.4464 S.3     
   7 C7             0.0609    -3.0991     1.8665 C.ar    
   8 C8             0.0749    -4.4208     1.4978 C.ar    
   9 C9             0.0672    -4.7801     0.1582 C.ar    
  10 C10            0.0443    -3.8059    -0.8156 C.ar    
  11 S11            2.0018     2.1430    -0.0055 S.3     
  12 C12            2.3141     2.0610    -1.7377 C.2     
  13 N13            2.2465     3.0646    -2.5479 N.2     
  14 C14            2.5147     2.8417    -3.8494 C.ar    
  15 C15            2.8346     1.5076    -4.1185 C.ar    
  16 S16            2.7694     0.6029    -2.6079 S.3     
  17 C17            2.5099     3.7596    -4.9213 C.ar    
  18 C18            2.8126     3.3442    -6.1936 C.ar    
  19 C19            3.1278     2.0175    -6.4467 C.ar    
  20 C20            3.1397     1.1040    -5.4156 C.ar    
  21 H21            0.0675    -2.8341     2.9134 H       
  22 H22            0.0925    -5.1882     2.2576 H       
  23 H23            0.0791    -5.8232    -0.1214 H       
  24 H24            0.0379    -4.0872    -1.8583 H       
  25 H25            2.2660     4.7958    -4.7391 H       
  26 H26            2.8050     4.0567    -7.0052 H       
  27 H27            3.3639     1.7007    -7.4518 H       
  28 H28            3.3856     0.0713    -5.6142 H       
@<TRIPOS>BOND
   1    1    2 1
   2    1   11 1
   3    2    3 2
   4    2    6 1
   5    3    4 1
   6    4    5 ar
   7    4    7 ar
   8    5    6 1
   9    5   10 ar
  10    7    8 ar
  11    7   21 1
  12    8    9 ar
  13    8   22 1
  14    9   10 ar
  15    9   23 1
  16   10   24 1
  17   11   12 1
  18   12   13 2
  19   12   16 1
  20   13   14 1
  21   14   15 ar
  22   14   17 ar
  23   15   16 1
  24   15   20 ar
  25   17   18 ar
  26   17   25 1
  27   18   19 ar
  28   18   26 1
  29   19   20 ar
  30   19   27 1
  31   20   28 1

#	End of record

