#	Name: ASD01911425
#	Creating user name:	WinNT
#	Creation time:	15. 06. 2019 19:57

#	Modifying user name:	WinNT
#	Modification time:	15. 06. 2019 19:57

#	Program:	/corina/corina34_cracker 3.40 0067  02.08.2006

@<TRIPOS>MOLECULE
ASD01911425
  34   36    0    0    0
SMALL
NO_CHARGES


@<TRIPOS>ATOM
   1 N1            -0.0036     1.3812     0.2119 N.2     
   2 N2             0.0015    -0.0034     0.0010 N.pl3   
   3 C3             1.2357     1.8190     0.1322 C.2     
   4 C4             2.0746     0.7239    -0.1330 C.2     
   5 C5             1.2922    -0.3913    -0.2101 C.2     
   6 C6             1.7588    -1.7700    -0.4737 C.ar    
   7 C7             1.6717     3.2286     0.2944 C.ar    
   8 C8             0.7336     4.2247     0.5563 C.ar    
   9 C9            -1.1720    -0.8803     0.0063 C.3     
  10 C10           -1.6604    -1.0743    -1.4061 C.2     
  11 O11           -2.7324    -1.8459    -1.6455 O.3     
  12 O12           -1.0871    -0.5354    -2.3230 O.2     
  13 C13            1.1445     5.5338     0.7067 C.ar    
  14 C14            2.4848     5.8574     0.5974 C.ar    
  15 C15            3.4204     4.8724     0.3374 C.ar    
  16 C16            3.0210     3.5593     0.1909 C.ar    
  17 C17            3.1010    -1.9999    -0.7750 C.ar    
  18 N18            0.8971    -2.7788    -0.4161 N.ar    
  19 C19            1.2717    -4.0208    -0.6437 C.ar    
  20 C20            2.5884    -4.3208    -0.9531 C.ar    
  21 C21            3.5234    -3.2946    -1.0188 C.ar    
  22 F22            2.9607    -5.5988    -1.1839 F       
  23 H23            3.1472     0.7585    -0.2542 H       
  24 H24           -0.3133     3.9732     0.6412 H       
  25 H25           -0.9019    -1.8461     0.4332 H       
  26 H26           -1.9619    -0.4266     0.6048 H       
  27 H27           -3.0082    -1.9404    -2.5675 H       
  28 H28            0.4181     6.3068     0.9098 H       
  29 H29            2.8020     6.8831     0.7150 H       
  30 H30            4.4657     5.1305     0.2530 H       
  31 H31            3.7523     2.7908    -0.0117 H       
  32 H32            3.8010    -1.1786    -0.8176 H       
  33 H33            0.5430    -4.8160    -0.5879 H       
  34 H34            4.5557    -3.5027    -1.2584 H       
@<TRIPOS>BOND
   1    1    2 1
   2    1    3 2
   3    2    9 1
   4    2    5 1
   5    3    4 1
   6    3    7 1
   7    4    5 2
   8    4   23 1
   9    5    6 1
  10    6   17 ar
  11    6   18 ar
  12    7    8 ar
  13    7   16 ar
  14    8   13 ar
  15    8   24 1
  16    9   10 1
  17    9   25 1
  18    9   26 1
  19   10   11 1
  20   10   12 2
  21   11   27 1
  22   13   14 ar
  23   13   28 1
  24   14   15 ar
  25   14   29 1
  26   15   16 ar
  27   15   30 1
  28   16   31 1
  29   17   21 ar
  30   17   32 1
  31   18   19 ar
  32   19   20 ar
  33   19   33 1
  34   20   21 ar
  35   20   22 1
  36   21   34 1

#	End of record

