#	Name: ASD01148525
#	Creating user name:	WinNT
#	Creation time:	15. 06. 2019 19:02

#	Modifying user name:	WinNT
#	Modification time:	15. 06. 2019 19:02

#	Program:	/corina/corina34_cracker 3.40 0067  02.08.2006

@<TRIPOS>MOLECULE
ASD01148525
  58   62    0    0    0
SMALL
NO_CHARGES


@<TRIPOS>ATOM
   1 C1            -0.0180     1.4349     0.0450 C.ar    
   2 C2            -0.0166     0.0527     0.0405 C.ar    
   3 C3             1.1813    -0.6373     0.0175 C.ar    
   4 C4             2.3774     0.0551    -0.0013 C.ar    
   5 C5             2.3760     1.4376     0.0023 C.ar    
   6 C6             1.1785     2.1274     0.0267 C.ar    
   7 C7             3.6801     2.1925    -0.0173 C.3     
   8 O8             4.6904     1.4587    -0.7386 O.3     
   9 C9             3.5611     3.4817    -0.8647 C.3     
  10 C10            4.0481     3.0268    -2.2273 C.2     
  11 N11            4.6607     1.8982    -2.0821 N.2     
  12 C12            3.8552     3.7470    -3.4976 C.ar    
  13 C13            4.3787     3.1929    -4.7438 C.ar    
  14 C14            3.1699     4.9538    -3.5193 C.ar    
  15 C15            2.9738     5.6512    -4.6981 C.ar    
  16 C16            3.4539     5.1741    -5.9098 C.ar    
  17 C17            4.1782     3.9062    -5.9493 C.ar    
  18 C18            3.2295     5.9394    -7.1499 C.2     
  19 O19            3.7414     5.5742    -8.1908 O.2     
  20 N20            2.4570     7.0436    -7.1299 N.am    
  21 C21            4.1459     2.5120     1.4047 C.3     
  22 F22            4.3106     1.3212     2.1201 F       
  23 F23            5.3644     3.1975     1.3532 F       
  24 F24            3.1886     3.3096     2.0408 F       
  25 C25            2.2340     7.8040    -8.3621 C.3     
  26 C26            1.3420     8.9831    -8.0703 C.ar    
  27 N27            0.0328     8.8269    -8.0760 N.ar    
  28 C28           -0.7864     9.8299    -7.8264 C.ar    
  29 C29           -0.2953    11.0912    -7.5481 C.ar    
  30 C30            1.0765    11.2941    -7.5331 C.ar    
  31 C31            1.9060    10.2145    -7.7942 C.ar    
  32 C32            5.0713     1.9757    -4.7701 C.ar    
  33 C33            4.6798     3.3864    -7.1493 C.ar    
  34 C34            5.5426     1.4947    -5.9554 C.ar    
  35 C35            5.3497     2.1991    -7.1409 C.ar    
  36 C36            1.1828    -2.1443     0.0136 C.3     
  37 F37           -0.1355    -2.6120     0.0356 F       
  38 F38            1.8225    -2.6069    -1.1414 F       
  39 F39            1.8628    -2.6129     1.1428 F       
  40 H40           -0.9537     1.9739     0.0584 H       
  41 H41           -0.9512    -0.4882     0.0552 H       
  42 H42            3.3131    -0.4839    -0.0185 H       
  43 H43            1.1774     3.2074     0.0298 H       
  44 H44            2.5251     3.8166    -0.9160 H       
  45 H45            4.2035     4.2671    -0.4665 H       
  46 H46            2.7809     5.3570    -2.5960 H       
  47 H47            2.4351     6.5869    -4.6749 H       
  48 H48            2.0486     7.3348    -6.2996 H       
  49 H49            3.1897     8.1582    -8.7484 H       
  50 H50            1.7576     7.1627    -9.1036 H       
  51 H51           -1.8534     9.6637    -7.8400 H       
  52 H52           -0.9712    11.9087    -7.3452 H       
  53 H53            1.4888    12.2690    -7.3190 H       
  54 H54            2.9791    10.3360    -7.7905 H       
  55 H55            5.2313     1.4217    -3.8569 H       
  56 H56            4.5365     3.9228    -8.0757 H       
  57 H57            6.0765     0.5561    -5.9747 H       
  58 H58            5.7361     1.7992    -8.0667 H       
@<TRIPOS>BOND
   1    1    2 ar
   2    1    6 ar
   3    1   40 1
   4    2    3 ar
   5    2   41 1
   6    3    4 ar
   7    3   36 1
   8    4    5 ar
   9    4   42 1
  10    5    6 ar
  11    5    7 1
  12    6   43 1
  13    7    8 1
  14    7    9 1
  15    7   21 1
  16    8   11 1
  17    9   10 1
  18    9   44 1
  19    9   45 1
  20   10   11 2
  21   10   12 1
  22   12   13 ar
  23   12   14 ar
  24   13   32 ar
  25   13   17 ar
  26   14   15 ar
  27   14   46 1
  28   15   16 ar
  29   15   47 1
  30   16   17 ar
  31   16   18 1
  32   17   33 ar
  33   18   19 2
  34   18   20 am
  35   20   25 1
  36   20   48 1
  37   21   22 1
  38   21   23 1
  39   21   24 1
  40   25   26 1
  41   25   49 1
  42   25   50 1
  43   26   27 ar
  44   26   31 ar
  45   27   28 ar
  46   28   29 ar
  47   28   51 1
  48   29   30 ar
  49   29   52 1
  50   30   31 ar
  51   30   53 1
  52   31   54 1
  53   32   34 ar
  54   32   55 1
  55   33   35 ar
  56   33   56 1
  57   34   35 ar
  58   34   57 1
  59   35   58 1
  60   36   37 1
  61   36   38 1
  62   36   39 1

#	End of record

