#	Name: ASD01911705
#	Creating user name:	WinNT
#	Creation time:	15. 06. 2019 19:58

#	Modifying user name:	WinNT
#	Modification time:	15. 06. 2019 19:58

#	Program:	/corina/corina34_cracker 3.40 0067  02.08.2006

@<TRIPOS>MOLECULE
ASD01911705
  38   41    0    0    0
SMALL
NO_CHARGES


@<TRIPOS>ATOM
   1 N1            -0.0061     1.3093     0.3046 N.am    
   2 C2             0.0021    -0.0041     0.0020 C.2     
   3 C3             1.2748    -0.7187    -0.1246 C.2     
   4 C4             1.4470    -2.0747    -0.0500 C.2     
   5 S5             2.8518     0.0159    -0.4072 S.3     
   6 C6             3.5964    -1.5802    -0.3905 C.2     
   7 N7             2.6740    -2.4890    -0.1925 N.2     
   8 C8             4.9925    -1.8437    -0.5701 C.1     
   9 C9             6.1370    -2.0597    -0.7173 C.1     
  10 C10            7.5330    -2.3233    -0.8969 C.ar    
  11 C11            8.0099    -3.6372    -0.8636 C.ar    
  12 C12            9.3565    -3.8830    -1.0379 C.ar    
  13 C13           10.2344    -2.8316    -1.2454 C.ar    
  14 C14            9.7690    -1.5292    -1.2794 C.ar    
  15 C15            8.4250    -1.2685    -1.1121 C.ar    
  16 O16           -1.0479    -0.5964    -0.1661 O.2     
  17 C17            1.2422     2.0117     0.6529 C.3     
  18 C18            0.9476     2.8784     1.8539 C.2     
  19 C19           -0.3032     3.1222     2.3218 C.2     
  20 C20           -1.5657     2.5608     1.7178 C.3     
  21 C21           -1.2595     2.0780     0.2894 C.3     
  22 C22            1.8535     3.5554     2.6656 C.2     
  23 N23            1.1745     4.1893     3.5905 N.2     
  24 N24           -0.1896     3.9304     3.3899 N.pl3   
  25 Cl25           9.9519    -5.5132    -0.9966 Cl      
  26 H26            0.6235    -2.7535     0.1157 H       
  27 H27            7.3263    -4.4575    -0.7015 H       
  28 H28           11.2874    -3.0296    -1.3809 H       
  29 H29           10.4594    -0.7147    -1.4417 H       
  30 H30            8.0636    -0.2511    -1.1389 H       
  31 H31            2.0190     1.2879     0.8993 H       
  32 H32            1.5641     2.6329    -0.1829 H       
  33 H33           -1.9181     1.7237     2.3205 H       
  34 H34           -2.3307     3.3365     1.6837 H       
  35 H35           -1.1564     2.9385    -0.3717 H       
  36 H36           -2.0722     1.4425    -0.0624 H       
  37 H37            2.9276     3.5582     2.5528 H       
  38 H38           -0.9210     4.2740     3.9265 H       
@<TRIPOS>BOND
   1    1    2 am
   2    1   17 1
   3    1   21 1
   4    2    3 1
   5    2   16 2
   6    3    4 2
   7    3    5 1
   8    4    7 1
   9    4   26 1
  10    5    6 1
  11    6    7 2
  12    6    8 1
  13    8    9 3
  14    9   10 1
  15   10   11 ar
  16   10   15 ar
  17   11   12 ar
  18   11   27 1
  19   12   13 ar
  20   12   25 1
  21   13   14 ar
  22   13   28 1
  23   14   15 ar
  24   14   29 1
  25   15   30 1
  26   17   18 1
  27   17   31 1
  28   17   32 1
  29   18   19 2
  30   18   22 1
  31   19   20 1
  32   19   24 1
  33   20   21 1
  34   20   33 1
  35   20   34 1
  36   21   35 1
  37   21   36 1
  38   22   23 2
  39   22   37 1
  40   23   24 1
  41   24   38 1

#	End of record

