#	Name: ASD01901073
#	Creating user name:	WinNT
#	Creation time:	15. 06. 2019 19:53

#	Modifying user name:	WinNT
#	Modification time:	15. 06. 2019 19:53

#	Program:	/corina/corina34_cracker 3.40 0067  02.08.2006

@<TRIPOS>MOLECULE
ASD01901073
  31   32    0    0    0
SMALL
NO_CHARGES


@<TRIPOS>ATOM
   1 C1            -0.0184     1.5028     0.0103 C.2     
   2 C2             0.0021    -0.0041     0.0020 C.3     
   3 C3             1.2460     2.2559     0.0023 C.ar    
   4 C4             1.2312     3.6543     0.0099 C.ar    
   5 C5             3.6258     3.6734    -0.0129 C.ar    
   6 C6             2.4685     1.5768    -0.0073 C.ar    
   7 C7             2.4201     4.3527     0.0023 C.ar    
   8 C8             3.6489     2.2896    -0.0148 C.ar    
   9 C9             4.9205     4.4446    -0.0217 C.3     
  10 O10           -1.3386    -0.4987     0.0122 O.3     
  11 C11           -1.4983    -1.8484     0.0064 C.ar    
  12 C12           -2.7733    -2.3978     0.0157 C.ar    
  13 C13           -2.9327    -3.7705     0.0099 C.ar    
  14 C14           -1.8235    -4.5962    -0.0051 C.ar    
  15 C15           -0.5531    -4.0513    -0.0139 C.ar    
  16 C16           -0.3882    -2.6792    -0.0144 C.ar    
  17 Br17          -4.2902    -1.2689     0.0368 Br      
  18 O18           -1.0766     2.0947     0.0185 O.2     
  19 H19            0.5123    -0.3556    -0.8948 H       
  20 H20            0.5293    -0.3651     0.8851 H       
  21 H21            0.2911     4.1858     0.0214 H       
  22 H22            2.4881     0.4970    -0.0084 H       
  23 H23            2.4103     5.4327     0.0078 H       
  24 H24            4.5937     1.7666    -0.0271 H       
  25 H25            5.2427     4.6254     1.0038 H       
  26 H26            5.6830     3.8685    -0.5459 H       
  27 H27            4.7723     5.3977    -0.5293 H       
  28 H28           -3.9241    -4.1987     0.0174 H       
  29 H29           -1.9500    -5.6688    -0.0096 H       
  30 H30            0.3114    -4.6985    -0.0252 H       
  31 H31            0.6046    -2.2543    -0.0264 H       
@<TRIPOS>BOND
   1    1    2 1
   2    1    3 1
   3    1   18 2
   4    2   10 1
   5    2   19 1
   6    2   20 1
   7    3    4 ar
   8    3    6 ar
   9    4    7 ar
  10    4   21 1
  11    5    7 ar
  12    5    8 ar
  13    5    9 1
  14    6    8 ar
  15    6   22 1
  16    7   23 1
  17    8   24 1
  18    9   25 1
  19    9   26 1
  20    9   27 1
  21   10   11 1
  22   11   12 ar
  23   11   16 ar
  24   12   13 ar
  25   12   17 1
  26   13   14 ar
  27   13   28 1
  28   14   15 ar
  29   14   29 1
  30   15   16 ar
  31   15   30 1
  32   16   31 1

#	End of record

