#	Name: ASD00461019
#	Creating user name:	WinNT
#	Creation time:	15. 06. 2019 18:36

#	Modifying user name:	WinNT
#	Modification time:	15. 06. 2019 18:36

#	Program:	/corina/corina34_cracker 3.40 0067  02.08.2006

@<TRIPOS>MOLECULE
ASD00461019
  37   38    0    0    0
SMALL
NO_CHARGES


@<TRIPOS>ATOM
   1 C1            -0.0167     1.3833     0.0096 C.ar    
   2 C2             0.0021    -0.0041     0.0020 C.ar    
   3 C3             1.1706     2.0890     0.0021 C.ar    
   4 C4             1.2139    -0.6789    -0.0132 C.ar    
   5 O5            -1.1648    -0.7007     0.0099 O.3     
   6 C6             2.3774     1.4139    -0.0130 C.ar    
   7 C7             2.3988     0.0316    -0.0207 C.ar    
   8 C8             3.7158    -0.7008    -0.0367 C.3     
   9 N9             4.6677    -0.0161     0.8482 N.3     
  10 C10            5.6992    -0.9441     1.3306 C.3     
  11 C11            6.6552    -0.2075     2.2332 C.ar    
  12 C12            6.4094    -0.1392     3.5918 C.ar    
  13 C13            7.7808     0.3950     1.7033 C.ar    
  14 C14            7.2862     0.5365     4.4197 C.ar    
  15 C15            8.6577     1.0706     2.5312 C.ar    
  16 C16            8.4091     1.1435     3.8890 C.ar    
  17 C17           -2.3744     0.0601     0.0260 C.3     
  18 H18            5.0838     0.7785     0.3860 H       
  19 C19            4.2699    -0.7226    -1.4626 C.3     
  20 H20           -0.9590     1.9110     0.0170 H       
  21 H21            1.1565     3.1689     0.0077 H       
  22 H22            1.2312    -1.7587    -0.0188 H       
  23 H23            3.3047     1.9675    -0.0189 H       
  24 H24            3.5672    -1.7231     0.3111 H       
  25 H25            5.2275    -1.7551     1.8854 H       
  26 H26            6.2449    -1.3545     0.4809 H       
  27 H27            5.5321    -0.6134     4.0063 H       
  28 H28            7.9754     0.3375     0.6425 H       
  29 H29            7.0938     0.5905     5.4810 H       
  30 H30            9.5373     1.5410     2.1172 H       
  31 H31            9.0942     1.6713     4.5359 H       
  32 H32           -2.3995     0.6837     0.9196 H       
  33 H33           -2.4172     0.6932    -0.8603 H       
  34 H34           -3.2290    -0.6164     0.0308 H       
  35 H35            3.5636    -1.2307    -2.1192 H       
  36 H36            4.4185     0.2997    -1.8104 H       
  37 H37            5.2224    -1.2524    -1.4742 H       
@<TRIPOS>BOND
   1    1    2 ar
   2    1    3 ar
   3    1   20 1
   4    2    4 ar
   5    2    5 1
   6    3    6 ar
   7    3   21 1
   8    4    7 ar
   9    4   22 1
  10    5   17 1
  11    6    7 ar
  12    6   23 1
  13    7    8 1
  14    8    9 1
  15    8   19 1
  16    8   24 1
  17    9   10 1
  18    9   18 1
  19   10   11 1
  20   10   25 1
  21   10   26 1
  22   11   12 ar
  23   11   13 ar
  24   12   14 ar
  25   12   27 1
  26   13   15 ar
  27   13   28 1
  28   14   16 ar
  29   14   29 1
  30   15   16 ar
  31   15   30 1
  32   16   31 1
  33   17   32 1
  34   17   33 1
  35   17   34 1
  36   19   35 1
  37   19   36 1
  38   19   37 1

#	End of record

