#	Name: ASD04881347
#	Creating user name:	WinNT
#	Creation time:	15. 06. 2019 20:53

#	Modifying user name:	WinNT
#	Modification time:	15. 06. 2019 20:53

#	Program:	/corina/corina34_cracker 3.40 0067  02.08.2006

@<TRIPOS>MOLECULE
ASD04881347
  79   84    0    0    0
SMALL
NO_CHARGES


@<TRIPOS>ATOM
   1 N1             0.0514     1.1939     1.2730 N.am    
   2 C2             1.2035     2.0827     1.1516 C.3     
   3 C3             2.4999     1.2741     1.2289 C.3     
   4 N4             2.4127     0.1497     0.2831 N.3     
   5 C5             1.4165    -0.8256     0.7461 C.3     
   6 C6             0.1280    -0.1264     1.0757 C.2     
   7 C7             3.6560    -0.4521     0.1074 C.ar    
   8 C8             3.8626    -1.7575     0.5385 C.ar    
   9 C9             5.0906    -2.3567     0.3663 C.ar    
  10 C10            6.1334    -1.6533    -0.2430 C.ar    
  11 C11            5.9284    -0.3408    -0.6774 C.ar    
  12 C12            4.6929     0.2551    -0.5075 C.ar    
  13 N13            4.4816     1.5687    -0.9468 N.am    
  14 C14            5.4837     2.4682    -0.8886 C.2     
  15 C15            5.3018     3.8125    -1.4651 C.2     
  16 O16            6.5381     2.1706    -0.3603 O.2     
  17 N17            4.1844     4.2827    -2.0829 N.2     
  18 C18            4.4043     5.5080    -2.4551 C.2     
  19 O19            5.6465     5.8625    -2.0969 O.3     
  20 C20            6.2178     4.8191    -1.4743 C.2     
  21 C21            7.4489    -2.2953    -0.4270 C.2     
  22 O22            8.3556    -1.6826    -0.9572 O.2     
  23 N23            7.6457    -3.5609    -0.0074 N.am    
  24 C24            3.4186     6.3913    -3.1757 C.3     
  25 C25            3.0045     7.6945    -2.4894 C.3     
  26 C26            3.9288     7.7318    -3.7080 C.3     
  27 C27           -1.1868     1.7477     1.6166 C.ar    
  28 C28           -2.0522     2.1876     0.6232 C.ar    
  29 C29           -3.2736     2.7332     0.9656 C.ar    
  30 C30           -3.6356     2.8419     2.2960 C.ar    
  31 C31           -2.7765     2.4049     3.2872 C.ar    
  32 C32           -1.5554     1.8533     2.9511 C.ar    
  33 C33           -0.6220     1.3720     4.0319 C.3     
  34 O34           -0.8849    -0.7872     1.1666 O.2     
  35 C35            8.9521    -4.1983    -0.1900 C.3     
  36 C36            8.9075    -5.6219     0.3688 C.3     
  37 C37           10.2718    -6.2877     0.1780 C.3     
  38 N38           10.2291    -7.6508     0.7131 N.am    
  39 C39            9.8516    -8.8352    -0.0670 C.3     
  40 C40            9.5290    -9.9293     0.9748 C.3     
  41 C41           10.3697    -9.4675     2.1876 C.3     
  42 C42           10.5361    -7.9781     1.9802 C.2     
  43 O43           10.8923    -7.1934     2.8335 O.2     
  44 H44            1.1589     2.6040     0.1954 H       
  45 H45            1.1838     2.8127     1.9608 H       
  46 H46            3.3440     1.9105     0.9633 H       
  47 H47            2.6321     0.8912     2.2408 H       
  48 H48            1.2385    -1.5612    -0.0384 H       
  49 H49            1.7915    -1.3314     1.6358 H       
  50 H50            3.0583    -2.3029     1.0099 H       
  51 H51            5.2480    -3.3709     0.7026 H       
  52 H52            6.7324     0.2053    -1.1482 H       
  53 H53            3.6142     1.8308    -1.2927 H       
  54 H54            7.2150     4.7846    -1.0610 H       
  55 H55            6.9225    -4.0496     0.4156 H       
  56 H56            2.6633     5.8703    -3.7642 H       
  57 H57            1.9769     8.0311    -2.6266 H       
  58 H58            3.4451     7.9130    -1.5167 H       
  59 H59            4.9775     7.9750    -3.5370 H       
  60 H60            3.5094     8.0931    -4.6470 H       
  61 H61           -1.7699     2.1034    -0.4158 H       
  62 H62           -3.9468     3.0758     0.1936 H       
  63 H63           -4.5914     3.2693     2.5612 H       
  64 H64           -3.0619     2.4914     4.3252 H       
  65 H65            0.0322     2.1886     4.3371 H       
  66 H66           -1.2032     1.0322     4.8891 H       
  67 H67           -0.0199     0.5470     3.6511 H       
  68 H68            9.1944    -4.2324    -1.2522 H       
  69 H69            9.7135    -3.6244     0.3381 H       
  70 H70            8.6652    -5.5879     1.4310 H       
  71 H71            8.1461    -6.1959    -0.1593 H       
  72 H72           10.5141    -6.3217    -0.8842 H       
  73 H73           11.0332    -5.7137     0.7062 H       
  74 H74            8.9722    -8.6220    -0.6747 H       
  75 H75           10.6812    -9.1500    -0.7001 H       
  76 H76            8.4662    -9.9362     1.2168 H       
  77 H77            9.8543   -10.9090     0.6250 H       
  78 H78            9.8393    -9.6689     3.1183 H       
  79 H79           11.3422    -9.9598     2.1873 H       
@<TRIPOS>BOND
   1    1    2 1
   2    1    6 am
   3    1   27 1
   4    2    3 1
   5    2   44 1
   6    2   45 1
   7    3    4 1
   8    3   46 1
   9    3   47 1
  10    4    5 1
  11    4    7 1
  12    5    6 1
  13    5   48 1
  14    5   49 1
  15    6   34 2
  16    7    8 ar
  17    7   12 ar
  18    8    9 ar
  19    8   50 1
  20    9   10 ar
  21    9   51 1
  22   10   11 ar
  23   10   21 1
  24   11   12 ar
  25   11   52 1
  26   12   13 1
  27   13   14 am
  28   13   53 1
  29   14   15 1
  30   14   16 2
  31   15   17 1
  32   15   20 2
  33   17   18 2
  34   18   19 1
  35   18   24 1
  36   19   20 1
  37   20   54 1
  38   21   22 2
  39   21   23 am
  40   23   35 1
  41   23   55 1
  42   24   25 1
  43   24   26 1
  44   24   56 1
  45   25   26 1
  46   25   57 1
  47   25   58 1
  48   26   59 1
  49   26   60 1
  50   27   28 ar
  51   27   32 ar
  52   28   29 ar
  53   28   61 1
  54   29   30 ar
  55   29   62 1
  56   30   31 ar
  57   30   63 1
  58   31   32 ar
  59   31   64 1
  60   32   33 1
  61   33   65 1
  62   33   66 1
  63   33   67 1
  64   35   36 1
  65   35   68 1
  66   35   69 1
  67   36   37 1
  68   36   70 1
  69   36   71 1
  70   37   38 1
  71   37   72 1
  72   37   73 1
  73   38   39 1
  74   38   42 am
  75   39   40 1
  76   39   74 1
  77   39   75 1
  78   40   41 1
  79   40   76 1
  80   40   77 1
  81   41   42 1
  82   41   78 1
  83   41   79 1
  84   42   43 2

#	End of record

