#	Name: ASD01915500
#	Creating user name:	WinNT
#	Creation time:	15. 06. 2019 20:05

#	Modifying user name:	WinNT
#	Modification time:	15. 06. 2019 20:05

#	Program:	/corina/corina34_cracker 3.40 0067  02.08.2006

@<TRIPOS>MOLECULE
ASD01915500
  31   33    0    0    0
SMALL
NO_CHARGES


@<TRIPOS>ATOM
   1 C1            -0.0166     1.3736     0.0096 C.2     
   2 N2             0.0021    -0.0041     0.0020 N.pl3   
   3 C3            -1.2451    -0.7770     0.0110 C.3     
   4 C4            -2.3226     0.0138     0.7509 C.3     
   5 N5            -2.3981     1.4042     0.3186 N.am    
   6 C6            -1.2846     2.1200     0.0203 C.2     
   7 C7             1.2836     1.7913    -0.0006 C.2     
   8 C8             2.0431     0.6135    -0.0147 C.2     
   9 N9             1.2130    -0.4035    -0.0125 N.2     
  10 C10            3.5477     0.5294    -0.0304 C.3     
  11 O11            4.0985     1.8479    -0.0286 O.3     
  12 C12            5.4536     1.9505    -0.0417 C.ar    
  13 H13           -3.2670     1.8279     0.2388 H       
  14 O14           -1.3315     3.3121    -0.2164 O.2     
  15 C15            6.0558     3.2003    -0.0409 C.ar    
  16 C16            6.2370     0.8056    -0.0502 C.ar    
  17 C17            7.6143     0.9125    -0.0636 C.ar    
  18 C18            8.2120     2.1593    -0.0685 C.ar    
  19 C19            7.4335     3.3019    -0.0543 C.ar    
  20 H20           -1.5673    -0.9600    -1.0141 H       
  21 H21           -1.0801    -1.7283     0.5167 H       
  22 H22           -3.2884    -0.4612     0.5784 H       
  23 H23           -2.1064    -0.0112     1.8189 H       
  24 H24            1.6474     2.8081     0.0018 H       
  25 H25            3.8907    -0.0089     0.8532 H       
  26 H26            3.8728     0.0010    -0.9266 H       
  27 H27            5.4482     4.0930    -0.0301 H       
  28 H28            5.7706    -0.1685    -0.0460 H       
  29 H29            8.2246     0.0215    -0.0698 H       
  30 H30            9.2889     2.2408    -0.0789 H       
  31 H31            7.9027     4.2746    -0.0585 H       
@<TRIPOS>BOND
   1    1    2 1
   2    1    7 2
   3    1    6 1
   4    2    3 1
   5    2    9 1
   6    3    4 1
   7    3   20 1
   8    3   21 1
   9    4    5 1
  10    4   22 1
  11    4   23 1
  12    5    6 am
  13    5   13 1
  14    6   14 2
  15    7    8 1
  16    7   24 1
  17    8    9 2
  18    8   10 1
  19   10   11 1
  20   10   25 1
  21   10   26 1
  22   11   12 1
  23   12   15 ar
  24   12   16 ar
  25   15   19 ar
  26   15   27 1
  27   16   17 ar
  28   16   28 1
  29   17   18 ar
  30   17   29 1
  31   18   19 ar
  32   18   30 1
  33   19   31 1

#	End of record

