#	Name: ASD01911873
#	Creating user name:	WinNT
#	Creation time:	15. 06. 2019 19:58

#	Modifying user name:	WinNT
#	Modification time:	15. 06. 2019 19:58

#	Program:	/corina/corina34_cracker 3.40 0067  02.08.2006

@<TRIPOS>MOLECULE
ASD01911873
  43   45    0    0    0
SMALL
NO_CHARGES


@<TRIPOS>ATOM
   1 C1            -2.0242     1.1636    -1.5843 C.ar    
   2 C2            -1.9448    -0.2176    -1.4188 C.ar    
   3 C3            -2.5564    -1.0443    -2.3526 C.ar    
   4 N4            -3.2033    -0.5332    -3.3811 N.ar    
   5 C5            -3.2965     0.7691    -3.5658 C.ar    
   6 C6            -2.7140     1.6562    -2.6795 C.ar    
   7 N7            -1.2595    -0.7631    -0.3299 N.pl3   
   8 C8            -1.2848    -2.1423    -0.1085 C.ar    
   9 C9            -2.4711    -2.7663     0.2594 C.ar    
  10 C10           -2.4968    -4.1299     0.4786 C.ar    
  11 C11           -1.3440    -4.8779     0.3334 C.ar    
  12 C12           -0.1548    -4.2604    -0.0336 C.ar    
  13 C13           -0.1268    -2.8917    -0.2611 C.ar    
  14 N14            1.0113    -5.0183    -0.1799 N.am    
  15 C15            0.9389    -6.2860    -0.6316 C.2     
  16 C16            2.1554    -7.1245    -0.6787 C.ar    
  17 O17           -0.1268    -6.7399    -1.0005 O.2     
  18 C18            2.0837    -8.4377    -1.1460 C.ar    
  19 C19            3.2227    -9.2154    -1.1880 C.ar    
  20 C20            4.4342    -8.6969    -0.7678 C.ar    
  21 C21            4.5129    -7.3947    -0.3029 C.ar    
  22 C22            3.3817    -6.6044    -0.2613 C.ar    
  23 Cl23           6.0380    -6.7529     0.2223 Cl      
  24 C24           -0.5146     0.1112     0.5794 C.3     
  25 C25           -1.4335     0.5686     1.7140 C.3     
  26 H26           -1.5632     1.8334    -0.8736 H       
  27 H27           -2.5012    -2.1164    -2.2349 H       
  28 H28           -3.8352     1.1481    -4.4217 H       
  29 H29           -2.7959     2.7212    -2.8394 H       
  30 H30           -3.3736    -2.1844     0.3744 H       
  31 H31           -3.4198    -4.6124     0.7644 H       
  32 H32           -1.3674    -5.9438     0.5059 H       
  33 H33            0.7964    -2.4093    -0.5466 H       
  34 H34            1.8723    -4.6316     0.0439 H       
  35 H35            1.1385    -8.8444    -1.4738 H       
  36 H36            3.1680   -10.2317    -1.5495 H       
  37 H37            5.3225    -9.3102    -0.8021 H       
  38 H38            3.4438    -5.5890     0.1014 H       
  39 H39            0.3325    -0.4342     0.9953 H       
  40 H40           -0.1529     0.9814     0.0316 H       
  41 H41           -0.8793     1.2191     2.3906 H       
  42 H42           -2.2806     1.1141     1.2981 H       
  43 H43           -1.7952    -0.3016     2.2617 H       
@<TRIPOS>BOND
   1    1    2 ar
   2    1    6 ar
   3    1   26 1
   4    2    3 ar
   5    2    7 1
   6    3    4 ar
   7    3   27 1
   8    4    5 ar
   9    5    6 ar
  10    5   28 1
  11    6   29 1
  12    7    8 1
  13    7   24 1
  14    8    9 ar
  15    8   13 ar
  16    9   10 ar
  17    9   30 1
  18   10   11 ar
  19   10   31 1
  20   11   12 ar
  21   11   32 1
  22   12   13 ar
  23   12   14 1
  24   13   33 1
  25   14   15 am
  26   14   34 1
  27   15   16 1
  28   15   17 2
  29   16   18 ar
  30   16   22 ar
  31   18   19 ar
  32   18   35 1
  33   19   20 ar
  34   19   36 1
  35   20   21 ar
  36   20   37 1
  37   21   22 ar
  38   21   23 1
  39   22   38 1
  40   24   25 1
  41   24   39 1
  42   24   40 1
  43   25   41 1
  44   25   42 1
  45   25   43 1

#	End of record

