#	Name: ASD03540188
#	Creating user name:	WinNT
#	Creation time:	15. 06. 2019 20:42

#	Modifying user name:	WinNT
#	Modification time:	15. 06. 2019 20:42

#	Program:	/corina/corina34_cracker 3.40 0067  02.08.2006

@<TRIPOS>MOLECULE
ASD03540188
  53   57    0    0    0
SMALL
NO_CHARGES


@<TRIPOS>ATOM
   1 C1            -0.0161     1.3365     0.0094 C.2     
   2 N2             0.0021    -0.0041     0.0020 N.am    
   3 C3             1.1934    -0.7075    -0.0132 C.2     
   4 C4             2.3927    -0.0052    -0.0209 C.2     
   5 C5             2.3194     1.4731    -0.0123 C.2     
   6 N6             1.1112     2.0659     0.0025 N.am    
   7 C7             3.5132    -0.8389    -0.0357 C.2     
   8 C8             3.2261    -2.1513    -0.0396 C.2     
   9 S9             1.4880    -2.3901    -0.0245 S.3     
  10 C10            4.2202    -3.2270    -0.0552 C.2     
  11 O11            5.4074    -2.9586    -0.0657 O.2     
  12 N12            3.8203    -4.5141    -0.0579 N.am    
  13 C13            4.8145    -5.5900    -0.0735 C.3     
  14 C14            4.1120    -6.9232    -0.0734 C.ar    
  15 C15            3.7780    -7.5280    -1.2708 C.ar    
  16 C16            3.1341    -8.7509    -1.2719 C.ar    
  17 C17            2.8236    -9.3702    -0.0732 C.ar    
  18 C18            3.1586    -8.7636     1.1255 C.ar    
  19 C19            3.8071    -7.5432     1.1241 C.ar    
  20 F20            2.1937   -10.5655    -0.0731 F       
  21 C21            1.0247     3.5284     0.0113 C.3     
  22 C22            1.0086     4.0221     1.4350 C.ar    
  23 C23            2.1989     4.3187     2.0747 C.ar    
  24 C24            2.1907     4.7712     3.3782 C.ar    
  25 C25            0.9792     4.9294     4.0509 C.ar    
  26 C26           -0.2175     4.6287     3.4005 C.ar    
  27 C27           -0.1966     4.1823     2.0950 C.ar    
  28 N28           -0.1336     5.6136     6.2211 N.pl3   
  29 N29            0.3617     6.0714     7.4546 N.2     
  30 N30            1.6457     6.1141     7.3493 N.2     
  31 N31            2.0117     5.7314     6.1794 N.2     
  32 C32            0.9634     5.4139     5.4494 C.2     
  33 O33            3.3359     2.1421    -0.0183 O.2     
  34 O34           -1.0880     1.9102     0.0175 O.2     
  35 C35           -1.2652    -0.7390     0.0107 C.3     
  36 H36            4.5248    -0.4605    -0.0436 H       
  37 H37            2.8742    -4.7281    -0.0495 H       
  38 H38            5.4295    -5.5035    -0.9692 H       
  39 H39            5.4474    -5.5127     0.8106 H       
  40 H40            4.0200    -7.0445    -2.2057 H       
  41 H41            2.8730    -9.2230    -2.2075 H       
  42 H42            2.9168    -9.2458     2.0611 H       
  43 H43            4.0722    -7.0717     2.0589 H       
  44 H44            1.8867     3.9464    -0.5086 H       
  45 H45            0.1099     3.8413    -0.4921 H       
  46 H46            3.1364     4.1955     1.5529 H       
  47 H47            3.1206     5.0020     3.8767 H       
  48 H48           -1.1587     4.7488     3.9163 H       
  49 H49           -1.1227     3.9534     1.5888 H       
  50 H50           -1.0607     5.4677     5.9761 H       
  51 H51           -2.0950    -0.0323     0.0228 H       
  52 H52           -1.3306    -1.3610    -0.8820 H       
  53 H53           -1.3129    -1.3705     0.8978 H       
@<TRIPOS>BOND
   1    1    2 am
   2    1    6 am
   3    1   34 2
   4    2    3 1
   5    2   35 1
   6    3    4 2
   7    3    9 1
   8    4    5 1
   9    4    7 1
  10    5    6 am
  11    5   33 2
  12    6   21 1
  13    7    8 2
  14    7   36 1
  15    8    9 1
  16    8   10 1
  17   10   11 2
  18   10   12 am
  19   12   13 1
  20   12   37 1
  21   13   14 1
  22   13   38 1
  23   13   39 1
  24   14   15 ar
  25   14   19 ar
  26   15   16 ar
  27   15   40 1
  28   16   17 ar
  29   16   41 1
  30   17   18 ar
  31   17   20 1
  32   18   19 ar
  33   18   42 1
  34   19   43 1
  35   21   22 1
  36   21   44 1
  37   21   45 1
  38   22   23 ar
  39   22   27 ar
  40   23   24 ar
  41   23   46 1
  42   24   25 ar
  43   24   47 1
  44   25   26 ar
  45   25   32 1
  46   26   27 ar
  47   26   48 1
  48   27   49 1
  49   28   29 1
  50   28   32 1
  51   28   50 1
  52   29   30 2
  53   30   31 1
  54   31   32 2
  55   35   51 1
  56   35   52 1
  57   35   53 1

#	End of record

