#	Name: ASD01470001
#	Creating user name:	WinNT
#	Creation time:	15. 06. 2019 19:21

#	Modifying user name:	WinNT
#	Modification time:	15. 06. 2019 19:21

#	Program:	/corina/corina34_cracker 3.40 0067  02.08.2006

@<TRIPOS>MOLECULE
ASD01470001
 235  238    0    0    0
SMALL
NO_CHARGES


@<TRIPOS>ATOM
   1 C1            -8.2116    31.0132     1.2982 C.ar    
   2 C2            -8.6423    30.1136     2.2553 C.ar    
   3 C3            -7.7386    29.5688     3.1482 C.ar    
   4 C4            -6.4040    29.9233     3.0838 C.ar    
   5 C5            -5.9731    30.8223     2.1262 C.ar    
   6 C6            -6.8771    31.3681     1.2342 C.ar    
   7 C7           -10.0972    29.7271     2.3255 C.3     
   8 C8           -10.3443    28.5071     1.4358 C.3     
   9 N9           -10.1061    28.8673     0.0359 N.am    
  10 C10           -9.7651    27.9162    -0.8560 C.2     
  11 C11           -9.5201    28.2868    -2.2960 C.3     
  12 O12           -9.6555    26.7621    -0.4997 O.2     
  13 N13           -9.1669    27.0852    -3.0562 N.am    
  14 C14          -10.7877    28.9087    -2.8854 C.3     
  15 C15          -11.8986    27.8905    -2.8746 C.2     
  16 N16          -13.0920    28.1894    -3.4252 N.am    
  17 O17          -11.7189    26.8022    -2.3705 O.2     
  18 C18           -8.4883    27.1964    -4.2153 C.2     
  19 C19           -8.0267    25.9583    -4.9399 C.3     
  20 O20           -8.2492    28.2929    -4.6752 O.2     
  21 N21           -7.3184    26.3438    -6.1630 N.am    
  22 C22           -9.2387    25.0977    -5.3022 C.3     
  23 C23           -8.7632    23.7839    -5.9258 C.3     
  24 C24           -7.9896    22.9749    -4.8828 C.3     
  25 C25           -9.9735    22.9778    -6.4015 C.3     
  26 C26           -6.4046    25.5131    -6.7029 C.2     
  27 C27           -5.6070    25.9491    -7.9048 C.3     
  28 O28           -6.2243    24.4147    -6.2213 O.2     
  29 N29           -5.0434    24.7718    -8.5701 N.am    
  30 C30           -4.4730    26.8732    -7.4566 C.3     
  31 C31           -3.7289    27.4003    -8.6851 C.3     
  32 O32           -5.0162    27.9715    -6.7211 O.3     
  33 C33           -4.7383    24.8206    -9.8820 C.2     
  34 C34           -4.1586    23.6096   -10.5663 C.3     
  35 O35           -4.9303    25.8392   -10.5117 O.2     
  36 N36           -3.9164    23.9157   -11.9784 N.am    
  37 C37           -5.1428    22.4431   -10.4589 C.3     
  38 O38           -6.4116    22.8406   -10.9825 O.3     
  39 C39           -2.9803    23.2315   -12.6654 C.2     
  40 O40           -2.3384    22.3623   -12.1146 O.2     
  41 C41           -2.7312    23.5464   -14.1179 C.3     
  42 C42           -1.6276    22.6333   -14.6557 C.3     
  43 C43           -1.3747    22.9531   -16.1304 C.3     
  44 C44           -0.2712    22.0400   -16.6683 C.3     
  45 C45            5.1546    19.6665   -24.7185 C.3     
  46 C46            5.4075    19.9863   -26.1932 C.3     
  47 C47            6.7602    19.3882   -28.1836 C.2     
  48 O48            6.1183    20.2574   -28.7343 O.2     
  49 C49            9.4859    17.1754   -29.4634 C.3     
  50 C50            8.6222    17.7129   -28.3029 C.3     
  51 N51            7.6963    18.7039   -28.8706 N.am    
  52 C52            7.9608    18.8245   -30.3159 C.3     
  53 C53            8.6170    17.4785   -30.7126 C.3     
  54 C54            6.6714    19.0219   -31.0704 C.2     
  55 O55            5.6137    18.7410   -30.5476 O.2     
  56 N56            6.6935    19.5106   -32.3263 N.am    
  57 C57            5.4399    19.7025   -33.0598 C.3     
  58 C58            5.6294    20.7686   -34.1079 C.2     
  59 C59            5.0378    18.3896   -33.7346 C.3     
  60 C60            4.7245    17.3415   -32.6649 C.3     
  61 C61            4.3283    16.0483   -33.3296 C.2     
  62 N62            4.0062    14.9760   -32.5792 N.am    
  63 O63            4.2995    15.9724   -34.5397 O.2     
  64 N64            4.6030    21.1155   -34.9095 N.am    
  65 O65            6.7056    21.3143   -34.2302 O.2     
  66 C66            4.7871    22.1519   -35.9284 C.3     
  67 C67            4.5700    23.5297   -35.2996 C.3     
  68 C68            3.2058    23.5652   -34.6078 C.3     
  69 C69            5.6704    23.8003   -34.2717 C.3     
  70 C70            3.7920    21.9449   -37.0410 C.2     
  71 N71            3.8157    22.7467   -38.1242 N.am    
  72 O72            2.9697    21.0570   -36.9618 O.2     
  73 C73            2.7872    22.6111   -39.1585 C.3     
  74 C74            2.4430    23.9722   -39.7063 C.2     
  75 C75            3.3143    21.7248   -40.2889 C.3     
  76 C76            3.7748    20.3841   -39.7133 C.3     
  77 O77            2.2747    21.5015   -41.2435 O.3     
  78 C78            7.0189    23.9123   -34.9856 C.3     
  79 N79            1.2813    24.1602   -40.3631 N.am    
  80 O80            3.2115    24.8983   -39.5560 O.2     
  81 C81            0.9956    25.4528   -40.9907 C.3     
  82 C82            1.6880    25.5223   -42.3532 C.3     
  83 C83           -0.4925    25.6037   -41.1751 C.2     
  84 C84            1.3750    26.8651   -43.0164 C.3     
  85 C85            2.0562    27.9907   -42.2355 C.3     
  86 C86            1.8940    26.8564   -44.4557 C.3     
  87 O87           -1.2011    24.6203   -41.2170 O.2     
  88 N88           -1.0358    26.8314   -41.2935 N.am    
  89 C89           -2.4909    26.9844   -41.3682 C.3     
  90 C90           -1.2404    28.8878   -38.8588 C.ar    
  91 C91           -0.0020    29.2140   -39.4144 C.ar    
  92 C92            1.0467    29.5288   -38.5966 C.ar    
  93 C93            0.8905    29.5269   -37.2176 C.ar    
  94 C94           -0.3229    29.2076   -36.6481 C.ar    
  95 C95           -1.4039    28.8844   -37.4613 C.ar    
  96 N96           -2.7098    28.5303   -37.2061 N.pl3   
  97 C97           -3.3713    28.3122   -38.3839 C.2     
  98 C98           -2.5420    28.5168   -39.4194 C.2     
  99 C99           -2.8825    28.3809   -40.8811 C.3     
 100 C100           6.5111    19.0732   -26.7311 C.3     
 101 C101         -11.7695    28.0458     1.6004 C.2     
 102 O102         -12.5103    28.0205     0.6462 O.2     
 103 O103         -12.2160    27.6630     2.8069 O.3     
 104 C104          -2.9422    26.8051   -42.7949 C.2     
 105 O105          -2.1315    26.5733   -43.6603 O.2     
 106 O106          -4.2447    26.9029   -43.1041 O.3     
 107 C107          -0.0183    22.3597   -18.1430 C.3     
 108 C108           1.0853    21.4466   -18.6808 C.3     
 109 C109           1.3382    21.7664   -20.1555 C.3     
 110 C110           2.4417    20.8533   -20.6934 C.3     
 111 C111           2.6946    21.1730   -22.1681 C.3     
 112 C112           3.7982    20.2599   -22.7060 C.3     
 113 C113           4.0511    20.5797   -24.1806 C.3     
 114 H114          -8.9169    31.4354     0.5977 H       
 115 H115          -8.0752    28.8665     3.8964 H       
 116 H116          -5.6980    29.4983     3.7819 H       
 117 H117          -4.9305    31.0996     2.0761 H       
 118 H118          -6.5404    32.0702     0.4857 H       
 119 H119         -10.3595    29.4848     3.3554 H       
 120 H120         -10.7112    30.5589     1.9803 H       
 121 H121          -9.6667    27.7036     1.7246 H       
 122 H122         -10.1938    29.7904    -0.2490 H       
 123 H123          -8.7027    29.0056    -2.3522 H       
 124 H124          -9.4213    26.2097    -2.7252 H       
 125 H125         -11.0804    29.7721    -2.2879 H       
 126 H126         -10.5945    29.2249    -3.9105 H       
 127 H127         -13.2357    29.0598    -3.8284 H       
 128 H128         -13.8070    27.5340    -3.4183 H       
 129 H129          -7.3563    25.3891    -4.2959 H       
 130 H130          -7.5070    27.1970    -6.5843 H       
 131 H131          -9.8153    24.8849    -4.4020 H       
 132 H132          -9.8643    25.6333    -6.0163 H       
 133 H133          -8.1134    23.9986    -6.7742 H       
 134 H134          -7.6509    22.0389    -5.3270 H       
 135 H135          -7.1274    23.5492    -4.5439 H       
 136 H136          -8.6394    22.7602    -4.0344 H       
 137 H137         -10.5246    23.5541    -7.1446 H       
 138 H138          -9.6348    22.0418    -6.8458 H       
 139 H139         -10.6233    22.7631    -5.5531 H       
 140 H140          -6.2573    26.4819    -8.5986 H       
 141 H141          -4.8899    23.9571    -8.0664 H       
 142 H142          -3.7811    26.3184    -6.8230 H       
 143 H143          -4.4208    27.9552    -9.3187 H       
 144 H144          -2.9210    28.0587    -8.3657 H       
 145 H145          -3.3146    26.5626    -9.2461 H       
 146 H146          -5.4206    27.7197    -5.8796 H       
 147 H147          -3.2182    23.3368   -10.0872 H       
 148 H148          -4.4298    24.6109   -12.4189 H       
 149 H149          -4.7642    21.5946   -11.0289 H       
 150 H150          -5.2547    22.1573    -9.4130 H       
 151 H151          -7.0862    22.1488   -10.9464 H       
 152 H152          -3.6465    23.3842   -14.6870 H       
 153 H153          -2.4218    24.5870   -14.2161 H       
 154 H154          -0.7123    22.7955   -14.0866 H       
 155 H155          -1.9370    21.5928   -14.5575 H       
 156 H156          -2.2901    22.7909   -16.6995 H       
 157 H157          -1.0654    23.9936   -16.2287 H       
 158 H158           0.6442    22.2022   -16.0992 H       
 159 H159          -0.5805    20.9994   -16.5700 H       
 160 H160           4.8453    18.6260   -24.6202 H       
 161 H161           6.0700    19.8288   -24.1494 H       
 162 H162           4.4922    19.8241   -26.7623 H       
 163 H163           5.7169    21.0269   -26.2915 H       
 164 H164          10.4357    17.7076   -29.5158 H       
 165 H165           9.6489    16.1028   -29.3581 H       
 166 H166           8.0594    16.8963   -27.8505 H       
 167 H167           9.2588    18.1860   -27.5552 H       
 168 H168           8.6445    19.6513   -30.5087 H       
 169 H169           9.2374    17.5933   -31.6015 H       
 170 H170           7.8633    16.7053   -30.8613 H       
 171 H171           7.5394    19.7353   -32.7444 H       
 172 H172           4.6567    20.0096   -32.3667 H       
 173 H173           4.1546    18.5540   -34.3519 H       
 174 H174           5.8577    18.0365   -34.3601 H       
 175 H175           5.6076    17.1771   -32.0476 H       
 176 H176           3.9046    17.6945   -32.0394 H       
 177 H177           4.0292    15.0367   -31.6114 H       
 178 H178           3.7512    14.1436   -33.0071 H       
 179 H179           3.7422    20.6790   -34.8117 H       
 180 H180           5.7987    22.0911   -36.3298 H       
 181 H181           4.6031    24.2931   -36.0769 H       
 182 H182           3.1726    22.8018   -33.8305 H       
 183 H183           3.0511    24.5468   -34.1598 H       
 184 H184           2.4218    23.3724   -35.3401 H       
 185 H185           5.4576    24.7327   -33.7486 H       
 186 H186           5.7063    22.9810   -33.5537 H       
 187 H187           4.5138    23.4135   -38.2188 H       
 188 H188           1.8953    22.1570   -38.7267 H       
 189 H189           4.1549    22.2190   -40.7760 H       
 190 H190           2.9342    19.8900   -39.2261 H       
 191 H191           4.1504    19.7527   -40.5185 H       
 192 H192           4.5678    20.5544   -38.9851 H       
 193 H193           1.8955    22.3125   -41.6089 H       
 194 H194           7.8150    24.0016   -34.2465 H       
 195 H195           7.1841    23.0217   -35.5919 H       
 196 H196           7.0183    24.7935   -35.6272 H       
 197 H197           0.6343    23.4398   -40.4203 H       
 198 H198           1.3660    26.2559   -40.3535 H       
 199 H199           2.7654    25.4259   -42.2187 H       
 200 H200           1.3269    24.7116   -42.9861 H       
 201 H201           0.2970    27.0261   -43.0199 H       
 202 H202           1.9096    28.9360   -42.7581 H       
 203 H203           1.6213    28.0558   -41.2381 H       
 204 H204           3.1230    27.7824   -42.1538 H       
 205 H205           1.4087    26.0545   -45.0121 H       
 206 H206           1.6711    27.8130   -44.9282 H       
 207 H207           2.9721    26.6954   -44.4522 H       
 208 H208          -0.4634    27.6137   -41.3292 H       
 209 H209          -2.9680    26.2330   -40.7391 H       
 210 H210           0.1269    29.2171   -40.4867 H       
 211 H211           2.0047    29.7807   -39.0270 H       
 212 H212           1.7287    29.7779   -36.5844 H       
 213 H213          -0.4342    29.2086   -35.5738 H       
 214 H214          -3.1022    28.4472   -36.3229 H       
 215 H215          -4.4083    28.0225   -38.4680 H       
 216 H216          -2.3367    29.1314   -41.4527 H       
 217 H217          -3.9538    28.5268   -41.0196 H       
 218 H218           7.4264    19.2354   -26.1619 H       
 219 H219           6.2017    18.0326   -26.6328 H       
 220 H220         -13.1374    27.3751     2.8630 H       
 221 H221          -4.4859    26.7803   -44.0324 H       
 222 H222          -0.9336    22.1975   -18.7121 H       
 223 H223           0.2911    23.4003   -18.2413 H       
 224 H224           2.0006    21.6088   -18.1117 H       
 225 H225           0.7759    20.4061   -18.5826 H       
 226 H226           0.4228    21.6042   -20.7247 H       
 227 H227           1.6475    22.8069   -20.2538 H       
 228 H228           3.3571    21.0155   -20.1243 H       
 229 H229           2.1324    19.8127   -20.5951 H       
 230 H230           1.7793    21.0108   -22.7372 H       
 231 H231           3.0040    22.2136   -22.2664 H       
 232 H232           4.7135    20.4221   -22.1368 H       
 233 H233           3.4888    19.2194   -22.6077 H       
 234 H234           4.3604    21.6202   -24.2789 H       
 235 H235           3.1357    20.4175   -24.7498 H       
@<TRIPOS>BOND
   1    1    2 ar
   2    1    6 ar
   3    1  114 1
   4    2    3 ar
   5    2    7 1
   6    3    4 ar
   7    3  115 1
   8    4    5 ar
   9    4  116 1
  10    5    6 ar
  11    5  117 1
  12    6  118 1
  13    7    8 1
  14    7  119 1
  15    7  120 1
  16    8    9 1
  17    8  101 1
  18    8  121 1
  19    9   10 am
  20    9  122 1
  21   10   11 1
  22   10   12 2
  23   11   13 1
  24   11   14 1
  25   11  123 1
  26   13   18 am
  27   13  124 1
  28   14   15 1
  29   14  125 1
  30   14  126 1
  31   15   16 am
  32   15   17 2
  33   16  127 1
  34   16  128 1
  35   18   19 1
  36   18   20 2
  37   19   21 1
  38   19   22 1
  39   19  129 1
  40   21   26 am
  41   21  130 1
  42   22   23 1
  43   22  131 1
  44   22  132 1
  45   23   24 1
  46   23   25 1
  47   23  133 1
  48   24  134 1
  49   24  135 1
  50   24  136 1
  51   25  137 1
  52   25  138 1
  53   25  139 1
  54   26   28 2
  55   26   27 1
  56   27   29 1
  57   27   30 1
  58   27  140 1
  59   29   33 am
  60   29  141 1
  61   30   31 1
  62   30   32 1
  63   30  142 1
  64   31  143 1
  65   31  144 1
  66   31  145 1
  67   32  146 1
  68   33   34 1
  69   33   35 2
  70   34   36 1
  71   34   37 1
  72   34  147 1
  73   36   39 am
  74   36  148 1
  75   37   38 1
  76   37  149 1
  77   37  150 1
  78   38  151 1
  79   39   40 2
  80   39   41 1
  81   41   42 1
  82   41  152 1
  83   41  153 1
  84   42   43 1
  85   42  154 1
  86   42  155 1
  87   43   44 1
  88   43  156 1
  89   43  157 1
  90   44  107 1
  91   44  158 1
  92   44  159 1
  93   45   46 1
  94   45  113 1
  95   45  160 1
  96   45  161 1
  97   46  100 1
  98   46  162 1
  99   46  163 1
 100   47   48 2
 101   47   51 am
 102   47  100 1
 103   49   50 1
 104   49   53 1
 105   49  164 1
 106   49  165 1
 107   50   51 1
 108   50  166 1
 109   50  167 1
 110   51   52 1
 111   52   53 1
 112   52   54 1
 113   52  168 1
 114   53  169 1
 115   53  170 1
 116   54   55 2
 117   54   56 am
 118   56   57 1
 119   56  171 1
 120   57   58 1
 121   57   59 1
 122   57  172 1
 123   58   64 am
 124   58   65 2
 125   59   60 1
 126   59  173 1
 127   59  174 1
 128   60   61 1
 129   60  175 1
 130   60  176 1
 131   61   62 am
 132   61   63 2
 133   62  177 1
 134   62  178 1
 135   64   66 1
 136   64  179 1
 137   66   67 1
 138   66   70 1
 139   66  180 1
 140   67   68 1
 141   67   69 1
 142   67  181 1
 143   68  182 1
 144   68  183 1
 145   68  184 1
 146   69   78 1
 147   69  185 1
 148   69  186 1
 149   70   71 am
 150   70   72 2
 151   71   73 1
 152   71  187 1
 153   73   74 1
 154   73   75 1
 155   73  188 1
 156   74   79 am
 157   74   80 2
 158   75   76 1
 159   75   77 1
 160   75  189 1
 161   76  190 1
 162   76  191 1
 163   76  192 1
 164   77  193 1
 165   78  194 1
 166   78  195 1
 167   78  196 1
 168   79   81 1
 169   79  197 1
 170   81   82 1
 171   81   83 1
 172   81  198 1
 173   82   84 1
 174   82  199 1
 175   82  200 1
 176   83   87 2
 177   83   88 am
 178   84   85 1
 179   84   86 1
 180   84  201 1
 181   85  202 1
 182   85  203 1
 183   85  204 1
 184   86  205 1
 185   86  206 1
 186   86  207 1
 187   88   89 1
 188   88  208 1
 189   89   99 1
 190   89  104 1
 191   89  209 1
 192   90   91 ar
 193   90   95 ar
 194   90   98 1
 195   91   92 ar
 196   91  210 1
 197   92   93 ar
 198   92  211 1
 199   93   94 ar
 200   93  212 1
 201   94   95 ar
 202   94  213 1
 203   95   96 1
 204   96   97 1
 205   96  214 1
 206   97   98 2
 207   97  215 1
 208   98   99 1
 209   99  216 1
 210   99  217 1
 211  100  218 1
 212  100  219 1
 213  101  102 2
 214  101  103 1
 215  103  220 1
 216  104  105 2
 217  104  106 1
 218  106  221 1
 219  107  108 1
 220  107  222 1
 221  107  223 1
 222  108  109 1
 223  108  224 1
 224  108  225 1
 225  109  110 1
 226  109  226 1
 227  109  227 1
 228  110  111 1
 229  110  228 1
 230  110  229 1
 231  111  112 1
 232  111  230 1
 233  111  231 1
 234  112  113 1
 235  112  232 1
 236  112  233 1
 237  113  234 1
 238  113  235 1

#	End of record

