#	Name: ASD03091280
#	Creating user name:	WinNT
#	Creation time:	15. 06. 2019 20:30

#	Modifying user name:	WinNT
#	Modification time:	15. 06. 2019 20:30

#	Program:	/corina/corina34_cracker 3.40 0067  02.08.2006

@<TRIPOS>MOLECULE
ASD03091280
  58   63    0    0    0
SMALL
NO_CHARGES


@<TRIPOS>ATOM
   1 N1             0.0740     1.1952     0.5717 N.2     
   2 C2             0.0760    -0.0785     0.2760 C.2     
   3 N3             1.1635    -0.7214    -0.2512 N.am    
   4 C4             2.3092    -0.0427    -0.4931 C.2     
   5 C5             2.3297     1.3914    -0.1686 C.ar    
   6 C6             3.4609     2.1759    -0.3815 C.ar    
   7 C7             3.4243     3.5218    -0.0580 C.ar    
   8 C8             2.2670     4.0885     0.4763 C.ar    
   9 C9             1.1508     3.3324     0.6905 C.ar    
  10 C10            1.1594     1.9705     0.3731 C.ar    
  11 O11            3.2859    -0.5986    -0.9611 O.2     
  12 C12           -1.1534    -0.8610     0.5230 C.ar    
  13 C13           -1.8022    -0.7763     1.7561 C.ar    
  14 C14           -2.9501    -1.5099     1.9801 C.ar    
  15 C15           -3.4574    -2.3280     0.9845 C.ar    
  16 C16           -2.8183    -2.4160    -0.2390 C.ar    
  17 C17           -1.6738    -1.6832    -0.4776 C.ar    
  18 Cl18          -3.7587    -1.4070     3.5128 Cl      
  19 C19            1.0869    -2.1525    -0.5549 C.3     
  20 C20            1.4893    -2.4984    -1.9982 C.3     
  21 C21            2.2051    -3.7305    -1.4200 C.3     
  22 C22            2.3248    -2.9452    -0.1032 C.3     
  23 N23            6.8507     5.4448    -1.7592 N.3     
  24 C24            6.9716     4.3061    -0.8360 C.3     
  25 C25            5.6723     3.5178    -0.7822 C.3     
  26 N26            4.5540     4.3174    -0.2678 N.3     
  27 C27            4.2521     5.4313    -1.1776 C.3     
  28 C28            4.9814     6.6909    -0.7348 C.3     
  29 C29            6.4698     6.6551    -1.0171 C.3     
  30 C30            6.0412     5.2293    -2.9393 C.3     
  31 C31            4.5754     5.0135    -2.6005 C.3     
  32 H32            4.3579     1.7385    -0.7944 H       
  33 H33            2.2540     5.1396     0.7243 H       
  34 H34            0.2623     3.7853     1.1049 H       
  35 H35           -1.4070    -0.1388     2.5331 H       
  36 H36           -4.3557    -2.9000     1.1643 H       
  37 H37           -3.2186    -3.0564    -1.0111 H       
  38 H38           -1.1789    -1.7491    -1.4353 H       
  39 H39            0.1428    -2.6009    -0.2455 H       
  40 H40            0.6437    -2.7458    -2.6399 H       
  41 H41            2.1656    -1.7720    -2.4489 H       
  42 H42            1.5675    -4.6115    -1.3466 H       
  43 H43            3.1649    -3.9396    -1.8924 H       
  44 H44            3.2295    -2.3411    -0.0358 H       
  45 H45            2.1536    -3.5535     0.7850 H       
  46 H46            7.7746     3.6520    -1.1759 H       
  47 H47            7.2087     4.6761     0.1614 H       
  48 H48            5.4269     3.1727    -1.7866 H       
  49 H49            5.8121     2.6503    -0.1372 H       
  50 H50            3.1807     5.6256    -1.1288 H       
  51 H51            4.5479     7.5462    -1.2531 H       
  52 H52            4.8320     6.8227     0.3369 H       
  53 H53            7.0120     6.6783    -0.0718 H       
  54 H54            6.7420     7.5326    -1.6036 H       
  55 H55            6.1291     6.0981    -3.5917 H       
  56 H56            6.4144     4.3526    -3.4687 H       
  57 H57            4.3353     3.9573    -2.7228 H       
  58 H58            3.9632     5.5964    -3.2886 H       
@<TRIPOS>BOND
   1    1    2 2
   2    1   10 1
   3    2    3 1
   4    2   12 1
   5    3    4 am
   6    3   19 1
   7    4    5 1
   8    4   11 2
   9    5    6 ar
  10    5   10 ar
  11    6    7 ar
  12    6   32 1
  13    7    8 ar
  14    7   26 1
  15    8    9 ar
  16    8   33 1
  17    9   10 ar
  18    9   34 1
  19   12   13 ar
  20   12   17 ar
  21   13   14 ar
  22   13   35 1
  23   14   15 ar
  24   14   18 1
  25   15   16 ar
  26   15   36 1
  27   16   17 ar
  28   16   37 1
  29   17   38 1
  30   19   20 1
  31   19   22 1
  32   19   39 1
  33   20   21 1
  34   20   40 1
  35   20   41 1
  36   21   22 1
  37   21   42 1
  38   21   43 1
  39   22   44 1
  40   22   45 1
  41   23   24 1
  42   23   29 1
  43   23   30 1
  44   24   25 1
  45   24   46 1
  46   24   47 1
  47   25   26 1
  48   25   48 1
  49   25   49 1
  50   26   27 1
  51   27   28 1
  52   27   31 1
  53   27   50 1
  54   28   29 1
  55   28   51 1
  56   28   52 1
  57   29   53 1
  58   29   54 1
  59   30   31 1
  60   30   55 1
  61   30   56 1
  62   31   57 1
  63   31   58 1

#	End of record

