#	Name: ASD02590037
#	Creating user name:	WinNT
#	Creation time:	15. 06. 2019 20:25

#	Modifying user name:	WinNT
#	Modification time:	15. 06. 2019 20:25

#	Program:	/corina/corina34_cracker 3.40 0067  02.08.2006

@<TRIPOS>MOLECULE
ASD02590037
  39   41    0    0    0
SMALL
NO_CHARGES


@<TRIPOS>ATOM
   1 C1            -0.0168     1.3879     0.0097 C.ar    
   2 C2             0.0021    -0.0041     0.0020 C.ar    
   3 C3            -1.1769    -0.7182     0.0094 C.ar    
   4 C4            -2.3920    -0.0482     0.0251 C.ar    
   5 C5            -2.4200     1.3580     0.0334 C.ar    
   6 C6            -1.2163     2.0706     0.0305 C.ar    
   7 N7            -3.7119    -0.4595     0.0356 N.pl3   
   8 C8            -4.4869     0.6685     0.0496 C.2     
   9 N9            -3.7218     1.7326     0.0482 N.2     
  10 C10           -5.9657     0.6843     0.0637 C.ar    
  11 C11           -6.6430     1.9035     0.0773 C.ar    
  12 C12           -8.0261     1.9050     0.0904 C.ar    
  13 C13           -8.6912     0.6819     0.0895 C.ar    
  14 C14           -7.9505    -0.4943     0.0755 C.ar    
  15 N15           -6.6355    -0.4625     0.0578 N.ar    
  16 O16          -10.0487     0.6385     0.1025 O.3     
  17 C17          -10.6564    -0.6548     0.1005 C.3     
  18 C18          -12.1788    -0.5030     0.1164 C.3     
  19 O19          -12.6082     0.1183    -1.0968 O.3     
  20 C20          -14.0219     0.3077    -1.1840 C.3     
  21 O21            1.1539     2.0794     0.0022 O.3     
  22 C22            2.3600     1.3131    -0.0134 C.3     
  23 H23            0.9465    -0.5278    -0.0102 H       
  24 H24           -1.1550    -1.7980     0.0027 H       
  25 H25           -1.2255     3.1505     0.0369 H       
  26 H26           -4.0294    -1.3761     0.0330 H       
  27 H27           -6.0948     2.8340     0.0780 H       
  28 H28           -8.5774     2.8337     0.1015 H       
  29 H29           -8.4610    -1.4460     0.0751 H       
  30 H30          -10.3546    -1.1968    -0.7958 H       
  31 H31          -10.3372    -1.2076     0.9841 H       
  32 H32          -12.6411    -1.4862     0.2045 H       
  33 H33          -12.4735     0.1144     0.9649 H       
  34 H34          -14.5224    -0.6587    -1.1229 H       
  35 H35          -14.3549     0.9420    -0.3625 H       
  36 H36          -14.2667     0.7843    -2.1333 H       
  37 H37            2.3995     0.6797     0.8728 H       
  38 H38            2.3825     0.6893    -0.9070 H       
  39 H39            3.2178     1.9856    -0.0180 H       
@<TRIPOS>BOND
   1    1    2 ar
   2    1   21 1
   3    1    6 ar
   4    2    3 ar
   5    2   23 1
   6    3    4 ar
   7    3   24 1
   8    4    5 ar
   9    4    7 1
  10    5    6 ar
  11    5    9 1
  12    6   25 1
  13    7    8 1
  14    7   26 1
  15    8    9 2
  16    8   10 1
  17   10   11 ar
  18   10   15 ar
  19   11   12 ar
  20   11   27 1
  21   12   13 ar
  22   12   28 1
  23   13   14 ar
  24   13   16 1
  25   14   15 ar
  26   14   29 1
  27   16   17 1
  28   17   18 1
  29   17   30 1
  30   17   31 1
  31   18   19 1
  32   18   32 1
  33   18   33 1
  34   19   20 1
  35   20   34 1
  36   20   35 1
  37   20   36 1
  38   21   22 1
  39   22   37 1
  40   22   38 1
  41   22   39 1

#	End of record

