#	Name: ASD03091719
#	Creating user name:	WinNT
#	Creation time:	15. 06. 2019 20:31

#	Modifying user name:	WinNT
#	Modification time:	15. 06. 2019 20:31

#	Program:	/corina/corina34_cracker 3.40 0067  02.08.2006

@<TRIPOS>MOLECULE
ASD03091719
  53   56    0    0    0
SMALL
NO_CHARGES


@<TRIPOS>ATOM
   1 C1            -0.0781     1.3906    -0.2055 C.2     
   2 C2             0.0438     0.0684     0.0351 C.2     
   3 N3            -1.0973    -0.5514     0.2449 N.2     
   4 C4            -2.1781     0.1678     0.1961 C.2     
   5 S5            -1.7905     1.7992    -0.1364 S.3     
   6 N6            -3.4589    -0.3162     0.3915 N.3     
   7 C7            -3.5737    -0.9932     1.6914 C.3     
   8 C8            -3.8543    -1.2164    -0.7014 C.3     
   9 C9            -5.2959    -1.6805    -0.4768 C.3     
  10 O10           -5.3951    -2.3082     0.8044 O.3     
  11 C11           -5.0180    -1.4596     1.8921 C.3     
  12 C12            1.0284     2.3300    -0.4730 C.ar    
  13 C13            0.9675     3.2275    -1.5475 C.ar    
  14 C14            2.1668     2.3535     0.3438 C.ar    
  15 C15            3.1757     3.2473     0.0575 C.ar    
  16 N16            3.0796     4.0728    -0.9683 N.ar    
  17 C17            2.0233     4.0872    -1.7600 C.ar    
  18 C18            1.3746    -0.6383     0.0612 C.3     
  19 C19            4.4056     3.2834     0.9276 C.3     
  20 N20            1.8552    -0.7236     1.4425 N.am    
  21 C21            3.0341    -1.3194     1.7102 C.2     
  22 C22            3.5284    -1.4072     3.1311 C.3     
  23 O23            3.6971    -1.7849     0.8077 O.2     
  24 C24            1.9737     5.0535    -2.9154 C.3     
  25 C25           -3.7589    -0.4732    -2.0354 C.3     
  26 C26            4.8739    -2.0954     3.3698 C.3     
  27 C27            4.7575    -0.5758     3.5041 C.3     
  28 H28           -2.9066    -1.8550     1.7131 H       
  29 H29           -3.3008    -0.3008     2.4878 H       
  30 H30           -3.1918    -2.0818    -0.7180 H       
  31 H31           -5.9650    -0.8208    -0.5137 H       
  32 H32           -5.5742    -2.3928    -1.2536 H       
  33 H33           -5.0954    -2.0120     2.8285 H       
  34 H34           -5.6790    -0.5935     1.9240 H       
  35 H35            0.1065     3.2448    -2.1993 H       
  36 H36            2.2519     1.6816     1.1851 H       
  37 H37            1.2606    -1.6427    -0.3465 H       
  38 H38            2.0935    -0.0816    -0.5399 H       
  39 H39            5.1504     2.5924     0.5328 H       
  40 H40            4.8154     4.2934     0.9359 H       
  41 H41            4.1407     2.9904     1.9435 H       
  42 H42            1.3249    -0.3514     2.1644 H       
  43 H43            2.7567    -1.5338     3.8904 H       
  44 H44            2.4061     4.5851    -3.7996 H       
  45 H45            0.9377     5.3249    -3.1179 H       
  46 H46            2.5416     5.9494    -2.6644 H       
  47 H47           -2.7332    -0.1397    -2.1929 H       
  48 H48           -4.0522    -1.1411    -2.8452 H       
  49 H49           -4.4233     0.3908    -2.0183 H       
  50 H50            4.9875    -2.6745     4.2862 H       
  51 H51            5.4015    -2.4847     2.4990 H       
  52 H52            5.2085     0.0347     2.7218 H       
  53 H53            4.7944    -0.1551     4.5090 H       
@<TRIPOS>BOND
   1    1    2 2
   2    1   12 1
   3    1    5 1
   4    2    3 1
   5    2   18 1
   6    3    4 2
   7    4    5 1
   8    4    6 1
   9    6    7 1
  10    6    8 1
  11    7   11 1
  12    7   28 1
  13    7   29 1
  14    8    9 1
  15    8   25 1
  16    8   30 1
  17    9   10 1
  18    9   31 1
  19    9   32 1
  20   10   11 1
  21   11   33 1
  22   11   34 1
  23   12   13 ar
  24   12   14 ar
  25   13   17 ar
  26   13   35 1
  27   14   15 ar
  28   14   36 1
  29   15   16 ar
  30   15   19 1
  31   16   17 ar
  32   17   24 1
  33   18   20 1
  34   18   37 1
  35   18   38 1
  36   19   39 1
  37   19   40 1
  38   19   41 1
  39   20   21 am
  40   20   42 1
  41   21   22 1
  42   21   23 2
  43   22   26 1
  44   22   27 1
  45   22   43 1
  46   24   44 1
  47   24   45 1
  48   24   46 1
  49   25   47 1
  50   25   48 1
  51   25   49 1
  52   26   27 1
  53   26   50 1
  54   26   51 1
  55   27   52 1
  56   27   53 1

#	End of record

