#	Name: ASD01190107
#	Creating user name:	WinNT
#	Creation time:	15. 06. 2019 19:07

#	Modifying user name:	WinNT
#	Modification time:	15. 06. 2019 19:07

#	Program:	/corina/corina34_cracker 3.40 0067  02.08.2006

@<TRIPOS>MOLECULE
ASD01190107
  52   56    0    0    0
SMALL
NO_CHARGES


@<TRIPOS>ATOM
   1 C1             0.7849     1.2986     0.4627 C.2     
   2 N2             0.5736     0.0218     0.3252 N.2     
   3 C3             1.6062    -0.8503     0.2367 C.2     
   4 C4             2.9188    -0.3692     0.2942 C.2     
   5 C5             3.1212     1.0184     0.4432 C.2     
   6 N6             2.0373     1.8208     0.5242 N.am    
   7 N7             3.7577    -1.4532     0.1817 N.pl3   
   8 C8             1.6963    -2.2507     0.0869 C.2     
   9 C9             3.0039    -2.5798     0.0575 C.2     
  10 O10            4.2476     1.4828     0.4984 O.2     
  11 C11            0.5375    -3.2081    -0.0205 C.3     
  12 C12           -0.3839    -2.7679    -1.1599 C.3     
  13 O13            1.0293    -4.5232    -0.2866 O.3     
  14 N14           -2.4061    -2.9726     4.7638 N.pl3   
  15 N15           -2.8750    -1.6585     4.6641 N.2     
  16 C16           -2.4410    -1.1105     3.5646 C.2     
  17 C17           -1.6268    -2.0986     2.8640 C.ar    
  18 C18           -0.9127    -2.0937     1.6607 C.ar    
  19 C19           -0.2324    -3.2123     1.2750 C.ar    
  20 C20           -0.2433    -4.3552     2.0654 C.ar    
  21 C21           -0.9336    -4.3843     3.2440 C.ar    
  22 C22           -1.6365    -3.2581     3.6635 C.ar    
  23 C23           -2.6739    -3.8536     5.8196 C.ar    
  24 C24           -2.7853    -3.3707     7.1168 C.ar    
  25 C25           -3.0492    -4.2408     8.1562 C.ar    
  26 C26           -3.2028    -5.5941     7.9056 C.ar    
  27 C27           -3.0921    -6.0777     6.6126 C.ar    
  28 C28           -2.8339    -5.2101     5.5696 C.ar    
  29 F29           -3.4605    -6.4437     8.9238 F       
  30 F30            0.3308    -2.7640    -2.3625 F       
  31 F31           -1.4596    -3.6568    -1.2596 F       
  32 F32           -0.8653    -1.4805    -0.8993 F       
  33 C33            5.2219    -1.4035     0.1928 C.3     
  34 C34            5.7140    -1.4137     1.6171 C.2     
  35 C35            6.5742    -2.3218     2.0064 C.2     
  36 H36           -0.0628     1.9649     0.5254 H       
  37 H37            2.1545     2.7782     0.6271 H       
  38 H38            3.3927    -3.5819    -0.0479 H       
  39 H39            1.6214    -4.8673     0.3961 H       
  40 H40           -2.6472    -0.1043     3.2308 H       
  41 H41           -0.8999    -1.2096     1.0405 H       
  42 H42            0.3002    -5.2313     1.7438 H       
  43 H43           -0.9343    -5.2790     3.8488 H       
  44 H44           -2.6652    -2.3154     7.3128 H       
  45 H45           -3.1356    -3.8657     9.1653 H       
  46 H46           -3.2119    -7.1335     6.4193 H       
  47 H47           -2.7525    -5.5870     4.5608 H       
  48 H48            5.6189    -2.2706    -0.3350 H       
  49 H49            5.5582    -0.4919    -0.3013 H       
  50 H50            5.3575    -0.6724     2.3170 H       
  51 H51            6.9307    -3.0631     1.3065 H       
  52 H52            6.9269    -2.3292     3.0271 H       
@<TRIPOS>BOND
   1    1    2 2
   2    1    6 1
   3    1   36 1
   4    2    3 1
   5    3    4 2
   6    3    8 1
   7    4    5 1
   8    4    7 1
   9    5    6 am
  10    5   10 2
  11    6   37 1
  12    7    9 1
  13    7   33 1
  14    8    9 2
  15    8   11 1
  16    9   38 1
  17   11   12 1
  18   11   13 1
  19   11   19 1
  20   12   30 1
  21   12   31 1
  22   12   32 1
  23   13   39 1
  24   14   15 1
  25   14   22 1
  26   14   23 1
  27   15   16 2
  28   16   17 1
  29   16   40 1
  30   17   18 ar
  31   17   22 ar
  32   18   19 ar
  33   18   41 1
  34   19   20 ar
  35   20   21 ar
  36   20   42 1
  37   21   22 ar
  38   21   43 1
  39   23   24 ar
  40   23   28 ar
  41   24   25 ar
  42   24   44 1
  43   25   26 ar
  44   25   45 1
  45   26   27 ar
  46   26   29 1
  47   27   28 ar
  48   27   46 1
  49   28   47 1
  50   33   34 1
  51   33   48 1
  52   33   49 1
  53   34   35 2
  54   34   50 1
  55   35   51 1
  56   35   52 1

#	End of record

