#	Name: ASD01840517
#	Creating user name:	WinNT
#	Creation time:	15. 06. 2019 19:37

#	Modifying user name:	WinNT
#	Modification time:	15. 06. 2019 19:37

#	Program:	/corina/corina34_cracker 3.40 0067  02.08.2006

@<TRIPOS>MOLECULE
ASD01840517
  49   52    0    0    0
SMALL
NO_CHARGES


@<TRIPOS>ATOM
   1 C1             2.6276    -0.5671     1.0251 C.3     
   2 C2             1.3131    -1.1281     0.5468 C.ar    
   3 C3             1.2116    -1.7415    -0.6882 C.ar    
   4 Cl4            2.6022    -1.8788    -1.7183 Cl      
   5 N5             0.0380    -2.2242    -1.0760 N.ar    
   6 C6            -1.0246    -2.1265    -0.3031 C.ar    
   7 C7            -2.3361    -2.6898    -0.7865 C.3     
   8 O8            -2.4493    -4.0536    -0.3751 O.3     
   9 N9            -0.9725    -1.5505     0.8809 N.ar    
  10 C10            0.1689    -1.0467     1.3418 C.ar    
  11 N11            0.2201    -0.4463     2.5895 N.3     
  12 C12           -0.7104     0.6871     2.6666 C.3     
  13 C13           -0.5230     1.4128     4.0009 C.3     
  14 C14           -0.7845     0.4345     5.1495 C.3     
  15 C15            0.1647    -0.7598     5.0183 C.3     
  16 C16           -0.0427    -1.4225     3.6545 C.3     
  17 O17           -0.5556     1.0915     6.3977 O.3     
  18 C18           -1.2061     0.5963     7.4843 C.ar    
  19 C19           -1.1206     1.2531     8.7025 C.ar    
  20 C20           -1.7801     0.7499     9.8080 C.ar    
  21 C21           -2.5286    -0.4123     9.7028 C.ar    
  22 O22           -3.1655    -0.8980    10.8044 O.3     
  23 C23           -4.2059    -1.8549    10.5767 C.3     
  24 C24           -3.6926    -2.8924     9.5690 C.3     
  25 O25           -3.3525    -2.2101     8.3572 O.3     
  26 C26           -2.6180    -1.0709     8.4819 C.ar    
  27 C27           -1.9596    -0.5623     7.3729 C.ar    
  28 H28            3.1971    -1.3511     1.5242 H       
  29 H29            3.1945    -0.1928     0.1727 H       
  30 H30            2.4418     0.2482     1.7242 H       
  31 H31           -3.1578    -2.1128    -0.3621 H       
  32 H32           -2.3767    -2.6338    -1.8743 H       
  33 H33           -3.2712    -4.4811    -0.6523 H       
  34 H34           -0.5110     1.3772     1.8468 H       
  35 H35           -1.7347     0.3217     2.5926 H       
  36 H36            0.4972     1.7904     4.0696 H       
  37 H37           -1.2246     2.2445     4.0645 H       
  38 H38           -1.8164     0.0865     5.1038 H       
  39 H39            1.1957    -0.4164     5.1030 H       
  40 H40           -0.0456    -1.4803     5.8087 H       
  41 H41           -1.0701    -1.7780     3.5759 H       
  42 H42            0.6417    -2.2647     3.5522 H       
  43 H43           -0.5379     2.1584     8.7876 H       
  44 H44           -1.7119     1.2630    10.7559 H       
  45 H45           -4.4628    -2.3486    11.5139 H       
  46 H46           -5.0848    -1.3531    10.1721 H       
  47 H47           -2.8099    -3.3898     9.9710 H       
  48 H48           -4.4715    -3.6285     9.3703 H       
  49 H49           -2.0299    -1.0711     6.4229 H       
@<TRIPOS>BOND
   1    1    2 1
   2    1   28 1
   3    1   29 1
   4    1   30 1
   5    2   10 ar
   6    2    3 ar
   7    3    4 1
   8    3    5 ar
   9    5    6 ar
  10    6    7 1
  11    6    9 ar
  12    7    8 1
  13    7   31 1
  14    7   32 1
  15    8   33 1
  16    9   10 ar
  17   10   11 1
  18   11   16 1
  19   11   12 1
  20   12   13 1
  21   12   34 1
  22   12   35 1
  23   13   14 1
  24   13   36 1
  25   13   37 1
  26   14   15 1
  27   14   17 1
  28   14   38 1
  29   15   16 1
  30   15   39 1
  31   15   40 1
  32   16   41 1
  33   16   42 1
  34   17   18 1
  35   18   27 ar
  36   18   19 ar
  37   19   20 ar
  38   19   43 1
  39   20   21 ar
  40   20   44 1
  41   21   26 ar
  42   21   22 1
  43   22   23 1
  44   23   24 1
  45   23   45 1
  46   23   46 1
  47   24   25 1
  48   24   47 1
  49   24   48 1
  50   25   26 1
  51   26   27 ar
  52   27   49 1

#	End of record

