#	Name: ASD03092148
#	Creating user name:	WinNT
#	Creation time:	15. 06. 2019 20:32

#	Modifying user name:	WinNT
#	Modification time:	15. 06. 2019 20:32

#	Program:	/corina/corina34_cracker 3.40 0067  02.08.2006

@<TRIPOS>MOLECULE
ASD03092148
  48   50    0    0    0
SMALL
NO_CHARGES


@<TRIPOS>ATOM
   1 N1            -0.2191     1.4441    -0.4270 N.pl3   
   2 C2            -0.1616     0.0832    -0.4831 C.2     
   3 C3            -1.4061    -0.3918    -0.1814 C.2     
   4 C4            -2.2368     0.7090     0.0631 C.2     
   5 N5            -1.5267     1.8046    -0.0775 N.2     
   6 N6            -3.5932     0.6510     0.4052 N.pl3   
   7 C7            -4.3402     1.8289     0.5047 C.ar    
   8 C8            -4.0109     2.9289    -0.2761 C.ar    
   9 C9            -4.7514     4.0929    -0.1757 C.ar    
  10 C10           -5.8213     4.1605     0.7039 C.ar    
  11 C11           -5.4161     1.8981     1.3808 C.ar    
  12 C12            1.0300    -0.7300    -0.8110 C.ar    
  13 C13            0.8911     2.3656    -0.6809 C.3     
  14 C14            2.0925    -0.1856    -1.5443 C.ar    
  15 C15            3.1855    -0.9746    -1.8295 C.ar    
  16 N16            3.2430    -2.2292    -1.4227 N.ar    
  17 C17            2.2626    -2.7862    -0.7271 C.ar    
  18 C18            1.1282    -2.0589    -0.3928 C.ar    
  19 C19           -6.1498     3.0640     1.4825 C.ar    
  20 F20           -4.4321     5.1641    -0.9344 F       
  21 C21            0.8293     2.8514    -2.1304 C.3     
  22 N22            2.3734    -4.1120    -0.3228 N.pl3   
  23 C23            1.2941    -4.7358     0.4467 C.3     
  24 C24            1.6647    -6.1864     0.7615 C.3     
  25 O25            0.7920     3.4854     0.2013 O.3     
  26 F26           -6.5436     5.2980     0.8015 F       
  27 C27            4.3324    -0.3968    -2.6182 C.3     
  28 H28           -1.6978    -1.4308    -0.1396 H       
  29 H29           -4.0148    -0.2063     0.5732 H       
  30 H30           -3.1774     2.8758    -0.9608 H       
  31 H31           -5.6762     1.0419     1.9855 H       
  32 H32            1.8367     1.8511    -0.5101 H       
  33 H33            2.0552     0.8396    -1.8820 H       
  34 H34            0.3310    -2.5159     0.1746 H       
  35 H35           -6.9832     3.1189     2.1672 H       
  36 H36            1.6554     3.5370    -2.3194 H       
  37 H37            0.9049     1.9972    -2.8034 H       
  38 H38           -0.1163     3.3659    -2.3013 H       
  39 H39            3.1654    -4.6238    -0.5502 H       
  40 H40            1.1480    -4.1879     1.3777 H       
  41 H41            0.3731    -4.7142    -0.1359 H       
  42 H42            0.8616    -6.6506     1.3340 H       
  43 H43            1.8107    -6.7343    -0.1694 H       
  44 H44            2.5856    -6.2080     1.3441 H       
  45 H45            1.4964     4.1382     0.0889 H       
  46 H46            5.0564     0.0466    -1.9347 H       
  47 H47            4.8130    -1.1882    -3.1933 H       
  48 H48            3.9572     0.3690    -3.2970 H       
@<TRIPOS>BOND
   1    1    2 1
   2    1   13 1
   3    1    5 1
   4    2    3 2
   5    2   12 1
   6    3    4 1
   7    3   28 1
   8    4    5 2
   9    4    6 1
  10    6    7 1
  11    6   29 1
  12    7    8 ar
  13    7   11 ar
  14    8    9 ar
  15    8   30 1
  16    9   10 ar
  17    9   20 1
  18   10   19 ar
  19   10   26 1
  20   11   19 ar
  21   11   31 1
  22   12   14 ar
  23   12   18 ar
  24   13   21 1
  25   13   25 1
  26   13   32 1
  27   14   15 ar
  28   14   33 1
  29   15   16 ar
  30   15   27 1
  31   16   17 ar
  32   17   18 ar
  33   17   22 1
  34   18   34 1
  35   19   35 1
  36   21   36 1
  37   21   37 1
  38   21   38 1
  39   22   23 1
  40   22   39 1
  41   23   24 1
  42   23   40 1
  43   23   41 1
  44   24   42 1
  45   24   43 1
  46   24   44 1
  47   25   45 1
  48   27   46 1
  49   27   47 1
  50   27   48 1

#	End of record

