#	Name: ASD01913685
#	Creating user name:	WinNT
#	Creation time:	15. 06. 2019 20:02

#	Modifying user name:	WinNT
#	Modification time:	15. 06. 2019 20:02

#	Program:	/corina/corina34_cracker 3.40 0067  02.08.2006

@<TRIPOS>MOLECULE
ASD01913685
  38   39    0    0    0
SMALL
NO_CHARGES


@<TRIPOS>ATOM
   1 C1             0.0852     1.5155    -0.0688 C.3     
   2 C2             0.0838    -0.0143    -0.0927 C.3     
   3 O3            -1.2380    -0.4934     0.1631 O.3     
   4 C4            -1.4133    -1.8370     0.1768 C.ar    
   5 N5            -0.3778    -2.6324    -0.0422 N.ar    
   6 C6            -0.4972    -3.9436    -0.0392 C.ar    
   7 C7            -1.7343    -4.5442     0.1974 C.ar    
   8 C8            -2.8519    -3.7295     0.4331 C.ar    
   9 C9            -2.6782    -2.3610     0.4265 C.ar    
  10 C10           -1.8652    -6.0143     0.1992 C.2     
  11 N11           -0.7849    -6.7873    -0.0288 N.am    
  12 O12           -2.9476    -6.5280     0.4064 O.2     
  13 C13           -0.8874    -8.1786     0.0694 C.ar    
  14 C14            1.5004     2.0286    -0.3427 C.3     
  15 C15            1.5018     3.5584    -0.3188 C.3     
  16 C16           -2.0527    -8.8205    -0.3295 C.ar    
  17 C17           -2.1507   -10.1946    -0.2312 C.ar    
  18 C18           -1.0903   -10.9312     0.2641 C.ar    
  19 C19            0.0711   -10.2951     0.6625 C.ar    
  20 C20            0.1780    -8.9219     0.5606 C.ar    
  21 H21           -0.5923     1.8915    -0.8354 H       
  22 H22           -0.2444     1.8639     0.9100 H       
  23 H23            0.4134    -0.3626    -1.0715 H       
  24 H24            0.7613    -0.3903     0.6739 H       
  25 H25            0.3705    -4.5602    -0.2219 H       
  26 H26           -3.8234    -4.1632     0.6192 H       
  27 H27           -3.5163    -1.7034     0.6041 H       
  28 H28            0.0636    -6.3786    -0.2610 H       
  29 H29            2.1779     1.6525     0.4239 H       
  30 H30            1.8300     1.6802    -1.3215 H       
  31 H31            2.5100     3.9239    -0.5139 H       
  32 H32            0.8243     3.9344    -1.0854 H       
  33 H33            1.1722     3.9067     0.6600 H       
  34 H34           -2.8814    -8.2457    -0.7157 H       
  35 H35           -3.0565   -10.6943    -0.5412 H       
  36 H36           -1.1696   -12.0056     0.3402 H       
  37 H37            0.8972   -10.8732     1.0495 H       
  38 H38            1.0855    -8.4258     0.8716 H       
@<TRIPOS>BOND
   1    1    2 1
   2    1   14 1
   3    1   21 1
   4    1   22 1
   5    2    3 1
   6    2   23 1
   7    2   24 1
   8    3    4 1
   9    4    5 ar
  10    4    9 ar
  11    5    6 ar
  12    6    7 ar
  13    6   25 1
  14    7    8 ar
  15    7   10 1
  16    8    9 ar
  17    8   26 1
  18    9   27 1
  19   10   11 am
  20   10   12 2
  21   11   13 1
  22   11   28 1
  23   13   16 ar
  24   13   20 ar
  25   14   15 1
  26   14   29 1
  27   14   30 1
  28   15   31 1
  29   15   32 1
  30   15   33 1
  31   16   17 ar
  32   16   34 1
  33   17   18 ar
  34   17   35 1
  35   18   19 ar
  36   18   36 1
  37   19   20 ar
  38   19   37 1
  39   20   38 1

#	End of record

