#	Name: ASD03081185
#	Creating user name:	WinNT
#	Creation time:	15. 06. 2019 20:27

#	Modifying user name:	WinNT
#	Modification time:	15. 06. 2019 20:27

#	Program:	/corina/corina34_cracker 3.40 0067  02.08.2006

@<TRIPOS>MOLECULE
ASD03081185
  30   31    0    0    0
SMALL
NO_CHARGES


@<TRIPOS>ATOM
   1 C1            -0.0167     1.3833     0.0096 C.ar    
   2 C2             0.0021    -0.0041     0.0020 C.ar    
   3 C3             1.2270    -0.6629    -0.0132 C.ar    
   4 C4             2.3845     0.0990    -0.0201 C.ar    
   5 C5             2.2850     1.4775    -0.0118 C.ar    
   6 N6             1.1076     2.0712     0.0026 N.ar    
   7 O7            -1.1598    -0.7092     0.0097 O.3     
   8 C8            -1.0538    -2.1343     0.0011 C.3     
   9 N9            -3.1652    -2.4423    -1.2561 N.3     
  10 C10           -2.4545    -2.7499     0.0116 C.3     
  11 C11           -2.3652    -4.2907     0.0436 C.3     
  12 C12           -3.5225    -4.7780    -0.8524 C.3     
  13 C13           -4.2137    -3.4905    -1.3504 C.3     
  14 C14           -1.3363     2.1111     0.0198 C.3     
  15 H15            1.2749    -1.7418    -0.0191 H       
  16 H16            3.3530    -0.3787    -0.0316 H       
  17 H17            3.1837     2.0766    -0.0168 H       
  18 H18           -0.5233    -2.4537    -0.8960 H       
  19 H19           -0.5057    -2.4632     0.8839 H       
  20 H20           -3.5763    -1.5213    -1.2260 H       
  21 H21           -3.0249    -2.3844     0.8655 H       
  22 H22           -1.4085    -4.6229    -0.3597 H       
  23 H23           -2.4951    -4.6565     1.0621 H       
  24 H24           -3.1339    -5.3493    -1.6955 H       
  25 H25           -4.2205    -5.3829    -0.2737 H       
  26 H26           -5.0594    -3.2409    -0.7096 H       
  27 H27           -4.5405    -3.6096    -2.3834 H       
  28 H28           -1.6496     2.2810     1.0499 H       
  29 H29           -1.2270     3.0687    -0.4893 H       
  30 H30           -2.0867     1.5101    -0.4938 H       
@<TRIPOS>BOND
   1    1    2 ar
   2    1    6 ar
   3    1   14 1
   4    2    3 ar
   5    2    7 1
   6    3    4 ar
   7    3   15 1
   8    4    5 ar
   9    4   16 1
  10    5    6 ar
  11    5   17 1
  12    7    8 1
  13    8   10 1
  14    8   18 1
  15    8   19 1
  16    9   10 1
  17    9   13 1
  18    9   20 1
  19   10   11 1
  20   10   21 1
  21   11   12 1
  22   11   22 1
  23   11   23 1
  24   12   13 1
  25   12   24 1
  26   12   25 1
  27   13   26 1
  28   13   27 1
  29   14   28 1
  30   14   29 1
  31   14   30 1

#	End of record

