#	Name: ASD01918315
#	Creating user name:	WinNT
#	Creation time:	15. 06. 2019 20:11

#	Modifying user name:	WinNT
#	Modification time:	15. 06. 2019 20:11

#	Program:	/corina/corina34_cracker 3.40 0067  02.08.2006

@<TRIPOS>MOLECULE
ASD01918315
  42   45    0    0    0
SMALL
NO_CHARGES


@<TRIPOS>ATOM
   1 F1             0.0021    -0.0041     0.0020 F       
   2 C2            -0.0162     1.3468     0.0094 C.ar    
   3 C3            -1.2240     2.0231     0.0304 C.ar    
   4 C4            -1.2415     3.4052     0.0379 C.ar    
   5 C5            -0.0538     4.1120     0.0246 C.ar    
   6 C6             1.1531     3.4376     0.0037 C.ar    
   7 C7             1.1732     2.0560     0.0019 C.ar    
   8 C8             2.4472     4.2097    -0.0109 C.3     
   9 H9             2.3095     5.1928     0.4392 H       
  10 O10            3.4910     3.4703     0.6867 O.3     
  11 C11            4.4867     3.1952    -0.1632 C.2     
  12 O12            5.4857     2.5842     0.1612 O.2     
  13 N13            4.2815     3.6543    -1.4053 N.am    
  14 C14            2.9797     4.3445    -1.4506 C.3     
  15 H15            2.3088     3.8522    -2.1546 H       
  16 C16            3.1593     5.7957    -1.8148 C.ar    
  17 C17            4.2822     6.4977    -1.3985 C.ar    
  18 C18            4.4200     7.8291    -1.7481 C.ar    
  19 N19            3.5015     8.4382    -2.4689 N.ar    
  20 C20            2.4110     7.8030    -2.8882 C.ar    
  21 C21            2.2117     6.4559    -2.5762 C.ar    
  22 C22            1.4368     8.5033    -3.6701 C.1     
  23 C23            0.6382     9.0774    -4.3111 C.1     
  24 C24           -0.3359     9.7776    -5.0929 C.ar    
  25 C25           -0.1395    11.1221    -5.4195 C.ar    
  26 C26           -1.0821    11.7900    -6.1729 C.ar    
  27 C27           -2.2201    11.1321    -6.6051 C.ar    
  28 C28           -2.4215     9.8008    -6.2856 C.ar    
  29 C29           -1.4849     9.1183    -5.5379 C.ar    
  30 H30           -2.1522     1.4710     0.0404 H       
  31 H31           -2.1836     3.9330     0.0539 H       
  32 H32           -0.0684     5.1919     0.0301 H       
  33 H33            2.1160     1.5294    -0.0099 H       
  34 H34            4.8910     3.5510    -2.1528 H       
  35 H35            5.0417     6.0088    -0.8064 H       
  36 H36            5.2930     8.3767    -1.4251 H       
  37 H37            1.3283     5.9387    -2.9204 H       
  38 H38            0.7481    11.6369    -5.0826 H       
  39 H39           -0.9317    12.8292    -6.4258 H       
  40 H40           -2.9550    11.6603    -7.1945 H       
  41 H41           -3.3121     9.2938    -6.6264 H       
  42 H42           -1.6411     8.0780    -5.2933 H       
@<TRIPOS>BOND
   1    1    2 1
   2    2    7 ar
   3    2    3 ar
   4    3    4 ar
   5    3   30 1
   6    4    5 ar
   7    4   31 1
   8    5    6 ar
   9    5   32 1
  10    6    7 ar
  11    6    8 1
  12    7   33 1
  13    8    9 1
  14    8   14 1
  15    8   10 1
  16   10   11 1
  17   11   12 2
  18   11   13 am
  19   13   14 1
  20   13   34 1
  21   14   15 1
  22   14   16 1
  23   16   21 ar
  24   16   17 ar
  25   17   18 ar
  26   17   35 1
  27   18   19 ar
  28   18   36 1
  29   19   20 ar
  30   20   21 ar
  31   20   22 1
  32   21   37 1
  33   22   23 3
  34   23   24 1
  35   24   29 ar
  36   24   25 ar
  37   25   26 ar
  38   25   38 1
  39   26   27 ar
  40   26   39 1
  41   27   28 ar
  42   27   40 1
  43   28   29 ar
  44   28   41 1
  45   29   42 1

#	End of record

