#	Name: ASD01948174
#	Creating user name:	WinNT
#	Creation time:	15. 06. 2019 20:13

#	Modifying user name:	WinNT
#	Modification time:	15. 06. 2019 20:13

#	Program:	/corina/corina34_cracker 3.40 0067  02.08.2006

@<TRIPOS>MOLECULE
ASD01948174
  43   45    0    0    0
SMALL
NO_CHARGES


@<TRIPOS>ATOM
   1 C1             1.7994     1.4186    -1.0463 C.ar    
   2 C2             1.5977     0.0465    -1.1434 C.ar    
   3 C3             1.7707    -0.5930    -2.3636 C.ar    
   4 C4             2.1425     0.1350    -3.4773 C.ar    
   5 C5             2.3430     1.5002    -3.3780 C.ar    
   6 C6             2.1661     2.1421    -2.1649 C.ar    
   7 N7             1.2218    -0.6883    -0.0143 N.pl3   
   8 C8             3.6315    -2.2819    -0.4412 C.2     
   9 C9             2.3517    -2.8719    -0.2921 C.2     
  10 C10            1.1516    -2.0654    -0.0788 C.2     
  11 N11            4.6880    -3.1029    -0.6402 N.am    
  12 Cl12           1.5839     2.2230     0.4769 Cl      
  13 C13            2.2379    -4.2681    -0.3510 C.2     
  14 N14            1.0113    -4.8538    -0.2088 N.am    
  15 C15           -0.0980    -4.1216    -0.0132 C.2     
  16 C16           -0.0592    -2.7263     0.0572 C.2     
  17 C17            4.5109    -4.4439    -0.6928 C.2     
  18 N18            3.3409    -5.0036    -0.5463 N.2     
  19 O19            3.7751    -1.0729    -0.3964 O.2     
  20 C20            0.9035    -6.3135    -0.2720 C.3     
  21 O21           -1.1704    -4.6913     0.1077 O.2     
  22 Br22           2.8525     2.4924    -4.9051 Br      
  23 C23            6.0302    -2.5380    -0.8002 C.3     
  24 C24            6.7020    -2.4238     0.5697 C.3     
  25 C25            8.1038    -1.8338     0.4026 C.3     
  26 O26            8.7745    -1.8350     1.6644 O.3     
  27 O27            5.9238    -1.5715     1.4123 O.3     
  28 H28            1.6151    -1.6589    -2.4420 H       
  29 H29            2.2771    -0.3623    -4.4265 H       
  30 H30            2.3234     3.2080    -2.0904 H       
  31 H31            1.0105    -0.2301     0.8142 H       
  32 H32           -0.9685    -2.1655     0.2155 H       
  33 H33            5.3722    -5.0754    -0.8532 H       
  34 H34            1.0206    -6.7301     0.7284 H       
  35 H35           -0.0740    -6.5888    -0.6680 H       
  36 H36            1.6835    -6.7076    -0.9233 H       
  37 H37            6.6238    -3.1882    -1.4429 H       
  38 H38            5.9566    -1.5490    -1.2524 H       
  39 H39            6.7756    -3.4128     1.0219 H       
  40 H40            8.6686    -2.4353    -0.3096 H       
  41 H41            8.0259    -0.8112     0.0334 H       
  42 H42            9.6710    -1.4737     1.6336 H       
  43 H43            5.8164    -0.6730     1.0713 H       
@<TRIPOS>BOND
   1    1    2 ar
   2    1   12 1
   3    1    6 ar
   4    2    3 ar
   5    2    7 1
   6    3    4 ar
   7    3   28 1
   8    4    5 ar
   9    4   29 1
  10    5    6 ar
  11    5   22 1
  12    6   30 1
  13    7   10 1
  14    7   31 1
  15    8    9 1
  16    8   19 2
  17    8   11 am
  18    9   10 1
  19    9   13 2
  20   10   16 2
  21   11   17 1
  22   11   23 1
  23   13   14 1
  24   13   18 1
  25   14   15 am
  26   14   20 1
  27   15   16 1
  28   15   21 2
  29   16   32 1
  30   17   18 2
  31   17   33 1
  32   20   34 1
  33   20   35 1
  34   20   36 1
  35   23   24 1
  36   23   37 1
  37   23   38 1
  38   24   25 1
  39   24   27 1
  40   24   39 1
  41   25   26 1
  42   25   40 1
  43   25   41 1
  44   26   42 1
  45   27   43 1

#	End of record

