#	Name: ASD02500848
#	Creating user name:	WinNT
#	Creation time:	15. 06. 2019 20:23

#	Modifying user name:	WinNT
#	Modification time:	15. 06. 2019 20:23

#	Program:	/corina/corina34_cracker 3.40 0067  02.08.2006

@<TRIPOS>MOLECULE
ASD02500848
 114  117    0    0    0
SMALL
NO_CHARGES


@<TRIPOS>ATOM
   1 C1             0.6134     1.6181     0.5478 C.ar    
   2 C2             0.6780     0.2800     0.1928 C.ar    
   3 C3            -0.4712    -0.4032    -0.1584 C.ar    
   4 C4            -1.6940     0.2524    -0.1553 C.ar    
   5 C5            -1.7593     1.6003     0.2029 C.ar    
   6 C6            -0.6015     2.2773     0.5587 C.ar    
   7 Cl7            2.0622     2.4673     0.9873 Cl      
   8 Cl8            2.2077    -0.5408     0.1886 Cl      
   9 N9            -2.9894    -0.1626    -0.4543 N.pl3   
  10 C10           -3.8313     0.9062    -0.2838 C.2     
  11 N11           -3.0935     1.9902     0.1176 N.pl3   
  12 C12           -3.3841    -1.5081    -0.8786 C.3     
  13 C13           -3.7197    -2.3530     0.3520 C.3     
  14 C14           -3.6183     3.3269     0.4075 C.3     
  15 C15           -4.1382     3.3698     1.8458 C.3     
  16 C16           -4.6475     4.7774     2.1622 C.3     
  17 C17           -5.0551     4.8533     3.6350 C.3     
  18 C18           -5.5644     6.2609     3.9514 C.3     
  19 C19           -5.1949     0.8934    -0.4838 C.2     
  20 C20           -5.9676     2.0013    -0.1131 C.2     
  21 C21           -7.3112     2.0027    -0.3426 C.2     
  22 C22           -8.0687     3.1698    -0.0970 C.cat   
  23 N23           -7.6975     4.4460    -0.4510 N.pl3   
  24 C24           -8.7097     5.2958    -0.0339 C.ar    
  25 C25           -9.6830     4.4835     0.5736 C.ar    
  26 N26           -9.2438     3.2028     0.5025 N.pl3   
  27 C27           -8.9004     6.6669    -0.1091 C.ar    
  28 C28          -10.0473     7.2318     0.4134 C.ar    
  29 C29          -11.0127     6.4346     1.0149 C.ar    
  30 C30          -10.8394     5.0705     1.0983 C.ar    
  31 Cl31         -12.4477     7.1625     1.6667 Cl      
  32 Cl32         -10.2834     8.9491     0.3184 Cl      
  33 C33           -6.4636     4.8342    -1.1390 C.3     
  34 C34           -6.7323     4.9517    -2.6406 C.3     
  35 C35           -9.9608     2.0345     1.0194 C.3     
  36 C36          -10.8730     1.4717    -0.0725 C.3     
  37 C37          -11.6219     0.2516     0.4673 C.3     
  38 C38          -12.5340    -0.3112    -0.6246 C.3     
  39 C39          -13.2829    -1.5313    -0.0847 C.3     
  40 C40           -5.4775     5.4728    -3.3440 C.3     
  41 C41           -5.7820     5.7038    -4.8255 C.3     
  42 C42           -4.5272     6.2248    -5.5289 C.3     
  43 C43          -14.1950    -2.0941    -1.1766 C.3     
  44 C44          -14.9439    -3.3142    -0.6368 C.3     
  45 C45          -15.8560    -3.8770    -1.7287 C.3     
  46 C46           -4.1320    -3.7582    -0.0911 C.3     
  47 C47           -4.4676    -4.6031     1.1396 C.3     
  48 C48           -4.8799    -6.0083     0.6965 C.3     
  49 C49           -5.2155    -6.8532     1.9271 C.3     
  50 C50           -5.6277    -8.2584     1.4840 C.3     
  51 C51           -5.9633    -9.1032     2.7146 C.3     
  52 H52           -0.4172    -1.4457    -0.4353 H       
  53 H53           -0.6485     3.3200     0.8363 H       
  54 H54           -4.2598    -1.4432    -1.5245 H       
  55 H55           -2.5632    -1.9723    -1.4251 H       
  56 H56           -2.8441    -2.4180     0.9979 H       
  57 H57           -4.5407    -1.8888     0.8985 H       
  58 H58           -2.8239     4.0633     0.2862 H       
  59 H59           -4.4328     3.5545    -0.2802 H       
  60 H60           -4.9529     2.6546     1.9592 H       
  61 H61           -3.3310     3.1128     2.5318 H       
  62 H62           -3.8575     5.5023     1.9661 H       
  63 H63           -5.5101     5.0013     1.5346 H       
  64 H64           -5.8451     4.1284     3.8311 H       
  65 H65           -4.1925     4.6293     4.2627 H       
  66 H66           -4.7744     6.9857     3.7552 H       
  67 H67           -6.4270     6.4848     3.3237 H       
  68 H68           -5.8548     6.3149     5.0006 H       
  69 H69           -5.6677     0.0290    -0.9262 H       
  70 H70           -5.4988     2.8545     0.3545 H       
  71 H71           -7.7968     1.1117    -0.7123 H       
  72 H72           -8.1533     7.2922    -0.5752 H       
  73 H73          -11.5940     4.4561     1.5668 H       
  74 H74           -6.1203     5.7948    -0.7550 H       
  75 H75           -5.6975     4.0786    -0.9650 H       
  76 H76           -6.9929     3.9719    -3.0409 H       
  77 H77           -7.5572     5.6440    -2.8090 H       
  78 H78           -9.2430     1.2720     1.3217 H       
  79 H79          -10.5624     2.3286     1.8794 H       
  80 H80          -11.5909     2.2341    -0.3749 H       
  81 H81          -10.2714     1.1776    -0.9326 H       
  82 H82          -10.9040    -0.5108     0.7697 H       
  83 H83          -12.2234     0.5457     1.3274 H       
  84 H84          -13.2519     0.4513    -0.9270 H       
  85 H85          -11.9324    -0.6053    -1.4846 H       
  86 H86          -12.5650    -2.2937     0.2176 H       
  87 H87          -13.8844    -1.2372     0.7753 H       
  88 H88           -5.1678     6.4121    -2.8860 H       
  89 H89           -4.6763     4.7401    -3.2477 H       
  90 H90           -6.0917     4.7644    -5.2835 H       
  91 H91           -6.5833     6.4365    -4.9218 H       
  92 H92           -4.2175     7.1642    -5.0708 H       
  93 H93           -3.7260     5.4921    -5.4326 H       
  94 H94           -4.7442     6.3894    -6.5843 H       
  95 H95          -14.9129    -1.3316    -1.4790 H       
  96 H96          -13.5934    -2.3882    -2.0367 H       
  97 H97          -14.2260    -4.0766    -0.3344 H       
  98 H98          -15.5454    -3.0201     0.2233 H       
  99 H99          -15.2544    -4.1711    -2.5887 H       
 100 H100         -16.3895    -4.7462    -1.3441 H       
 101 H101         -16.5739    -3.1145    -2.0311 H       
 102 H102          -5.0076    -3.6932    -0.7370 H       
 103 H103          -3.3110    -4.2223    -0.6376 H       
 104 H104          -3.5920    -4.6680     1.7855 H       
 105 H105          -5.2886    -4.1389     1.6861 H       
 106 H106          -5.7555    -5.9433     0.0506 H       
 107 H107          -4.0589    -6.4724     0.1500 H       
 108 H108          -4.3399    -6.9181     2.5730 H       
 109 H109          -6.0364    -6.3890     2.4736 H       
 110 H110          -6.5034    -8.1934     0.8381 H       
 111 H111          -4.8068    -8.7225     0.9375 H       
 112 H112          -6.2570   -10.1043     2.3990 H       
 113 H113          -5.0877    -9.1682     3.3605 H       
 114 H114          -6.7843    -8.6391     3.2611 H       
@<TRIPOS>BOND
   1    1    2 ar
   2    1    7 1
   3    1    6 ar
   4    2    3 ar
   5    2    8 1
   6    3    4 ar
   7    3   52 1
   8    4    5 ar
   9    4    9 1
  10    5    6 ar
  11    5   11 1
  12    6   53 1
  13    9   10 1
  14    9   12 1
  15   10   11 1
  16   10   19 2
  17   11   14 1
  18   12   13 1
  19   12   54 1
  20   12   55 1
  21   13   46 1
  22   13   56 1
  23   13   57 1
  24   14   15 1
  25   14   58 1
  26   14   59 1
  27   15   16 1
  28   15   60 1
  29   15   61 1
  30   16   17 1
  31   16   62 1
  32   16   63 1
  33   17   18 1
  34   17   64 1
  35   17   65 1
  36   18   66 1
  37   18   67 1
  38   18   68 1
  39   19   20 1
  40   19   69 1
  41   20   21 2
  42   20   70 1
  43   21   22 1
  44   21   71 1
  45   22   23 ar
  46   22   26 ar
  47   23   24 1
  48   23   33 1
  49   24   25 ar
  50   24   27 ar
  51   25   26 1
  52   25   30 ar
  53   26   35 1
  54   27   28 ar
  55   27   72 1
  56   28   29 ar
  57   28   32 1
  58   29   30 ar
  59   29   31 1
  60   30   73 1
  61   33   34 1
  62   33   74 1
  63   33   75 1
  64   34   40 1
  65   34   76 1
  66   34   77 1
  67   35   36 1
  68   35   78 1
  69   35   79 1
  70   36   37 1
  71   36   80 1
  72   36   81 1
  73   37   38 1
  74   37   82 1
  75   37   83 1
  76   38   39 1
  77   38   84 1
  78   38   85 1
  79   39   43 1
  80   39   86 1
  81   39   87 1
  82   40   41 1
  83   40   88 1
  84   40   89 1
  85   41   42 1
  86   41   90 1
  87   41   91 1
  88   42   92 1
  89   42   93 1
  90   42   94 1
  91   43   44 1
  92   43   95 1
  93   43   96 1
  94   44   45 1
  95   44   97 1
  96   44   98 1
  97   45   99 1
  98   45  100 1
  99   45  101 1
 100   46   47 1
 101   46  102 1
 102   46  103 1
 103   47   48 1
 104   47  104 1
 105   47  105 1
 106   48   49 1
 107   48  106 1
 108   48  107 1
 109   49   50 1
 110   49  108 1
 111   49  109 1
 112   50   51 1
 113   50  110 1
 114   50  111 1
 115   51  112 1
 116   51  113 1
 117   51  114 1

#	End of record

