#	Name: ASD01320067
#	Creating user name:	WinNT
#	Creation time:	15. 06. 2019 19:15

#	Modifying user name:	WinNT
#	Modification time:	15. 06. 2019 19:15

#	Program:	/corina/corina34_cracker 3.40 0067  02.08.2006

@<TRIPOS>MOLECULE
ASD01320067
 117  124    0    0    0
SMALL
NO_CHARGES


@<TRIPOS>ATOM
   1 O1             0.5631    -0.3448    -1.0480 O.2     
   2 C2             0.5037     0.8604    -1.1109 C.2     
   3 O3             1.6018     1.5990    -0.8865 O.3     
   4 C4             2.8286     0.8809    -0.5728 C.3     
   5 C5             3.5783     0.5748    -1.8626 C.3     
   6 C6             4.9011    -0.1209    -1.5560 C.3     
   7 C7             5.7987     0.8167    -0.7273 C.3     
   8 C8             5.0635     1.1745     0.5570 C.3     
   9 C9             3.6647     1.7201     0.3942 C.3     
  10 C10            3.6412     3.1869    -0.0327 C.3     
  11 C11            2.9514     1.6376     1.7672 C.3     
  12 C12            5.9576     2.0569     1.4278 C.3     
  13 C13            7.1296     1.1743     1.8946 C.3     
  14 C14            7.9440     0.6950     0.6966 C.3     
  15 C15            7.0704     0.0472    -0.3683 C.3     
  16 C16            7.9106    -0.2364    -1.6132 C.3     
  17 C17            9.1425    -1.0062    -1.2210 C.2     
  18 C18            9.6218    -1.0403    -0.0129 C.2     
  19 C19            9.0082    -0.3099     1.1513 C.3     
  20 C20            8.3237    -1.3853     2.0094 C.3     
  21 C21           10.0650     0.3532     2.0225 C.3     
  22 C22           11.2412    -0.5798     2.3129 C.3     
  23 C23           11.8735    -1.0701     1.0081 C.3     
  24 C24           10.8379    -1.9067     0.2594 C.3     
  25 C25           11.4166    -2.4616    -1.0320 C.3     
  26 C26           12.6653    -3.2990    -0.7594 C.3     
  27 C27           12.2853    -4.5790    -0.0115 C.3     
  28 C28           13.2935    -3.6935    -2.1059 C.3     
  29 C29           13.6933    -2.5116     0.0455 C.3     
  30 C30           13.0948    -1.9333     1.3220 C.3     
  31 C31           12.2964     0.1144     0.1816 C.2     
  32 O32           11.8298     0.2795    -0.9206 O.2     
  33 O33           13.1918     0.9875     0.6691 O.3     
  34 C34            8.6850     1.9052     0.1038 C.3     
  35 C35            6.1119     2.0388    -1.5837 C.3     
  36 C36           -0.8017     1.5339    -1.4475 C.3     
  37 N37           -1.8371     0.5178    -1.6516 N.pl3   
  38 N38           -1.7730    -0.4696    -2.4748 N.2     
  39 N39           -2.8471    -1.1741    -2.4072 N.2     
  40 C40           -3.6642    -0.6316    -1.4976 C.2     
  41 C41           -3.0228     0.4526    -1.0028 C.2     
  42 C42           -5.0283    -1.1325    -1.0983 C.3     
  43 O43           -5.5850    -0.2604    -0.0796 O.3     
  44 C44           -6.8048    -0.5699     0.3874 C.2     
  45 O45           -7.3880    -1.5375    -0.0408 O.2     
  46 C46           -7.4468     0.2895     1.4459 C.3     
  47 C47           -8.8022    -0.2702     1.7934 C.ar    
  48 C48           -9.9188     0.2145     1.1849 C.ar    
  49 C49          -11.1807    -0.2906     1.4933 C.ar    
  50 C50          -11.3328    -1.2834     2.4116 C.ar    
  51 C51          -10.2027    -1.8096     3.0605 C.ar    
  52 C52           -8.9191    -1.2994     2.7433 C.ar    
  53 C53           -7.7889    -1.8255     3.3921 C.ar    
  54 C54           -7.9414    -2.8151     4.3137 C.ar    
  55 C55           -9.2037    -3.3172     4.6254 C.ar    
  56 C56          -10.3200    -2.8351     4.0142 C.ar    
  57 H57            2.5608    -0.0609    -0.0806 H       
  58 H58            2.9632    -0.1035    -2.4729 H       
  59 H59            3.7324     1.4813    -2.4399 H       
  60 H60            4.7176    -1.0298    -0.9844 H       
  61 H61            5.4106    -0.3684    -2.4866 H       
  62 H62            4.9586     0.2106     1.1202 H       
  63 H63            4.0416     3.2779    -1.0424 H       
  64 H64            2.6151     3.5543    -0.0143 H       
  65 H65            4.2501     3.7750     0.6539 H       
  66 H66            3.5019     2.2292     2.4987 H       
  67 H67            1.9376     2.0270     1.6739 H       
  68 H68            2.9129     0.5988     2.0948 H       
  69 H69            6.3241     2.9194     0.8938 H       
  70 H70            5.4148     2.3865     2.3161 H       
  71 H71            7.7635     1.7648     2.5577 H       
  72 H72            6.6931     0.3501     2.4527 H       
  73 H73            6.7308    -0.9371     0.0197 H       
  74 H74            7.3271    -0.8584    -2.3038 H       
  75 H75            8.2075     0.6667    -2.1327 H       
  76 H76            9.6489    -1.5594    -1.9995 H       
  77 H77            7.5613    -1.8915     1.4173 H       
  78 H78            9.0658    -2.1107     2.3429 H       
  79 H79            7.8585    -0.9165     2.8765 H       
  80 H80           10.4514     1.2762     1.6059 H       
  81 H81            9.5990     0.6130     2.9896 H       
  82 H82           11.9985    -0.0316     2.8828 H       
  83 H83           10.9139    -1.4338     2.9015 H       
  84 H84           10.5268    -2.7410     0.9030 H       
  85 H85           10.6657    -3.1070    -1.5099 H       
  86 H86           11.6563    -1.6573    -1.7269 H       
  87 H87           11.5892    -5.1601    -0.6164 H       
  88 H88           13.1820    -5.1689     0.1780 H       
  89 H89           11.8138    -4.3196     0.9364 H       
  90 H90           13.5631    -2.7936    -2.6586 H       
  91 H91           14.1868    -4.2923    -1.9285 H       
  92 H92           12.5759    -4.2744    -2.6853 H       
  93 H93           14.5157    -3.1885     0.3171 H       
  94 H94           14.1149    -1.7181    -0.5728 H       
  95 H95           13.8455    -1.3116     1.8235 H       
  96 H96           12.8069    -2.7352     2.0033 H       
  97 H97           13.4324     1.7325     0.1015 H       
  98 H98            9.3864     2.2980     0.8398 H       
  99 H99            9.2297     1.5963    -0.7884 H       
 100 H100           7.9642     2.6789    -0.1603 H       
 101 H101           5.1875     2.4336    -2.0051 H       
 102 H102           6.5855     2.8028    -0.9671 H       
 103 H103           6.7865     1.7536    -2.3909 H       
 104 H104          -1.0936     2.1906    -0.6280 H       
 105 H105          -0.6836     2.1204    -2.3586 H       
 106 H106          -3.3866     1.1324    -0.2465 H       
 107 H107          -5.6830    -1.1373    -1.9698 H       
 108 H108          -4.9424    -2.1445    -0.7028 H       
 109 H109          -6.8185     0.2990     2.3366 H       
 110 H110          -7.5591     1.3062     1.0696 H       
 111 H111          -9.8258     1.0026     0.4523 H       
 112 H112         -12.0509     0.1122     0.9963 H       
 113 H113         -12.3169    -1.6648     2.6408 H       
 114 H114          -6.8044    -1.4467     3.1602 H       
 115 H115          -7.0712    -3.2177     4.8109 H       
 116 H116          -9.2970    -4.1030     5.3604 H       
 117 H117         -11.2917    -3.2337     4.2659 H       
@<TRIPOS>BOND
   1    1    2 2
   2    2    3 1
   3    2   36 1
   4    3    4 1
   5    4    5 1
   6    4    9 1
   7    4   57 1
   8    5    6 1
   9    5   58 1
  10    5   59 1
  11    6    7 1
  12    6   60 1
  13    6   61 1
  14    7    8 1
  15    7   35 1
  16    7   15 1
  17    8    9 1
  18    8   12 1
  19    8   62 1
  20    9   10 1
  21    9   11 1
  22   10   63 1
  23   10   64 1
  24   10   65 1
  25   11   66 1
  26   11   67 1
  27   11   68 1
  28   12   13 1
  29   12   69 1
  30   12   70 1
  31   13   14 1
  32   13   71 1
  33   13   72 1
  34   14   19 1
  35   14   34 1
  36   14   15 1
  37   15   16 1
  38   15   73 1
  39   16   17 1
  40   16   74 1
  41   16   75 1
  42   17   18 2
  43   17   76 1
  44   18   19 1
  45   18   24 1
  46   19   20 1
  47   19   21 1
  48   20   77 1
  49   20   78 1
  50   20   79 1
  51   21   22 1
  52   21   80 1
  53   21   81 1
  54   22   23 1
  55   22   82 1
  56   22   83 1
  57   23   31 1
  58   23   24 1
  59   23   30 1
  60   24   25 1
  61   24   84 1
  62   25   26 1
  63   25   85 1
  64   25   86 1
  65   26   27 1
  66   26   28 1
  67   26   29 1
  68   27   87 1
  69   27   88 1
  70   27   89 1
  71   28   90 1
  72   28   91 1
  73   28   92 1
  74   29   30 1
  75   29   93 1
  76   29   94 1
  77   30   95 1
  78   30   96 1
  79   31   32 2
  80   31   33 1
  81   33   97 1
  82   34   98 1
  83   34   99 1
  84   34  100 1
  85   35  101 1
  86   35  102 1
  87   35  103 1
  88   36   37 1
  89   36  104 1
  90   36  105 1
  91   37   38 1
  92   37   41 1
  93   38   39 2
  94   39   40 1
  95   40   41 2
  96   40   42 1
  97   41  106 1
  98   42   43 1
  99   42  107 1
 100   42  108 1
 101   43   44 1
 102   44   45 2
 103   44   46 1
 104   46   47 1
 105   46  109 1
 106   46  110 1
 107   47   48 ar
 108   47   52 ar
 109   48   49 ar
 110   48  111 1
 111   49   50 ar
 112   49  112 1
 113   50   51 ar
 114   50  113 1
 115   51   52 ar
 116   51   56 ar
 117   52   53 ar
 118   53   54 ar
 119   53  114 1
 120   54   55 ar
 121   54  115 1
 122   55   56 ar
 123   55  116 1
 124   56  117 1

#	End of record

