#	Name: ASD08590006
#	Creating user name:	WinNT
#	Creation time:	15. 06. 2019 21:19

#	Modifying user name:	WinNT
#	Modification time:	15. 06. 2019 21:19

#	Program:	/corina/corina34_cracker 3.40 0067  02.08.2006

@<TRIPOS>MOLECULE
ASD08590006
  44   46    0    0    0
SMALL
NO_CHARGES


@<TRIPOS>ATOM
   1 N1            -0.1451     1.3912    -0.3813 N.am    
   2 C2             0.0150     0.0610    -0.2363 C.2     
   3 C3            -1.2984    -0.4516     0.3205 C.3     
   4 N4            -2.1234     0.7634     0.4354 N.am    
   5 C5            -1.3626     1.7870     0.0072 C.2     
   6 C6            -3.4344     0.8384     0.9009 C.ar    
   7 C7            -3.6803     0.9507     2.2649 C.ar    
   8 C8            -4.4942     0.8065    -0.0017 C.ar    
   9 C9            -5.7907     0.8812     0.4522 C.ar    
  10 C10           -6.0454     0.9889     1.8232 C.ar    
  11 C11           -4.9772     1.0253     2.7292 C.ar    
  12 C12           -7.4322     1.0695     2.3128 C.2     
  13 O13           -7.6514     1.1631     3.5045 O.2     
  14 O14           -8.4580     1.0395     1.4392 O.3     
  15 F15           -5.2168     1.1288     4.0547 F       
  16 O16            1.0036    -0.5904    -0.4976 O.2     
  17 C17            0.8415     2.2523    -0.8715 C.ar    
  18 C18            1.7287     2.8630     0.0083 C.ar    
  19 C19            0.9367     2.4913    -2.2379 C.ar    
  20 C20            1.9075     3.3385    -2.7246 C.ar    
  21 C21            2.7971     3.9585    -1.8432 C.ar    
  22 C22            2.7013     3.7120    -0.4707 C.ar    
  23 S23           -1.8965     3.4128    -0.0447 S.2     
  24 C24           -1.9403    -1.4488    -0.6461 C.3     
  25 C25           -1.0876    -1.0910     1.6944 C.3     
  26 C26            3.8081     4.8396    -2.3454 C.1     
  27 N27            4.6101     5.5386    -2.7437 N.1     
  28 C28            3.6582     4.3781     0.4841 C.3     
  29 F29            3.3655     3.9783     1.7924 F       
  30 F30            4.9689     4.0070     0.1654 F       
  31 F31            3.5286     5.7672     0.3810 F       
  32 H32           -2.8554     0.9793     2.9613 H       
  33 H33           -4.2979     0.7233    -1.0604 H       
  34 H34           -6.6112     0.8570    -0.2497 H       
  35 H35           -9.3502     1.0953     1.8078 H       
  36 H36            1.6544     2.6715     1.0686 H       
  37 H37            0.2488     2.0117    -2.9184 H       
  38 H38            1.9813     3.5232    -3.7862 H       
  39 H39           -1.2787    -2.3050    -0.7773 H       
  40 H40           -2.8943    -1.7855    -0.2403 H       
  41 H41           -2.1053    -0.9662    -1.6095 H       
  42 H42           -0.6540    -0.3574     2.3740 H       
  43 H43           -2.0458    -1.4295     2.0885 H       
  44 H44           -0.4128    -1.9418     1.5995 H       
@<TRIPOS>BOND
   1    1    2 am
   2    1   17 1
   3    1    5 am
   4    2    3 1
   5    2   16 2
   6    3    4 1
   7    3   24 1
   8    3   25 1
   9    4    5 am
  10    4    6 1
  11    5   23 2
  12    6    7 ar
  13    6    8 ar
  14    7   11 ar
  15    7   32 1
  16    8    9 ar
  17    8   33 1
  18    9   10 ar
  19    9   34 1
  20   10   11 ar
  21   10   12 1
  22   11   15 1
  23   12   13 2
  24   12   14 1
  25   14   35 1
  26   17   18 ar
  27   17   19 ar
  28   18   22 ar
  29   18   36 1
  30   19   20 ar
  31   19   37 1
  32   20   21 ar
  33   20   38 1
  34   21   22 ar
  35   21   26 1
  36   22   28 1
  37   24   39 1
  38   24   40 1
  39   24   41 1
  40   25   42 1
  41   25   43 1
  42   25   44 1
  43   26   27 3
  44   28   29 1
  45   28   30 1
  46   28   31 1

#	End of record

