#	Name: ASD06660046
#	Creating user name:	WinNT
#	Creation time:	15. 06. 2019 21:07

#	Modifying user name:	WinNT
#	Modification time:	15. 06. 2019 21:07

#	Program:	/corina/corina34_cracker 3.40 0067  02.08.2006

@<TRIPOS>MOLECULE
ASD06660046
  69   72    0    0    0
SMALL
NO_CHARGES


@<TRIPOS>ATOM
   1 C1            -1.3541     1.7025     0.5251 C.2     
   2 C2            -0.9296     0.4325    -0.1662 C.3     
   3 C3            -1.5718     0.3677    -1.5534 C.3     
   4 O4            -0.5236     2.5099     0.8690 O.2     
   5 O5            -2.6554     1.9393     0.7539 O.3     
   6 C6            -1.2545    -0.9597    -2.1924 C.ar    
   7 C7            -2.0505    -2.0596    -1.9299 C.ar    
   8 C8            -1.7623    -3.2775    -2.5139 C.ar    
   9 C9            -0.6722    -3.3967    -3.3659 C.ar    
  10 C10            0.1249    -2.2902    -3.6278 C.ar    
  11 C11           -0.1714    -1.0739    -3.0444 C.ar    
  12 N12           -0.3773    -4.6294    -3.9588 N.am    
  13 C13           -1.1407    -5.7295    -3.8414 C.2     
  14 C14           -0.5274    -6.8737    -4.6181 C.3     
  15 C15            0.4933    -6.1904    -5.5574 C.3     
  16 C16            0.8021    -4.8855    -4.7940 C.3     
  17 C17            1.7509    -7.0473    -5.7156 C.3     
  18 N18            1.4127    -8.2849    -6.4229 N.pl3   
  19 C19            2.4000    -9.2276    -6.6849 C.ar    
  20 C20            3.7075    -8.9896    -6.2728 C.ar    
  21 C21            4.6798    -9.9360    -6.5401 C.ar    
  22 C22            4.3108   -11.0934    -7.2133 C.ar    
  23 C23            2.9949   -11.2644    -7.5930 C.ar    
  24 N24            2.0869   -10.3465    -7.3198 N.ar    
  25 O25           -2.1711    -5.7953    -3.2051 O.2     
  26 C26            1.3023     0.1455     0.7684 C.2     
  27 C27            2.7665     0.0221     0.6100 C.ar    
  28 C28            3.3512    -1.2364     0.4555 C.ar    
  29 C29            4.7177    -1.3452     0.3077 C.ar    
  30 C30            5.5103    -0.2090     0.3128 C.ar    
  31 C31            4.9361     1.0420     0.4656 C.ar    
  32 C32            3.5698     1.1638     0.6085 C.ar    
  33 O33            0.7954     0.0042     1.8642 O.2     
  34 N34            0.5290     0.4147    -0.3021 N.am    
  35 C35            2.9459     2.5262     0.7686 C.3     
  36 C36            2.4904    -2.4734     0.4508 C.3     
  37 C37            1.9506    -2.7137    -0.9605 C.3     
  38 Cl38           7.2303    -0.3540     0.1273 Cl      
  39 H39           -1.2501    -0.4266     0.4231 H       
  40 H40           -2.6523     0.4765    -1.4589 H       
  41 H41           -1.1785     1.1729    -2.1739 H       
  42 H42           -2.8791     2.7674     1.2003 H       
  43 H43           -2.8981    -1.9662    -1.2672 H       
  44 H44           -2.3839    -4.1363    -2.3079 H       
  45 H45            0.9735    -2.3797    -4.2899 H       
  46 H46            0.4457    -0.2119    -3.2509 H       
  47 H47           -0.0219    -7.5649    -3.9437 H       
  48 H48           -1.2903    -7.3938    -5.1974 H       
  49 H49            0.0462    -5.9736    -6.5276 H       
  50 H50            0.9539    -4.0642    -5.4944 H       
  51 H51            1.6854    -5.0174    -4.1691 H       
  52 H52            2.4974    -6.4950    -6.2864 H       
  53 H53            2.1519    -7.2893    -4.7313 H       
  54 H54            0.4998    -8.4465    -6.7083 H       
  55 H55            3.9597    -8.0779    -5.7515 H       
  56 H56            5.7030    -9.7785    -6.2327 H       
  57 H57            5.0462   -11.8519    -7.4376 H       
  58 H58            2.7037   -12.1629    -8.1167 H       
  59 H59            5.1711    -2.3181     0.1881 H       
  60 H60            5.5591     1.9241     0.4691 H       
  61 H61            0.9382     0.5966    -1.1626 H       
  62 H62            2.8997     2.7827     1.8270 H       
  63 H63            3.5484     3.2659     0.2414 H       
  64 H64            1.9382     2.5155     0.3530 H       
  65 H65            3.0857    -3.3315     0.7631 H       
  66 H66            1.6572    -2.3389     1.1405 H       
  67 H67            1.2508    -3.5493    -0.9444 H       
  68 H68            1.4386    -1.8177    -1.3111 H       
  69 H69            2.7779    -2.9455    -1.6313 H       
@<TRIPOS>BOND
   1    1    2 1
   2    1    4 2
   3    1    5 1
   4    2    3 1
   5    2   34 1
   6    2   39 1
   7    3    6 1
   8    3   40 1
   9    3   41 1
  10    5   42 1
  11    6    7 ar
  12    6   11 ar
  13    7    8 ar
  14    7   43 1
  15    8    9 ar
  16    8   44 1
  17    9   10 ar
  18    9   12 1
  19   10   11 ar
  20   10   45 1
  21   11   46 1
  22   12   13 am
  23   12   16 1
  24   13   14 1
  25   13   25 2
  26   14   15 1
  27   14   47 1
  28   14   48 1
  29   15   16 1
  30   15   17 1
  31   15   49 1
  32   16   50 1
  33   16   51 1
  34   17   18 1
  35   17   52 1
  36   17   53 1
  37   18   19 1
  38   18   54 1
  39   19   20 ar
  40   19   24 ar
  41   20   21 ar
  42   20   55 1
  43   21   22 ar
  44   21   56 1
  45   22   23 ar
  46   22   57 1
  47   23   24 ar
  48   23   58 1
  49   26   27 1
  50   26   33 2
  51   26   34 am
  52   27   28 ar
  53   27   32 ar
  54   28   29 ar
  55   28   36 1
  56   29   30 ar
  57   29   59 1
  58   30   31 ar
  59   30   38 1
  60   31   32 ar
  61   31   60 1
  62   32   35 1
  63   34   61 1
  64   35   62 1
  65   35   63 1
  66   35   64 1
  67   36   37 1
  68   36   65 1
  69   36   66 1
  70   37   67 1
  71   37   68 1
  72   37   69 1

#	End of record

