#	Name: ASD01810256
#	Creating user name:	WinNT
#	Creation time:	15. 06. 2019 19:24

#	Modifying user name:	WinNT
#	Modification time:	15. 06. 2019 19:24

#	Program:	/corina/corina34_cracker 3.40 0067  02.08.2006

@<TRIPOS>MOLECULE
ASD01810256
  54   56    0    0    0
SMALL
NO_CHARGES


@<TRIPOS>ATOM
   1 C1            -0.0167     1.3808     0.0096 C.ar    
   2 C2             0.0021    -0.0041     0.0020 C.ar    
   3 C3             1.2081    -0.6844    -0.0125 C.ar    
   4 C4             2.4008     0.0154    -0.0198 C.ar    
   5 C5             2.3874     1.4002    -0.0131 C.ar    
   6 C6             1.1740     2.0860     0.0021 C.ar    
   7 F7            -1.1598    -0.6933     0.0092 F       
   8 N8             3.5868     2.1286    -0.0223 N.am    
   9 C9             3.5582     3.4406     0.2984 C.2     
  10 C10            2.2542     4.0848     0.6950 C.3     
  11 O11            1.1742     3.4458     0.0100 O.3     
  12 O12            4.5774     4.0974     0.2677 O.2     
  13 C13            4.8506     1.4762    -0.3738 C.3     
  14 C14            5.0771     1.5830    -1.8831 C.3     
  15 C15            6.3970     0.9016    -2.2502 C.3     
  16 N16            6.6145     1.0041    -3.6994 N.3     
  17 C17            7.9722     0.5758    -4.0593 C.3     
  18 C18            8.2113     0.8322    -5.5490 C.3     
  19 C19            7.1769     0.0553    -6.3681 C.3     
  20 C20            5.7710     0.4851    -5.9398 C.3     
  21 C21            5.6027     0.2388    -4.4388 C.3     
  22 C22            7.3724     0.3555    -7.8556 C.3     
  23 C23            6.4222    -0.5148    -8.6807 C.3     
  24 C24            6.6178    -0.2146   -10.1681 C.3     
  25 C25            5.6676    -1.0848   -10.9932 C.3     
  26 H26           -0.9586     1.9092     0.0170 H       
  27 H27            1.2173    -1.7643    -0.0179 H       
  28 H28            3.3406    -0.5167    -0.0302 H       
  29 H29            2.1118     3.9832     1.7709 H       
  30 H30            2.2767     5.1421     0.4308 H       
  31 H31            5.6705     1.9653     0.1522 H       
  32 H32            4.8095     0.4257    -0.0859 H       
  33 H33            4.2572     1.0939    -2.4091 H       
  34 H34            5.1182     2.6335    -2.1710 H       
  35 H35            7.2169     1.3907    -1.7242 H       
  36 H36            6.3559    -0.1489    -1.9623 H       
  37 H37            8.6982     1.1388    -3.4728 H       
  38 H38            8.0844    -0.4883    -3.8513 H       
  39 H39            8.1128     1.8979    -5.7552 H       
  40 H40            9.2136     0.4997    -5.8192 H       
  41 H41            7.3006    -1.0132    -6.1918 H       
  42 H42            5.6342     1.5454    -6.1522 H       
  43 H43            5.0298    -0.0953    -6.4892 H       
  44 H44            5.7260    -0.8237    -4.2291 H       
  45 H45            4.6076     0.5571    -4.1279 H       
  46 H46            7.1586     1.4074    -8.0451 H       
  47 H47            8.4024     0.1374    -8.1379 H       
  48 H48            6.6360    -1.5667    -8.4911 H       
  49 H49            5.3923    -0.2967    -8.3983 H       
  50 H50            6.4040     0.8373   -10.3577 H       
  51 H51            7.6477    -0.4327   -10.4505 H       
  52 H52            5.8813    -2.1367   -10.8037 H       
  53 H53            4.6376    -0.8667   -10.7109 H       
  54 H54            5.8069    -0.8709   -12.0529 H       
@<TRIPOS>BOND
   1    1    2 ar
   2    1    6 ar
   3    1   26 1
   4    2    3 ar
   5    2    7 1
   6    3    4 ar
   7    3   27 1
   8    4    5 ar
   9    4   28 1
  10    5    6 ar
  11    5    8 1
  12    6   11 1
  13    8    9 am
  14    8   13 1
  15    9   10 1
  16    9   12 2
  17   10   11 1
  18   10   29 1
  19   10   30 1
  20   13   14 1
  21   13   31 1
  22   13   32 1
  23   14   15 1
  24   14   33 1
  25   14   34 1
  26   15   16 1
  27   15   35 1
  28   15   36 1
  29   16   17 1
  30   16   21 1
  31   17   18 1
  32   17   37 1
  33   17   38 1
  34   18   19 1
  35   18   39 1
  36   18   40 1
  37   19   20 1
  38   19   22 1
  39   19   41 1
  40   20   21 1
  41   20   42 1
  42   20   43 1
  43   21   44 1
  44   21   45 1
  45   22   23 1
  46   22   46 1
  47   22   47 1
  48   23   24 1
  49   23   48 1
  50   23   49 1
  51   24   25 1
  52   24   50 1
  53   24   51 1
  54   25   52 1
  55   25   53 1
  56   25   54 1

#	End of record

