#	Name: ASD08150929
#	Creating user name:	WinNT
#	Creation time:	15. 06. 2019 21:16

#	Modifying user name:	WinNT
#	Modification time:	15. 06. 2019 21:16

#	Program:	/corina/corina34_cracker 3.40 0067  02.08.2006

@<TRIPOS>MOLECULE
ASD08150929
  46   50    0    0    0
SMALL
NO_CHARGES


@<TRIPOS>ATOM
   1 N1            -0.2661     1.4071     0.0808 N.2     
   2 C2            -0.6684     0.2764     0.5841 C.2     
   3 N3            -0.3376     0.2105     1.9049 N.pl3   
   4 C4             0.3081     1.3777     2.2259 C.ar    
   5 N5             0.8502     1.8768     3.3318 N.ar    
   6 C6             1.4164     3.0652     3.3242 C.ar    
   7 N7             1.4765     3.8148     2.2388 N.ar    
   8 C8             0.9615     3.3994     1.0861 C.ar    
   9 C9             0.3466     2.1367     1.0439 C.ar    
  10 N10            1.0289     4.1923    -0.0462 N.pl3   
  11 C11            1.6735     5.5064     0.0171 C.3     
  12 C12            2.1550     5.9060    -1.3791 C.3     
  13 C13            0.6093     9.8550     2.1572 C.ar    
  14 N14           -0.2951    10.7096     2.5772 N.ar    
  15 C15           -1.5974    10.4869     2.4670 C.ar    
  16 C16           -2.0864     9.3461     1.9060 C.ar    
  17 C17           -1.1764     8.3832     1.4322 C.ar    
  18 C18           -1.6006     7.1826     0.8413 C.ar    
  19 C19           -0.6779     6.2810     0.3972 C.ar    
  20 C20            0.6850     6.5272     0.5189 C.ar    
  21 C21            1.1449     7.6984     1.0958 C.ar    
  22 C22            0.2099     8.6499     1.5641 C.ar    
  23 C23            2.5990     7.9514     1.2215 C.ar    
  24 C24            3.1895     9.0028     0.5211 C.ar    
  25 C25            4.5466     9.2336     0.6426 C.ar    
  26 C26            5.3189     8.4221     1.4586 C.ar    
  27 C27            4.7370     7.3783     2.1544 C.ar    
  28 C28            3.3815     7.1426     2.0452 C.ar    
  29 F29            5.1213    10.2512    -0.0352 F       
  30 Cl30          -3.2955     6.8455     0.6765 Cl      
  31 H31           -1.1879    -0.4958     0.0362 H       
  32 H32           -0.5248    -0.5263     2.5074 H       
  33 H33            1.8477     3.4414     4.2401 H       
  34 H34            0.6493     3.8780    -0.8817 H       
  35 H35            2.5251     5.4610     0.6959 H       
  36 H36            2.6346     6.8837    -1.3320 H       
  37 H37            2.8700     5.1677    -1.7420 H       
  38 H38            1.3034     5.9514    -2.0579 H       
  39 H39            1.6595    10.0827     2.2648 H       
  40 H40           -2.2899    11.2307     2.8326 H       
  41 H41           -3.1511     9.1839     1.8264 H       
  42 H42           -1.0122     5.3595    -0.0560 H       
  43 H43            2.5878     9.6349    -0.1151 H       
  44 H44            6.3792     8.6055     1.5511 H       
  45 H45            5.3438     6.7490     2.7885 H       
  46 H46            2.9281     6.3301     2.5935 H       
@<TRIPOS>BOND
   1    1    2 2
   2    1    9 1
   3    2    3 1
   4    2   31 1
   5    3    4 1
   6    3   32 1
   7    4    5 ar
   8    4    9 ar
   9    5    6 ar
  10    6    7 ar
  11    6   33 1
  12    7    8 ar
  13    8    9 ar
  14    8   10 1
  15   10   11 1
  16   10   34 1
  17   11   12 1
  18   11   20 1
  19   11   35 1
  20   12   36 1
  21   12   37 1
  22   12   38 1
  23   13   14 ar
  24   13   22 ar
  25   13   39 1
  26   14   15 ar
  27   15   16 ar
  28   15   40 1
  29   16   17 ar
  30   16   41 1
  31   17   18 ar
  32   17   22 ar
  33   18   19 ar
  34   18   30 1
  35   19   20 ar
  36   19   42 1
  37   20   21 ar
  38   21   22 ar
  39   21   23 1
  40   23   24 ar
  41   23   28 ar
  42   24   25 ar
  43   24   43 1
  44   25   26 ar
  45   25   29 1
  46   26   27 ar
  47   26   44 1
  48   27   28 ar
  49   27   45 1
  50   28   46 1

#	End of record

