#	Name: ASD02500407
#	Creating user name:	WinNT
#	Creation time:	15. 06. 2019 20:22

#	Modifying user name:	WinNT
#	Modification time:	15. 06. 2019 20:22

#	Program:	/corina/corina34_cracker 3.40 0067  02.08.2006

@<TRIPOS>MOLECULE
ASD02500407
  71   75    0    0    0
SMALL
NO_CHARGES


@<TRIPOS>ATOM
   1 N1             2.2597     3.9933    -1.2907 N.ar    
   2 C2             3.2383     3.6657    -0.4825 C.ar    
   3 C3             4.3207     2.9015    -0.9136 C.ar    
   4 C4             4.3799     2.4735    -2.2092 C.ar    
   5 C5             3.3270     2.8268    -3.0742 C.ar    
   6 C6             3.3190     2.4238    -4.4190 C.ar    
   7 C7             2.2822     2.7864    -5.2240 C.ar    
   8 C8             1.2286     3.5530    -4.7309 C.ar    
   9 C9             1.2043     3.9610    -3.4326 C.ar    
  10 C10            2.2564     3.6067    -2.5705 C.ar    
  11 S11           -0.1404     4.9304    -2.8353 S.o2    
  12 O12            0.4343     6.0331    -2.1475 O.2     
  13 O13           -1.0431     5.0775    -3.9227 O.2     
  14 N14           -0.9275     4.0257    -1.6932 N.am    
  15 C15           -1.5157     2.8168    -2.0481 C.ar    
  16 C16           -1.3130     1.6877    -1.2593 C.ar    
  17 C17           -1.8937     0.4898    -1.6079 C.ar    
  18 C18           -2.6879     0.4074    -2.7554 C.ar    
  19 C19           -2.8895     1.5430    -3.5454 C.ar    
  20 C20           -2.3106     2.7393    -3.1884 C.ar    
  21 C21           -3.3115    -0.8753    -3.1322 C.2     
  22 O22           -4.4458    -0.8945    -3.5699 O.2     
  23 N23           -2.6240    -2.0259    -2.9912 N.am    
  24 C24           -3.1961    -3.3063    -3.4347 C.3     
  25 C25           -2.1725    -4.0127    -4.3300 C.3     
  26 N26           -0.8928    -4.1180    -3.6165 N.3     
  27 C27           -0.3336    -2.7910    -3.3262 C.3     
  28 C28           -1.2793    -2.0337    -2.3953 C.3     
  29 C29            0.0641    -4.9391    -4.3702 C.3     
  30 C30            1.4286    -4.8255    -3.7407 C.ar    
  31 C31            1.8063    -5.7086    -2.7475 C.ar    
  32 C32            3.0624    -5.6035    -2.1684 C.ar    
  33 C33            3.9365    -4.6112    -2.5885 C.ar    
  34 C34            3.5542    -3.7308    -3.5817 C.ar    
  35 C35            2.3035    -3.8412    -4.1613 C.ar    
  36 O36            3.4361    -6.4707    -1.1911 O.3     
  37 C37            4.7647    -6.3404    -0.6814 C.3     
  38 C38            4.8327    -6.9400     0.7246 C.3     
  39 C39            5.7382    -7.0819    -1.5997 C.3     
  40 H40            3.2049     3.9972     0.5448 H       
  41 H41            5.1123     2.6482    -0.2239 H       
  42 H42            5.2116     1.8807    -2.5604 H       
  43 H43            4.1305     1.8299    -4.8129 H       
  44 H44            2.2769     2.4759    -6.2584 H       
  45 H45            0.4182     3.8284    -5.3896 H       
  46 H46           -0.9783     4.3392    -0.7767 H       
  47 H47           -0.6991     1.7519    -0.3731 H       
  48 H48           -1.7359    -0.3858    -0.9957 H       
  49 H49           -3.5022     1.4824    -4.4327 H       
  50 H50           -2.4699     3.6181    -3.7956 H       
  51 H51           -3.4156    -3.9291    -2.5676 H       
  52 H52           -4.1108    -3.1229    -3.9984 H       
  53 H53           -2.5338    -5.0106    -4.5782 H       
  54 H54           -2.0322    -3.4380    -5.2455 H       
  55 H55            0.6387    -2.9030    -2.8464 H       
  56 H56           -0.2190    -2.2334    -4.2557 H       
  57 H57           -0.9274    -1.0095    -2.2722 H       
  58 H58           -1.3111    -2.5319    -1.4264 H       
  59 H59           -0.2582    -5.9803    -4.3534 H       
  60 H60            0.1096    -4.5895    -5.4016 H       
  61 H61            1.1240    -6.4799    -2.4220 H       
  62 H62            4.9149    -4.5270    -2.1389 H       
  63 H63            4.2341    -2.9580    -3.9087 H       
  64 H64            2.0082    -3.1549    -4.9411 H       
  65 H65            5.0362    -5.2855    -0.6400 H       
  66 H66            4.5612    -7.9948     0.6832 H       
  67 H67            5.8461    -6.8406     1.1134 H       
  68 H68            4.1391    -6.4117     1.3788 H       
  69 H69            6.7517    -6.9825    -1.2109 H       
  70 H70            5.4668    -8.1367    -1.6410 H       
  71 H71            5.6898    -6.6547    -2.6013 H       
@<TRIPOS>BOND
   1    1    2 ar
   2    1   10 ar
   3    2    3 ar
   4    2   40 1
   5    3    4 ar
   6    3   41 1
   7    4    5 ar
   8    4   42 1
   9    5    6 ar
  10    5   10 ar
  11    6    7 ar
  12    6   43 1
  13    7    8 ar
  14    7   44 1
  15    8    9 ar
  16    8   45 1
  17    9   10 ar
  18    9   11 1
  19   11   12 2
  20   11   13 2
  21   11   14 am
  22   14   15 1
  23   14   46 1
  24   15   16 ar
  25   15   20 ar
  26   16   17 ar
  27   16   47 1
  28   17   18 ar
  29   17   48 1
  30   18   19 ar
  31   18   21 1
  32   19   20 ar
  33   19   49 1
  34   20   50 1
  35   21   22 2
  36   21   23 am
  37   23   24 1
  38   23   28 1
  39   24   25 1
  40   24   51 1
  41   24   52 1
  42   25   26 1
  43   25   53 1
  44   25   54 1
  45   26   27 1
  46   26   29 1
  47   27   28 1
  48   27   55 1
  49   27   56 1
  50   28   57 1
  51   28   58 1
  52   29   30 1
  53   29   59 1
  54   29   60 1
  55   30   31 ar
  56   30   35 ar
  57   31   32 ar
  58   31   61 1
  59   32   33 ar
  60   32   36 1
  61   33   34 ar
  62   33   62 1
  63   34   35 ar
  64   34   63 1
  65   35   64 1
  66   36   37 1
  67   37   38 1
  68   37   39 1
  69   37   65 1
  70   38   66 1
  71   38   67 1
  72   38   68 1
  73   39   69 1
  74   39   70 1
  75   39   71 1

#	End of record

