#	Name: ASD01880913
#	Creating user name:	WinNT
#	Creation time:	15. 06. 2019 19:41

#	Modifying user name:	WinNT
#	Modification time:	15. 06. 2019 19:41

#	Program:	/corina/corina34_cracker 3.40 0067  02.08.2006

@<TRIPOS>MOLECULE
ASD01880913
  59   62    0    0    0
SMALL
NO_CHARGES


@<TRIPOS>ATOM
   1 N1            -0.0230     1.2626    -0.2232 N.ar    
   2 C2             0.0557    -0.0522    -0.2378 C.ar    
   3 N3             1.1925    -0.6840    -0.0260 N.ar    
   4 C4             2.3144    -0.0105     0.2123 C.ar    
   5 C5             2.2760     1.3779     0.2361 C.ar    
   6 C6             1.0556     2.0083     0.0082 C.ar    
   7 C7             3.5229     2.1812     0.5028 C.3     
   8 O8             4.2462     2.3570    -0.7170 O.3     
   9 C9             5.4029     3.0638    -0.6510 C.ar    
  10 C10            6.1566     3.2723    -1.8020 C.ar    
  11 C11            7.3262     3.9878    -1.7339 C.ar    
  12 C12            7.7666     4.5099    -0.5132 C.ar    
  13 C13            7.0055     4.2979     0.6397 C.ar    
  14 C14            5.8305     3.5835     0.5649 C.ar    
  15 C15            8.3543     4.3866    -2.7632 C.3     
  16 N16            9.3784     5.1526    -2.0438 N.am    
  17 C17            9.0354     5.2213    -0.7461 C.2     
  18 O18            9.6804     5.7902     0.1133 O.2     
  19 C19            7.4677     4.8540     1.9619 C.3     
  20 N20            0.9649     3.3913     0.0210 N.3     
  21 C21           -0.3046     3.8304     0.6169 C.3     
  22 C22           -0.3313     5.3592     0.6851 C.3     
  23 N23           -0.1693     5.9102    -0.6676 N.3     
  24 C24            1.1003     5.4711    -1.2635 C.3     
  25 C25            1.1270     3.9423    -1.3317 C.3     
  26 C26           -0.2653     7.3760    -0.6540 C.3     
  27 C27           10.2657     7.1682    -3.1076 C.3     
  28 C28           10.5777     5.7446    -2.6417 C.3     
  29 O29            3.4787    -0.6696     0.4294 O.3     
  30 C30            3.4334    -2.0973     0.3885 C.3     
  31 H31           -0.8373    -0.6290    -0.4285 H       
  32 H32            3.2479     3.1559     0.9058 H       
  33 H33            4.1480     1.6534     1.2231 H       
  34 H34            5.8222     2.8715    -2.7474 H       
  35 H35            5.2426     3.4204     1.4561 H       
  36 H36            8.7979     3.4984    -3.2133 H       
  37 H37            7.8937     5.0067    -3.5322 H       
  38 H38            7.0598     5.8556     2.0974 H       
  39 H39            7.1210     4.2083     2.7687 H       
  40 H40            8.5567     4.9001     1.9759 H       
  41 H41           -1.1347     3.4792     0.0039 H       
  42 H42           -0.3956     3.4199     1.6225 H       
  43 H43           -1.2841     5.6881     1.1000 H       
  44 H44            0.4825     5.7091     1.3201 H       
  45 H45            1.1912     5.8816    -2.2691 H       
  46 H46            1.9303     5.8223    -0.6505 H       
  47 H47            2.0797     3.6134    -1.7466 H       
  48 H48            0.3131     3.5924    -1.9667 H       
  49 H49            0.5162     7.7853    -0.0140 H       
  50 H50           -0.1420     7.7576    -1.6675 H       
  51 H51           -1.2415     7.6726    -0.2704 H       
  52 H52            9.4662     7.1411    -3.8480 H       
  53 H53            9.9506     7.7689    -2.2544 H       
  54 H54           11.1580     7.6087    -3.5524 H       
  55 H55           11.3772     5.7717    -1.9013 H       
  56 H56           10.8928     5.1439    -3.4949 H       
  57 H57            2.7445    -2.4610     1.1509 H       
  58 H58            3.0919    -2.4220    -0.5944 H       
  59 H59            4.4292    -2.4980     0.5778 H       
@<TRIPOS>BOND
   1    1    2 ar
   2    1    6 ar
   3    2    3 ar
   4    2   31 1
   5    3    4 ar
   6    4    5 ar
   7    4   29 1
   8    5    6 ar
   9    5    7 1
  10    6   20 1
  11    7    8 1
  12    7   32 1
  13    7   33 1
  14    8    9 1
  15    9   10 ar
  16    9   14 ar
  17   10   11 ar
  18   10   34 1
  19   11   12 ar
  20   11   15 1
  21   12   13 ar
  22   12   17 1
  23   13   14 ar
  24   13   19 1
  25   14   35 1
  26   15   16 1
  27   15   36 1
  28   15   37 1
  29   16   17 am
  30   16   28 1
  31   17   18 2
  32   19   38 1
  33   19   39 1
  34   19   40 1
  35   20   21 1
  36   20   25 1
  37   21   22 1
  38   21   41 1
  39   21   42 1
  40   22   23 1
  41   22   43 1
  42   22   44 1
  43   23   24 1
  44   23   26 1
  45   24   25 1
  46   24   45 1
  47   24   46 1
  48   25   47 1
  49   25   48 1
  50   26   49 1
  51   26   50 1
  52   26   51 1
  53   27   28 1
  54   27   52 1
  55   27   53 1
  56   27   54 1
  57   28   55 1
  58   28   56 1
  59   29   30 1
  60   30   57 1
  61   30   58 1
  62   30   59 1

#	End of record

