#	Name: ASD05940126
#	Creating user name:	WinNT
#	Creation time:	15. 06. 2019 21:04

#	Modifying user name:	WinNT
#	Modification time:	15. 06. 2019 21:04

#	Program:	/corina/corina34_cracker 3.40 0067  02.08.2006

@<TRIPOS>MOLECULE
ASD05940126
  67   69    0    0    0
SMALL
NO_CHARGES


@<TRIPOS>ATOM
   1 O1            -2.2650    -1.1326    -1.4761 O.3     
   2 C2            -0.9121    -1.5065    -1.2081 C.3     
   3 C3            -0.0184    -0.2661    -1.2698 C.3     
   4 N4            -0.0561     0.2976    -2.6258 N.3     
   5 C5             0.4804     1.6650    -2.6426 C.3     
   6 C6             0.6648    -0.5625    -3.5737 C.3     
   7 C7             0.4011    -0.0911    -4.9805 C.2     
   8 C8             1.1551     0.8510    -5.6877 C.2     
   9 C9             2.3750     1.5717    -5.1745 C.3     
  10 C10           -0.6037    -0.5089    -5.7849 C.2     
  11 N11           -0.4929     0.1500    -6.9574 N.pl3   
  12 N12            0.6189     0.9979    -6.8721 N.2     
  13 C13           -1.6571    -1.5280    -5.4345 C.3     
  14 C14           -0.8221    -2.1310     0.1857 C.3     
  15 O15           -1.5635    -3.3524     0.2092 O.3     
  16 C16           -1.5860    -4.0381     1.3823 C.ar    
  17 C17           -2.2866    -5.2319     1.4760 C.ar    
  18 C18           -2.3079    -5.9270     2.6697 C.ar    
  19 C19           -1.6318    -5.4339     3.7703 C.ar    
  20 C20           -0.9332    -4.2442     3.6796 C.ar    
  21 C21           -0.9037    -3.5484     2.4865 C.ar    
  22 C22           -1.3769     0.0017    -8.1162 C.3     
  23 C23           -0.7755    -0.9848    -9.0838 C.ar    
  24 C24           -1.1612    -2.3113    -9.0474 C.ar    
  25 C25           -0.6095    -3.2165    -9.9350 C.ar    
  26 C26            0.3285    -2.7954   -10.8589 C.ar    
  27 C27            0.7154    -1.4689   -10.8959 C.ar    
  28 C28            0.1589    -0.5614   -10.0124 C.ar    
  29 Cl29           0.6440     1.1048   -10.0586 Cl      
  30 C30           -1.6567    -6.1943     5.0712 C.3     
  31 C31           -0.4841    -7.1762     5.1106 C.3     
  32 O32           -0.5077    -7.8972     6.3441 O.3     
  33 C33            0.5515    -8.8463     6.4830 C.3     
  34 H34           -2.6264    -0.4892    -0.8512 H       
  35 H35           -0.5808    -2.2303    -1.9526 H       
  36 H36           -0.3780     0.4765    -0.5575 H       
  37 H37            1.0057    -0.5433    -1.0199 H       
  38 H38            1.5413     1.6421    -2.3934 H       
  39 H39            0.3497     2.0944    -3.6359 H       
  40 H40           -0.0516     2.2731    -1.9110 H       
  41 H41            1.7342    -0.5130    -3.3684 H       
  42 H42            0.3212    -1.5912    -3.4647 H       
  43 H43            3.2670     0.9933    -5.4154 H       
  44 H44            2.4411     2.5535    -5.6433 H       
  45 H45            2.2994     1.6896    -4.0935 H       
  46 H46           -2.5395    -1.0195    -5.0460 H       
  47 H47           -1.9267    -2.0933    -6.3266 H       
  48 H48           -1.2670    -2.2082    -4.6774 H       
  49 H49            0.2214    -2.3348     0.4259 H       
  50 H50           -1.2360    -1.4406     0.9207 H       
  51 H51           -2.8151    -5.6172     0.6167 H       
  52 H52           -2.8534    -6.8562     2.7433 H       
  53 H53           -0.4064    -3.8607     4.5410 H       
  54 H54           -0.3578    -2.6192     2.4161 H       
  55 H55           -2.3507    -0.3604    -7.7864 H       
  56 H56           -1.4958     0.9670    -8.6084 H       
  57 H57           -1.8935    -2.6410    -8.3254 H       
  58 H58           -0.9112    -4.2531    -9.9063 H       
  59 H59            0.7593    -3.5031   -11.5517 H       
  60 H60            1.4489    -1.1401   -11.6173 H       
  61 H61           -1.5727    -5.4945     5.9027 H       
  62 H62           -2.5942    -6.7444     5.1526 H       
  63 H63           -0.5681    -7.8760     4.2791 H       
  64 H64            0.4534    -6.6261     5.0292 H       
  65 H65            0.4631    -9.3513     7.4449 H       
  66 H66            0.4890    -9.5807     5.6800 H       
  67 H67            1.5105    -8.3308     6.4301 H       
@<TRIPOS>BOND
   1    1    2 1
   2    1   34 1
   3    2    3 1
   4    2   14 1
   5    2   35 1
   6    3    4 1
   7    3   36 1
   8    3   37 1
   9    4    5 1
  10    4    6 1
  11    5   38 1
  12    5   39 1
  13    5   40 1
  14    6    7 1
  15    6   41 1
  16    6   42 1
  17    7    8 1
  18    7   10 2
  19    8    9 1
  20    8   12 2
  21    9   43 1
  22    9   44 1
  23    9   45 1
  24   10   11 1
  25   10   13 1
  26   11   12 1
  27   11   22 1
  28   13   46 1
  29   13   47 1
  30   13   48 1
  31   14   15 1
  32   14   49 1
  33   14   50 1
  34   15   16 1
  35   16   17 ar
  36   16   21 ar
  37   17   18 ar
  38   17   51 1
  39   18   19 ar
  40   18   52 1
  41   19   20 ar
  42   19   30 1
  43   20   21 ar
  44   20   53 1
  45   21   54 1
  46   22   23 1
  47   22   55 1
  48   22   56 1
  49   23   24 ar
  50   23   28 ar
  51   24   25 ar
  52   24   57 1
  53   25   26 ar
  54   25   58 1
  55   26   27 ar
  56   26   59 1
  57   27   28 ar
  58   27   60 1
  59   28   29 1
  60   30   31 1
  61   30   61 1
  62   30   62 1
  63   31   32 1
  64   31   63 1
  65   31   64 1
  66   32   33 1
  67   33   65 1
  68   33   66 1
  69   33   67 1

#	End of record

