#	Name: ASD02038849
#	Creating user name:	WinNT
#	Creation time:	15. 06. 2019 20:17

#	Modifying user name:	WinNT
#	Modification time:	15. 06. 2019 20:17

#	Program:	/corina/corina34_cracker 3.40 0067  02.08.2006

@<TRIPOS>MOLECULE
ASD02038849
  54   56    0    0    0
SMALL
NO_CHARGES


@<TRIPOS>ATOM
   1 C1            -0.7779     0.8435     0.4197 C.2     
   2 C2            -0.5204    -0.5859     0.1731 C.2     
   3 N3             0.7432    -1.0545     0.1827 N.am    
   4 C4             0.9908    -2.4956     0.0924 C.3     
   5 C5             1.7482    -2.8029    -1.2010 C.3     
   6 C6             1.1024    -1.2731    -3.0721 C.ar    
   7 C7             0.8845    -2.4511    -2.3847 C.ar    
   8 C8             1.8692    -0.1227     0.2834 C.3     
   9 C9             1.7131     0.9846    -0.7635 C.3     
  10 C10            2.8509     1.9956    -0.5990 C.3     
  11 O11            2.8309     2.5212     0.7297 O.3     
  12 C12            3.0199     1.5377     1.7491 C.3     
  13 C13            1.8889     0.5083     1.6790 C.3     
  14 O14           -1.4482    -1.3432    -0.0391 O.2     
  15 N15            0.1408     1.7724     0.7888 N.2     
  16 C16           -0.4522     2.9245     0.9135 C.2     
  17 N17           -1.7721     2.7758     0.6289 N.pl3   
  18 C18           -1.9819     1.4761     0.3131 C.2     
  19 C19           -2.7856     3.8334     0.6531 C.3     
  20 C20            1.8268    -2.9456     1.2922 C.3     
  21 O21            3.1175    -2.3356     1.2291 O.3     
  22 C22            0.3071    -0.9500    -4.1622 C.ar    
  23 C23           -0.7053    -1.8113    -4.5587 C.ar    
  24 C24           -0.9190    -2.9887    -3.8680 C.ar    
  25 C25           -0.1255    -3.3081    -2.7820 C.ar    
  26 O26            0.5193     0.2087    -4.8400 O.3     
  27 C27           -0.3377     0.4762    -5.9517 C.3     
  28 F28           -1.6651     0.5346    -5.5139 F       
  29 F29            0.0168     1.6998    -6.5300 F       
  30 F30           -0.2038    -0.5438    -6.8998 F       
  31 H31            0.0398    -3.0283     0.0918 H       
  32 H32            2.6656    -2.2151    -1.2332 H       
  33 H33            1.9952    -3.8640    -1.2340 H       
  34 H34            1.8884    -0.6019    -2.7587 H       
  35 H35            2.8025    -0.6586     0.1109 H       
  36 H36            1.7536     0.5500    -1.7622 H       
  37 H37            0.7562     1.4870    -0.6223 H       
  38 H38            3.8054     1.5014    -0.7801 H       
  39 H39            2.7210     2.8085    -1.3134 H       
  40 H40            3.9766     1.0375     1.5987 H       
  41 H41            3.0117     2.0207     2.7262 H       
  42 H42            0.9355     1.0011     1.8694 H       
  43 H43            2.0551    -0.2669     2.4269 H       
  44 H44            0.0278     3.8493     1.1977 H       
  45 H45           -2.9235     1.0250     0.0369 H       
  46 H46           -2.8471     4.3002    -0.3300 H       
  47 H47           -3.7531     3.4035     0.9123 H       
  48 H48           -2.5106     4.5832     1.3949 H       
  49 H49            1.3285    -2.6472     2.2146 H       
  50 H50            1.9360    -4.0299     1.2727 H       
  51 H51            3.7026    -2.5766     1.9603 H       
  52 H52           -1.3259    -1.5619    -5.4066 H       
  53 H53           -1.7071    -3.6597    -4.1763 H       
  54 H54           -0.2943    -4.2288    -2.2431 H       
@<TRIPOS>BOND
   1    1    2 1
   2    1   15 1
   3    1   18 2
   4    2    3 am
   5    2   14 2
   6    3    4 1
   7    3    8 1
   8    4    5 1
   9    4   20 1
  10    4   31 1
  11    5    7 1
  12    5   32 1
  13    5   33 1
  14    6    7 ar
  15    6   22 ar
  16    6   34 1
  17    7   25 ar
  18    8    9 1
  19    8   13 1
  20    8   35 1
  21    9   10 1
  22    9   36 1
  23    9   37 1
  24   10   11 1
  25   10   38 1
  26   10   39 1
  27   11   12 1
  28   12   13 1
  29   12   40 1
  30   12   41 1
  31   13   42 1
  32   13   43 1
  33   15   16 2
  34   16   17 1
  35   16   44 1
  36   17   18 1
  37   17   19 1
  38   18   45 1
  39   19   46 1
  40   19   47 1
  41   19   48 1
  42   20   21 1
  43   20   49 1
  44   20   50 1
  45   21   51 1
  46   22   23 ar
  47   22   26 1
  48   23   24 ar
  49   23   52 1
  50   24   25 ar
  51   24   53 1
  52   25   54 1
  53   26   27 1
  54   27   28 1
  55   27   29 1
  56   27   30 1

#	End of record

