#	Name: ASD01890164
#	Creating user name:	WinNT
#	Creation time:	15. 06. 2019 19:50

#	Modifying user name:	WinNT
#	Modification time:	15. 06. 2019 19:50

#	Program:	/corina/corina34_cracker 3.40 0067  02.08.2006

@<TRIPOS>MOLECULE
ASD01890164
  39   40    0    0    0
SMALL
NO_CHARGES


@<TRIPOS>ATOM
   1 C1            -0.0172     1.4136     0.0098 C.2     
   2 C2             0.0021    -0.0041     0.0020 C.2     
   3 C3             1.1810    -0.6635    -0.0128 C.2     
   4 C4             1.2014    -2.1704    -0.0211 C.3     
   5 C5             1.3203    -2.6709    -1.4620 C.3     
   6 O6             1.0280     2.0361     0.0032 O.2     
   7 O7            -1.1947     2.0723     0.0190 O.3     
   8 C8             2.4436     0.0885    -0.0208 C.ar    
   9 C9             2.7956     0.8817     1.0777 C.ar    
  10 C10            3.9796     1.5838     1.0653 C.ar    
  11 C11            4.8249     1.5064    -0.0357 C.ar    
  12 C12            4.4798     0.7205    -1.1294 C.ar    
  13 C13            3.3011     0.0096    -1.1245 C.ar    
  14 O14            5.9911     2.2010    -0.0431 O.3     
  15 C15            6.8127     2.0769    -1.2056 C.3     
  16 C16            1.3408    -4.1777    -1.4703 C.ar    
  17 C17            0.1565    -4.8843    -1.5671 C.ar    
  18 C18            0.1746    -6.2663    -1.5748 C.ar    
  19 C19            1.3783    -6.9425    -1.4855 C.ar    
  20 C20            2.5632    -6.2349    -1.3886 C.ar    
  21 C21            2.5442    -4.8529    -1.3867 C.ar    
  22 Cl22           1.4018    -8.6784    -1.4945 Cl      
  23 H23           -0.9258    -0.5567     0.0079 H       
  24 H24            2.0537    -2.5254     0.5584 H       
  25 H25            0.2793    -2.5487     0.4200 H       
  26 H26            0.4681    -2.3159    -2.0414 H       
  27 H27            2.2425    -2.2926    -1.9031 H       
  28 H28           -1.1067     3.0353     0.0238 H       
  29 H29            2.1393     0.9430     1.9332 H       
  30 H30            4.2521     2.1960     1.9123 H       
  31 H31            5.1399     0.6641    -1.9824 H       
  32 H32            3.0360    -0.6042    -1.9727 H       
  33 H33            7.0930     1.0325    -1.3426 H       
  34 H34            6.2605     2.4225    -2.0795 H       
  35 H35            7.7115     2.6810    -1.0815 H       
  36 H36           -0.7831    -4.3562    -1.6365 H       
  37 H37           -0.7507    -6.8181    -1.6501 H       
  38 H38            3.5031    -6.7623    -1.3189 H       
  39 H39            3.4694    -4.3003    -1.3155 H       
@<TRIPOS>BOND
   1    1    2 1
   2    1    6 2
   3    1    7 1
   4    2    3 2
   5    2   23 1
   6    3    4 1
   7    3    8 1
   8    4    5 1
   9    4   24 1
  10    4   25 1
  11    5   16 1
  12    5   26 1
  13    5   27 1
  14    7   28 1
  15    8    9 ar
  16    8   13 ar
  17    9   10 ar
  18    9   29 1
  19   10   11 ar
  20   10   30 1
  21   11   12 ar
  22   11   14 1
  23   12   13 ar
  24   12   31 1
  25   13   32 1
  26   14   15 1
  27   15   33 1
  28   15   34 1
  29   15   35 1
  30   16   17 ar
  31   16   21 ar
  32   17   18 ar
  33   17   36 1
  34   18   19 ar
  35   18   37 1
  36   19   20 ar
  37   19   22 1
  38   20   21 ar
  39   20   38 1
  40   21   39 1

#	End of record

