#	Name: ASD01948059
#	Creating user name:	WinNT
#	Creation time:	15. 06. 2019 20:13

#	Modifying user name:	WinNT
#	Modification time:	15. 06. 2019 20:13

#	Program:	/corina/corina34_cracker 3.40 0067  02.08.2006

@<TRIPOS>MOLECULE
ASD01948059
  61   65    0    0    0
SMALL
NO_CHARGES


@<TRIPOS>ATOM
   1 C1            -1.5985     0.9560     0.8501 C.3     
   2 C2            -1.4179    -0.4969     0.4060 C.3     
   3 C3            -0.3783     0.5565     0.0180 C.3     
   4 S4            -2.8907     1.9285     0.0285 S.o2    
   5 O5            -2.5324     2.1949    -1.3205 O.2     
   6 O6            -4.1785     1.4269     0.3591 O.2     
   7 N7            -2.8269     3.4089     0.7680 N.am    
   8 C8            -0.8283     3.9706    -0.4507 C.2     
   9 C9            -1.8503     4.3488     0.3805 C.2     
  10 C10           -1.9264     5.6721     0.8465 C.2     
  11 C11           -0.9529     6.5834     0.4564 C.2     
  12 C12            0.0683     6.1596    -0.3915 C.2     
  13 N13            0.1096     4.8887    -0.8309 N.am    
  14 O14           -0.5767     2.7475    -0.9878 O.3     
  15 C15            1.0592     4.2172    -1.7410 C.3     
  16 C16            0.3007     2.9230    -2.1143 C.3     
  17 O17            0.9338     6.9495    -0.7395 O.2     
  18 C18           -1.0010     8.0090     0.9426 C.3     
  19 N19           -2.9596     6.0635     1.6844 N.pl3   
  20 C20           -4.2863     5.9681     1.2506 C.ar    
  21 C21           -5.3269     6.3052     2.1103 C.ar    
  22 C22           -6.6364     6.2095     1.6778 C.ar    
  23 C23           -6.9116     5.7790     0.3919 C.ar    
  24 C24           -5.8787     5.4429    -0.4641 C.ar    
  25 C25           -4.5672     5.5422    -0.0403 C.ar    
  26 I26           -8.8975     5.6352    -0.2597 I       
  27 F27           -5.0581     6.7251     3.3660 F       
  28 C28           -1.3711     1.2762     2.3289 C.3     
  29 O29           -1.2129     2.6870     2.4919 O.3     
  30 C30           -1.0251     3.0980     3.8476 C.3     
  31 C31           -0.3851     4.4620     3.8749 C.ar    
  32 C32           -1.1750     5.5952     3.9286 C.ar    
  33 C33           -0.5879     6.8464     3.9536 C.ar    
  34 C34            0.7891     6.9645     3.9254 C.ar    
  35 C35            1.5790     5.8313     3.8726 C.ar    
  36 C36            0.9920     4.5799     3.8520 C.ar    
  37 H37           -1.1370    -1.2247     1.1672 H       
  38 H38           -2.0755    -0.8684    -0.3799 H       
  39 H39           -0.3521     0.8781    -1.0232 H       
  40 H40            0.5865     0.5218     0.5240 H       
  41 H41           -3.4614     3.6292     1.4678 H       
  42 H42            1.2449     4.8264    -2.6255 H       
  43 H43            1.9914     3.9852    -1.2260 H       
  44 H44            0.9888     2.0825    -2.2047 H       
  45 H45           -0.2699     3.0591    -3.0329 H       
  46 H46           -0.5288     8.0747     1.9228 H       
  47 H47           -0.4698     8.6507     0.2397 H       
  48 H48           -2.0392     8.3327     1.0169 H       
  49 H49           -2.7625     6.4035     2.5712 H       
  50 H50           -7.4453     6.4705     2.3442 H       
  51 H51           -6.0972     5.1066    -1.4668 H       
  52 H52           -3.7614     5.2844    -0.7116 H       
  53 H53           -2.2285     0.9371     2.9101 H       
  54 H54           -0.4721     0.7672     2.6767 H       
  55 H55           -1.9906     3.1395     4.3517 H       
  56 H56           -0.3793     2.3833     4.3578 H       
  57 H57           -2.2508     5.5030     3.9507 H       
  58 H58           -1.2051     7.7318     3.9949 H       
  59 H59            1.2477     7.9421     3.9442 H       
  60 H60            2.6548     5.9236     3.8502 H       
  61 H61            1.6093     3.6945     3.8144 H       
@<TRIPOS>BOND
   1    1    2 1
   2    1    3 1
   3    1    4 1
   4    1   28 1
   5    2    3 1
   6    2   37 1
   7    2   38 1
   8    3   39 1
   9    3   40 1
  10    4    5 2
  11    4    6 2
  12    4    7 am
  13    7    9 1
  14    7   41 1
  15    8    9 2
  16    8   13 1
  17    8   14 1
  18    9   10 1
  19   10   11 2
  20   10   19 1
  21   11   12 1
  22   11   18 1
  23   12   13 am
  24   12   17 2
  25   13   15 1
  26   14   16 1
  27   15   16 1
  28   15   42 1
  29   15   43 1
  30   16   44 1
  31   16   45 1
  32   18   46 1
  33   18   47 1
  34   18   48 1
  35   19   20 1
  36   19   49 1
  37   20   21 ar
  38   20   25 ar
  39   21   22 ar
  40   21   27 1
  41   22   23 ar
  42   22   50 1
  43   23   24 ar
  44   23   26 1
  45   24   25 ar
  46   24   51 1
  47   25   52 1
  48   28   29 1
  49   28   53 1
  50   28   54 1
  51   29   30 1
  52   30   31 1
  53   30   55 1
  54   30   56 1
  55   31   32 ar
  56   31   36 ar
  57   32   33 ar
  58   32   57 1
  59   33   34 ar
  60   33   58 1
  61   34   35 ar
  62   34   59 1
  63   35   36 ar
  64   35   60 1
  65   36   61 1

#	End of record

