#	Name: ASD02562004
#	Creating user name:	WinNT
#	Creation time:	15. 06. 2019 20:25

#	Modifying user name:	WinNT
#	Modification time:	15. 06. 2019 20:25

#	Program:	/corina/corina34_cracker 3.40 0067  02.08.2006

@<TRIPOS>MOLECULE
ASD02562004
  64   66    0    0    0
SMALL
NO_CHARGES


@<TRIPOS>ATOM
   1 C1            -0.0167     1.3829     0.0096 C.ar    
   2 C2             0.0021    -0.0041     0.0020 C.ar    
   3 C3            -1.1798    -0.7143     0.0095 C.ar    
   4 C4            -2.4038    -0.0432     0.0253 C.ar    
   5 C5            -2.4352     1.3471     0.0331 C.ar    
   6 C6            -1.2411     2.0667     0.0309 C.ar    
   7 C7             1.3187    -0.7371    -0.0150 C.3     
   8 C8            -1.2653     3.5413     0.0391 C.2     
   9 C9            -3.6710    -0.8132     0.0333 C.2     
  10 C10           -4.5977    -0.7277    -1.1211 C.ar    
  11 C11           -3.9784    -1.5854     1.0825 C.2     
  12 C12           -3.0365    -1.6722     2.2557 C.3     
  13 C13           -3.7868    -1.3128     3.5398 C.3     
  14 C14           -2.8306    -1.4010     4.7309 C.3     
  15 C15           -3.5696    -1.0471     5.9956 C.2     
  16 C16           -5.8624    -0.1662    -0.9601 C.ar    
  17 C17           -6.7217    -0.0894    -2.0420 C.ar    
  18 C18           -6.3235    -0.5724    -3.2896 C.ar    
  19 C19           -5.0629    -1.1310    -3.4456 C.ar    
  20 C20           -4.2020    -1.2045    -2.3715 C.ar    
  21 C21           -4.6324    -1.6526    -4.7923 C.3     
  22 O22           -7.3535    -0.3679    -4.1471 O.3     
  23 C23           -8.3664     0.2172    -3.4889 C.2     
  24 N24           -8.0173     0.4032    -2.2006 N.am    
  25 O25           -9.4338     0.5314    -3.9794 O.2     
  26 C26           -8.8468     1.0113    -1.1573 C.3     
  27 Br27          -2.9183     4.4596     0.0526 Br      
  28 N28           -0.1542     4.2074     0.0370 N.2     
  29 C29           -0.1784     5.6722     0.0452 C.3     
  30 Br30          -2.6638    -1.0611     7.6555 Br      
  31 N31           -4.8102    -0.7370     5.9464 N.2     
  32 O32           -5.5046    -0.4044     7.1347 O.3     
  33 C33           -6.8814    -0.0797     6.9319 C.3     
  34 O34            1.1487     2.0776     0.0022 O.3     
  35 C35            1.6938     2.4166    -1.2745 C.3     
  36 H36           -1.1585    -1.7941     0.0028 H       
  37 H37           -3.3815     1.8676     0.0445 H       
  38 H38            1.6463    -0.9194     1.0085 H       
  39 H39            1.1980    -1.6887    -0.5328 H       
  40 H40            2.0639    -0.1335    -0.5331 H       
  41 H41           -4.9014    -2.1461     1.0883 H       
  42 H42           -2.6469    -2.6871     2.3345 H       
  43 H43           -2.2104    -0.9761     2.1107 H       
  44 H44           -4.1764    -0.2979     3.4610 H       
  45 H45           -4.6130    -2.0089     3.6848 H       
  46 H46           -2.4410    -2.4160     4.8097 H       
  47 H47           -2.0044    -0.7049     4.5859 H       
  48 H48           -6.1710     0.2073     0.0052 H       
  49 H49           -3.2215    -1.6398    -2.4961 H       
  50 H50           -4.1480    -0.8535    -5.3535 H       
  51 H51           -3.9322    -2.4767    -4.6558 H       
  52 H52           -5.5055    -2.0048    -5.3416 H       
  53 H53           -8.6720     2.0870    -1.1352 H       
  54 H54           -9.8982     0.8184    -1.3706 H       
  55 H55           -8.5874     0.5810    -0.1900 H       
  56 H56            0.8432     6.0524     0.0420 H       
  57 H57           -0.7027     6.0319    -0.8402 H       
  58 H58           -0.6935     6.0221     0.9397 H       
  59 H59           -6.9578     0.7783     6.2640 H       
  60 H60           -7.3943    -0.9328     6.4877 H       
  61 H61           -7.3423     0.1631     7.8894 H       
  62 H62            1.8926     1.5052    -1.8383 H       
  63 H63            0.9813     3.0341    -1.8214 H       
  64 H64            2.6234     2.9692    -1.1375 H       
@<TRIPOS>BOND
   1    1    2 ar
   2    1   34 1
   3    1    6 ar
   4    2    3 ar
   5    2    7 1
   6    3    4 ar
   7    3   36 1
   8    4    5 ar
   9    4    9 1
  10    5    6 ar
  11    5   37 1
  12    6    8 1
  13    7   38 1
  14    7   39 1
  15    7   40 1
  16    8   27 1
  17    8   28 2
  18    9   10 1
  19    9   11 2
  20   10   16 ar
  21   10   20 ar
  22   11   12 1
  23   11   41 1
  24   12   13 1
  25   12   42 1
  26   12   43 1
  27   13   14 1
  28   13   44 1
  29   13   45 1
  30   14   15 1
  31   14   46 1
  32   14   47 1
  33   15   30 1
  34   15   31 2
  35   16   17 ar
  36   16   48 1
  37   17   18 ar
  38   17   24 1
  39   18   19 ar
  40   18   22 1
  41   19   20 ar
  42   19   21 1
  43   20   49 1
  44   21   50 1
  45   21   51 1
  46   21   52 1
  47   22   23 1
  48   23   25 2
  49   23   24 am
  50   24   26 1
  51   26   53 1
  52   26   54 1
  53   26   55 1
  54   28   29 1
  55   29   56 1
  56   29   57 1
  57   29   58 1
  58   31   32 1
  59   32   33 1
  60   33   59 1
  61   33   60 1
  62   33   61 1
  63   34   35 1
  64   35   62 1
  65   35   63 1
  66   35   64 1

#	End of record

