#	Name: ASD01841072
#	Creating user name:	WinNT
#	Creation time:	15. 06. 2019 19:38

#	Modifying user name:	WinNT
#	Modification time:	15. 06. 2019 19:38

#	Program:	/corina/corina34_cracker 3.40 0067  02.08.2006

@<TRIPOS>MOLECULE
ASD01841072
  30   32    0    0    0
SMALL
NO_CHARGES


@<TRIPOS>ATOM
   1 N1            -0.0154     1.2832     0.0091 N.2     
   2 C2             0.0021    -0.0041     0.0020 C.2     
   3 S3             1.6577    -0.5946    -0.0170 S.3     
   4 C4             2.2642     1.0609    -0.0139 C.ar    
   5 C5             1.1676     1.9285     0.0013 C.ar    
   6 C6             1.4216     3.3182     0.0059 C.ar    
   7 C7             2.7263     3.7557    -0.0046 C.ar    
   8 C8             3.7625     2.8272    -0.0195 C.ar    
   9 N9             3.5078     1.5334    -0.0232 N.ar    
  10 N10           -1.1242    -0.8097     0.0092 N.am    
  11 C11           -0.9933    -2.1511     0.0006 C.2     
  12 C12           -2.1978    -3.0126     0.0083 C.ar    
  13 O13            0.1129    -2.6535    -0.0133 O.2     
  14 O14            5.0497     3.2579    -0.0299 O.3     
  15 C15            6.0689     2.2563    -0.0449 C.3     
  16 C16           -2.0845    -4.4064    -0.0004 C.ar    
  17 C17           -3.2344    -5.1719     0.0077 C.ar    
  18 N18           -4.4246    -4.6054     0.0233 N.ar    
  19 C19           -4.5761    -3.2960     0.0319 C.ar    
  20 C20           -3.4801    -2.4550     0.0302 C.ar    
  21 H21            0.6055     4.0255     0.0171 H       
  22 H22            2.9446     4.8134    -0.0017 H       
  23 H23           -2.0073    -0.4086     0.0203 H       
  24 H24            5.9592     1.6397    -0.9370 H       
  25 H25            7.0483     2.7347    -0.0520 H       
  26 H26            5.9765     1.6307     0.8428 H       
  27 H27           -1.1127    -4.8773    -0.0135 H       
  28 H28           -3.1573    -6.2491     0.0008 H       
  29 H29           -5.5705    -2.8749     0.0446 H       
  30 H30           -3.6117    -1.3831     0.0373 H       
@<TRIPOS>BOND
   1    1    2 2
   2    1    5 1
   3    2    3 1
   4    2   10 1
   5    3    4 1
   6    4    5 ar
   7    4    9 ar
   8    5    6 ar
   9    6    7 ar
  10    6   21 1
  11    7    8 ar
  12    7   22 1
  13    8    9 ar
  14    8   14 1
  15   10   11 am
  16   10   23 1
  17   11   12 1
  18   11   13 2
  19   12   16 ar
  20   12   20 ar
  21   14   15 1
  22   15   24 1
  23   15   25 1
  24   15   26 1
  25   16   17 ar
  26   16   27 1
  27   17   18 ar
  28   17   28 1
  29   18   19 ar
  30   19   20 ar
  31   19   29 1
  32   20   30 1

#	End of record

