#	Name: ASD03430770
#	Creating user name:	WinNT
#	Creation time:	15. 06. 2019 20:41

#	Modifying user name:	WinNT
#	Modification time:	15. 06. 2019 20:41

#	Program:	/corina/corina34_cracker 3.40 0067  02.08.2006

@<TRIPOS>MOLECULE
ASD03430770
  38   42    0    0    0
SMALL
NO_CHARGES


@<TRIPOS>ATOM
   1 C1            -0.0167     1.3802     0.0096 C.ar    
   2 C2             0.0021    -0.0041     0.0020 C.ar    
   3 C3             1.2064    -0.6772    -0.0111 C.ar    
   4 C4             2.4104     0.0215    -0.0068 C.ar    
   5 C5             2.3873     1.4138    -0.0061 C.ar    
   6 C6             1.1831     2.0908     0.0020 C.ar    
   7 O7             3.4754    -0.8302     0.0105 O.3     
   8 C8             1.5590    -2.1398    -0.0436 C.3     
   9 C9             3.0471    -2.1358    -0.4213 C.3     
  10 C10            0.4404    -3.8644     1.0031 C.ar    
  11 C11            1.3180    -2.8169     1.2728 C.ar    
  12 C12            0.7352    -2.9035    -1.0406 C.2     
  13 N13            0.1200    -3.8883    -0.3564 N.am    
  14 O14            0.6416    -2.6779    -2.2287 O.2     
  15 C15            1.7705    -2.5949     2.5538 C.ar    
  16 C16            1.3573    -3.4171     3.5874 C.ar    
  17 C17            0.4884    -4.4615     3.3306 C.ar    
  18 C18            0.0306    -4.6872     2.0489 C.ar    
  19 O19            1.1530     3.4508     0.0025 O.3     
  20 N20           -1.2318     2.0829     0.0309 N.am    
  21 C21           -1.2319     3.3979    -0.2792 C.2     
  22 C22            0.0590     4.0710    -0.6779 C.3     
  23 C23           -2.4796     1.4013     0.3840 C.3     
  24 O24           -2.2640     4.0339    -0.2368 O.2     
  25 H25           -0.9257    -0.5569     0.0067 H       
  26 H26            3.3150     1.9668    -0.0120 H       
  27 H27            3.1734    -2.2480    -1.4981 H       
  28 H28            3.5849    -2.9169     0.1160 H       
  29 H29           -0.4758    -4.5381    -0.7609 H       
  30 H30            2.4490    -1.7784     2.7523 H       
  31 H31            1.7130    -3.2436     4.5922 H       
  32 H32            0.1668    -5.1038     4.1371 H       
  33 H33           -0.6479    -5.5050     1.8561 H       
  34 H34            0.0164     5.1261    -0.4079 H       
  35 H35            0.1991     3.9780    -1.7548 H       
  36 H36           -2.6367     1.4659     1.4607 H       
  37 H37           -3.3125     1.8769    -0.1339 H       
  38 H38           -2.4180     0.3541     0.0879 H       
@<TRIPOS>BOND
   1    1    2 ar
   2    1    6 ar
   3    1   20 1
   4    2    3 ar
   5    2   25 1
   6    3    4 ar
   7    3    8 1
   8    4    5 ar
   9    4    7 1
  10    5    6 ar
  11    5   26 1
  12    6   19 1
  13    7    9 1
  14    8    9 1
  15    8   11 1
  16    8   12 1
  17    9   27 1
  18    9   28 1
  19   10   11 ar
  20   10   13 1
  21   10   18 ar
  22   11   15 ar
  23   12   13 am
  24   12   14 2
  25   13   29 1
  26   15   16 ar
  27   15   30 1
  28   16   17 ar
  29   16   31 1
  30   17   18 ar
  31   17   32 1
  32   18   33 1
  33   19   22 1
  34   20   21 am
  35   20   23 1
  36   21   22 1
  37   21   24 2
  38   22   34 1
  39   22   35 1
  40   23   36 1
  41   23   37 1
  42   23   38 1

#	End of record

