#	Name: ASD03331876
#	Creating user name:	WinNT
#	Creation time:	15. 06. 2019 20:40

#	Modifying user name:	WinNT
#	Modification time:	15. 06. 2019 20:40

#	Program:	/corina/corina34_cracker 3.40 0067  02.08.2006

@<TRIPOS>MOLECULE
ASD03331876
  63   65    0    0    0
SMALL
NO_CHARGES


@<TRIPOS>ATOM
   1 C1            -0.3260     1.1666     0.8329 C.2     
   2 N2            -0.3578    -0.1668     1.0648 N.pl3   
   3 C3             0.9297    -0.5859     1.2328 C.2     
   4 N4             1.7247     0.4529     1.1282 N.2     
   5 C5             0.9795     1.5527     0.8840 C.2     
   6 C6             1.4876     2.9243     0.7040 C.2     
   7 O7             0.7127     3.8363     0.4875 O.2     
   8 N8             2.8110     3.1679     0.7794 N.am    
   9 C9             3.3162     4.5314     0.6004 C.3     
  10 C10            3.4975     4.8163    -0.8918 C.3     
  11 C11            4.3944     3.7424    -1.5108 C.3     
  12 C12            4.6417     4.6723     1.3034 C.2     
  13 C13            2.1328     4.8017    -1.5833 C.3     
  14 C14            4.1466     6.1898    -1.0735 C.3     
  15 O15            5.2253     3.6861     1.7006 O.2     
  16 N16            5.1786     5.8942     1.4908 N.am    
  17 C17            6.5000     6.0267     2.1093 C.3     
  18 C18           -1.5688    -0.9890     1.1361 C.3     
  19 C19           -2.4722    -0.6577    -0.0557 C.3     
  20 C20           -3.3839     0.5129     0.2983 C.3     
  21 N21           -2.7075     1.4534     1.1941 N.3     
  22 C22           -1.5211     2.0410     0.5545 C.3     
  23 C23           -3.6307     2.4997     1.6533 C.3     
  24 C24            1.3578    -1.9786     1.4902 C.ar    
  25 C25            2.6139    -2.4147     1.0679 C.ar    
  26 C26            0.5094    -2.8595     2.1615 C.ar    
  27 C27            0.9145    -4.1570     2.3985 C.ar    
  28 C28            2.1593    -4.5849     1.9725 C.ar    
  29 C29            3.0073    -3.7146     1.3110 C.ar    
  30 C30            2.5957    -6.0031     2.2356 C.3     
  31 H31            3.4290     2.4405     0.9521 H       
  32 H32            2.6041     5.2409     1.0219 H       
  33 H33            3.9319     2.7639    -1.3813 H       
  34 H34            4.5236     3.9454    -2.5739 H       
  35 H35            5.3667     3.7528    -1.0182 H       
  36 H36            1.4938     5.5668    -1.1423 H       
  37 H37            2.2619     5.0047    -2.6464 H       
  38 H38            1.6703     3.8232    -1.4539 H       
  39 H39            5.1049     6.2103    -0.5546 H       
  40 H40            4.3043     6.3796    -2.1353 H       
  41 H41            3.4931     6.9581    -0.6602 H       
  42 H42            4.6901     6.6859     1.2161 H       
  43 H43            6.4785     5.5925     3.1089 H       
  44 H44            7.2394     5.5045     1.5021 H       
  45 H45            6.7652     7.0817     2.1772 H       
  46 H46           -1.2955    -2.0437     1.1039 H       
  47 H47           -2.0987    -0.7773     2.0648 H       
  48 H48           -1.8561    -0.3906    -0.9143 H       
  49 H49           -3.0796    -1.5283    -0.3032 H       
  50 H50           -3.6705     1.0326    -0.6159 H       
  51 H51           -4.2801     0.1329     0.7889 H       
  52 H52           -1.3454     3.0379     0.9588 H       
  53 H53           -1.6821     2.1063    -0.5216 H       
  54 H54           -4.4612     2.0414     2.1903 H       
  55 H55           -3.1026     3.1845     2.3169 H       
  56 H56           -4.0132     3.0497     0.7935 H       
  57 H57            3.2768    -1.7363     0.5514 H       
  58 H58           -0.4623    -2.5265     2.4951 H       
  59 H59            0.2587    -4.8399     2.9180 H       
  60 H60            3.9778    -4.0546     0.9809 H       
  61 H61            2.2936    -6.6368     1.4018 H       
  62 H62            3.6800    -6.0356     2.3424 H       
  63 H63            2.1293    -6.3625     3.1528 H       
@<TRIPOS>BOND
   1    1    2 1
   2    1    5 2
   3    1   22 1
   4    2    3 1
   5    2   18 1
   6    3    4 2
   7    3   24 1
   8    4    5 1
   9    5    6 1
  10    6    7 2
  11    6    8 am
  12    8    9 1
  13    8   31 1
  14    9   10 1
  15    9   12 1
  16    9   32 1
  17   10   11 1
  18   10   13 1
  19   10   14 1
  20   11   33 1
  21   11   34 1
  22   11   35 1
  23   12   15 2
  24   12   16 am
  25   13   36 1
  26   13   37 1
  27   13   38 1
  28   14   39 1
  29   14   40 1
  30   14   41 1
  31   16   17 1
  32   16   42 1
  33   17   43 1
  34   17   44 1
  35   17   45 1
  36   18   19 1
  37   18   46 1
  38   18   47 1
  39   19   20 1
  40   19   48 1
  41   19   49 1
  42   20   21 1
  43   20   50 1
  44   20   51 1
  45   21   22 1
  46   21   23 1
  47   22   52 1
  48   22   53 1
  49   23   54 1
  50   23   55 1
  51   23   56 1
  52   24   26 ar
  53   24   25 ar
  54   25   29 ar
  55   25   57 1
  56   26   27 ar
  57   26   58 1
  58   27   28 ar
  59   27   59 1
  60   28   29 ar
  61   28   30 1
  62   29   60 1
  63   30   61 1
  64   30   62 1
  65   30   63 1

#	End of record

