#	Name: ASD03090776
#	Creating user name:	WinNT
#	Creation time:	15. 06. 2019 20:29

#	Modifying user name:	WinNT
#	Modification time:	15. 06. 2019 20:29

#	Program:	/corina/corina34_cracker 3.40 0067  02.08.2006

@<TRIPOS>MOLECULE
ASD03090776
  33   34    0    0    0
SMALL
NO_CHARGES


@<TRIPOS>ATOM
   1 C1            -0.0157     1.3058     0.0092 C.2     
   2 C2             0.0021    -0.0041     0.0020 C.2     
   3 C3            -1.2926    -0.7753     0.0102 C.3     
   4 C4            -1.3187    -1.7407    -1.1764 C.3     
   5 C5            -1.2044    -0.9256    -2.4507 C.2     
   6 O6            -2.0116    -0.0619    -2.7190 O.2     
   7 N7            -0.1702    -1.1975    -3.2746 N.am    
   8 C8             0.7295    -2.1467    -2.9926 C.2     
   9 O9             1.6288    -2.3248    -3.7898 O.2     
  10 N10            0.7115    -2.9138    -1.8966 N.am    
  11 C11           -0.2470    -2.7911    -0.9540 C.2     
  12 O12           -0.2503    -3.4931     0.0344 O.2     
  13 C13            1.7628    -3.9177    -1.7145 C.3     
  14 C14           -2.6561    -2.4352    -1.1824 C.ar    
  15 C15           -2.9458    -3.3688    -2.1598 C.ar    
  16 C16           -4.1726    -4.0058    -2.1653 C.ar    
  17 C17           -5.1096    -3.7096    -1.1931 C.ar    
  18 C18           -4.8196    -2.7766    -0.2151 C.ar    
  19 C19           -3.5911    -2.1428    -0.2071 C.ar    
  20 H20            0.9122     1.8585     0.0033 H       
  21 H21           -0.9582     1.8330     0.0166 H       
  22 H22            0.9446    -0.5313    -0.0098 H       
  23 H23           -1.3737    -1.3393     0.9394 H       
  24 H24           -2.1295    -0.0812    -0.0676 H       
  25 H25           -0.0763    -0.6893    -4.0954 H       
  26 H26            2.4484    -3.8835    -2.5612 H       
  27 H27            2.3099    -3.7083    -0.7953 H       
  28 H28            1.3123    -4.9083    -1.6516 H       
  29 H29           -2.2138    -3.6002    -2.9194 H       
  30 H30           -4.3992    -4.7347    -2.9294 H       
  31 H31           -6.0683    -4.2067    -1.1978 H       
  32 H32           -5.5518    -2.5450     0.5443 H       
  33 H33           -3.3645    -1.4140     0.5570 H       
@<TRIPOS>BOND
   1    1    2 2
   2    1   20 1
   3    1   21 1
   4    2    3 1
   5    2   22 1
   6    3    4 1
   7    3   23 1
   8    3   24 1
   9    4    5 1
  10    4   14 1
  11    4   11 1
  12    5    6 2
  13    5    7 am
  14    7    8 am
  15    7   25 1
  16    8    9 2
  17    8   10 am
  18   10   11 am
  19   10   13 1
  20   11   12 2
  21   13   26 1
  22   13   27 1
  23   13   28 1
  24   14   15 ar
  25   14   19 ar
  26   15   16 ar
  27   15   29 1
  28   16   17 ar
  29   16   30 1
  30   17   18 ar
  31   17   31 1
  32   18   19 ar
  33   18   32 1
  34   19   33 1

#	End of record

