#	Name: ASD01478050
#	Creating user name:	WinNT
#	Creation time:	15. 06. 2019 19:21

#	Modifying user name:	WinNT
#	Modification time:	15. 06. 2019 19:21

#	Program:	/corina/corina34_cracker 3.40 0067  02.08.2006

@<TRIPOS>MOLECULE
ASD01478050
  59   60    0    0    0
SMALL
NO_CHARGES


@<TRIPOS>ATOM
   1 C1             0.8962     1.6965    -2.4562 C.2     
   2 C2             0.5567     0.8211    -1.2775 C.3     
   3 C3             0.4237     1.6853    -0.0219 C.3     
   4 C4            -0.0903     0.8272     1.1358 C.3     
   5 C5            -0.1332     1.6551     2.3943 C.2     
   6 O6             1.9618     1.5741    -3.0125 O.2     
   7 O7             0.0127     2.6084    -2.8915 O.3     
   8 O8             0.2118     2.8128     2.3679 O.2     
   9 O9            -0.5549     1.1065     3.5445 O.3     
  10 O10            1.5945    -0.1421    -1.0849 O.3     
  11 Si11           1.4558    -1.4646    -2.0294 Si      
  12 C12            1.0395    -0.9428    -3.7741 C.ar    
  13 C13            1.9465    -1.1580    -4.7948 C.ar    
  14 C14            1.6385    -0.7718    -6.0859 C.ar    
  15 C15            0.4232    -0.1709    -6.3563 C.ar    
  16 C16           -0.4841     0.0434    -5.3357 C.ar    
  17 C17           -0.1779    -0.3467    -4.0454 C.ar    
  18 C18            3.0712    -2.4026    -2.0287 C.ar    
  19 C19            4.1163    -1.9797    -2.8284 C.ar    
  20 C20            5.3118    -2.6738    -2.8279 C.ar    
  21 C21            5.4622    -3.7906    -2.0273 C.ar    
  22 C22            4.4173    -4.2130    -1.2268 C.ar    
  23 C23            3.2234    -3.5163    -1.2241 C.ar    
  24 C24            0.1013    -2.5600    -1.3689 C.3     
  25 C25           -1.2570    -2.0213    -1.8224 C.3     
  26 C26            0.2898    -3.9818    -1.9018 C.3     
  27 C27            0.1587    -2.5766     0.1599 C.3     
  28 C28            0.4070     3.4166    -4.0316 C.3     
  29 C29           -0.5699     1.9631     4.7168 C.3     
  30 H30           -0.3857     0.3070    -1.4662 H       
  31 H31            1.3973     2.1007     0.2381 H       
  32 H32           -0.2786     2.4970    -0.2123 H       
  33 H33           -1.0924     0.4666     0.9038 H       
  34 H34            0.5767    -0.0223     1.2824 H       
  35 H35            2.8959    -1.6274    -4.5836 H       
  36 H36            2.3474    -0.9392    -6.8833 H       
  37 H37            0.1829     0.1314    -7.3649 H       
  38 H38           -1.4334     0.5131    -5.5469 H       
  39 H39           -0.8883    -0.1826    -3.2486 H       
  40 H40            3.9988    -1.1071    -3.4540 H       
  41 H41            6.1281    -2.3438    -3.4533 H       
  42 H42            6.3959    -4.3334    -2.0274 H       
  43 H43            4.5347    -5.0857    -0.6015 H       
  44 H44            2.4083    -3.8441    -0.5959 H       
  45 H45           -1.3102    -2.0399    -2.9110 H       
  46 H46           -2.0510    -2.6434    -1.4092 H       
  47 H47           -1.3776    -0.9969    -1.4703 H       
  48 H48            1.1985    -4.4106    -1.4794 H       
  49 H49           -0.5667    -4.5930    -1.6174 H       
  50 H50            0.3719    -3.9546    -2.9884 H       
  51 H51            0.0216    -1.5642     0.5397 H       
  52 H52           -0.6320    -3.2198     0.5462 H       
  53 H53            1.1275    -2.9577     0.4830 H       
  54 H54           -0.3958     4.1109    -4.2798 H       
  55 H55            1.3088     3.9770    -3.7851 H       
  56 H56            0.6039     2.7686    -4.8856 H       
  57 H57           -0.9305     1.3971     5.5757 H       
  58 H58            0.4394     2.3231     4.9167 H       
  59 H59           -1.2297     2.8121     4.5381 H       
@<TRIPOS>BOND
   1    1    2 1
   2    1    6 2
   3    1    7 1
   4    2    3 1
   5    2   10 1
   6    2   30 1
   7    3    4 1
   8    3   31 1
   9    3   32 1
  10    4    5 1
  11    4   33 1
  12    4   34 1
  13    5    8 2
  14    5    9 1
  15    7   28 1
  16    9   29 1
  17   10   11 1
  18   11   12 1
  19   11   18 1
  20   11   24 1
  21   12   13 ar
  22   12   17 ar
  23   13   14 ar
  24   13   35 1
  25   14   15 ar
  26   14   36 1
  27   15   16 ar
  28   15   37 1
  29   16   17 ar
  30   16   38 1
  31   17   39 1
  32   18   19 ar
  33   18   23 ar
  34   19   20 ar
  35   19   40 1
  36   20   21 ar
  37   20   41 1
  38   21   22 ar
  39   21   42 1
  40   22   23 ar
  41   22   43 1
  42   23   44 1
  43   24   25 1
  44   24   27 1
  45   24   26 1
  46   25   45 1
  47   25   46 1
  48   25   47 1
  49   26   48 1
  50   26   49 1
  51   26   50 1
  52   27   51 1
  53   27   52 1
  54   27   53 1
  55   28   54 1
  56   28   55 1
  57   28   56 1
  58   29   57 1
  59   29   58 1
  60   29   59 1

#	End of record

