#	Name: ASD01916939
#	Creating user name:	WinNT
#	Creation time:	15. 06. 2019 20:08

#	Modifying user name:	WinNT
#	Modification time:	15. 06. 2019 20:08

#	Program:	/corina/corina34_cracker 3.40 0067  02.08.2006

@<TRIPOS>MOLECULE
ASD01916939
  61   65    0    0    0
SMALL
NO_CHARGES


@<TRIPOS>ATOM
   1 C1            -0.0875     1.5754    -0.0693 C.ar    
   2 C2            -0.1430     0.2098     0.1583 C.ar    
   3 C3             1.0253    -0.5192     0.3103 C.ar    
   4 C4             2.2497     0.1125     0.2354 C.ar    
   5 C5             2.3101     1.4856     0.0067 C.ar    
   6 C6             1.1327     2.2150    -0.1455 C.ar    
   7 C7             3.6248     2.1694    -0.0741 C.2     
   8 N8             4.8176     1.5782     0.0553 N.2     
   9 N9             3.8060     3.4544    -0.2903 N.2     
  10 N10            5.1924     3.6773    -0.2897 N.pl3   
  11 C11            5.7732     2.4747    -0.0702 C.2     
  12 C12            7.2271     2.2136     0.0138 C.ar    
  13 C13            5.8753     4.9576    -0.4914 C.3     
  14 C14            6.0465     5.6502     0.8360 C.2     
  15 O15            5.6383     5.1260     1.8506 O.2     
  16 N16            6.6532     6.8522     0.8956 N.am    
  17 C17            6.8306     7.5454     2.1807 C.3     
  18 C18            8.3017     7.9528     2.3150 C.3     
  19 N19            8.7025     8.7257     1.1318 N.3     
  20 C20            8.6138     7.9145    -0.0897 C.3     
  21 C21            7.1609     7.5028    -0.3218 C.3     
  22 C22            9.9884     9.2548     1.2903 C.ar    
  23 C23            8.1125     3.2604     0.2724 C.ar    
  24 C24            9.4668     3.0118     0.3497 C.ar    
  25 C25            9.9488     1.7248     0.1706 C.ar    
  26 C26            9.0736     0.6816    -0.0869 C.ar    
  27 C27            7.7168     0.9187    -0.1596 C.ar    
  28 F28           11.2764     1.4864     0.2469 F       
  29 F29           -1.3398    -0.4125     0.2327 F       
  30 C30           11.0268     8.8110     0.4853 C.ar    
  31 C31           10.2274    10.2330     2.2536 C.ar    
  32 C32           11.5012    10.7537     2.4062 C.ar    
  33 C33           12.5340    10.3032     1.6037 C.ar    
  34 C34           12.2971     9.3361     0.6437 C.ar    
  35 Cl35          13.5976     8.7751    -0.3601 Cl      
  36 O36            9.2112    10.6758     3.0420 O.3     
  37 C37            9.5295    11.6798     4.0078 C.3     
  38 H38           -1.0005     2.1392    -0.1917 H       
  39 H39            0.9776    -1.5834     0.4879 H       
  40 H40            3.1600    -0.4565     0.3544 H       
  41 H41            1.1751     3.2794    -0.3234 H       
  42 H42            6.8538     4.7811    -0.9380 H       
  43 H43            5.2810     5.5858    -1.1550 H       
  44 H44            6.2005     8.4345     2.2071 H       
  45 H45            6.5597     6.8768     2.9978 H       
  46 H46            8.4299     8.5633     3.2088 H       
  47 H47            8.9210     7.0592     2.3926 H       
  48 H48            8.9684     8.4973    -0.9399 H       
  49 H49            9.2287     7.0214     0.0214 H       
  50 H50            7.1067     6.8080    -1.1600 H       
  51 H51            6.5596     8.3864    -0.5356 H       
  52 H52            7.7379     4.2638     0.4114 H       
  53 H53           10.1530     3.8214     0.5498 H       
  54 H54            9.4541    -0.3195    -0.2261 H       
  55 H55            7.0355     0.1050    -0.3600 H       
  56 H56           10.8441     8.0557    -0.2647 H       
  57 H57           11.6885    11.5122     3.1519 H       
  58 H58           13.5269    10.7106     1.7244 H       
  59 H59           10.2866    11.2981     4.6927 H       
  60 H60            9.9126    12.5646     3.4993 H       
  61 H61            8.6321    11.9426     4.5679 H       
@<TRIPOS>BOND
   1    1    2 ar
   2    1    6 ar
   3    1   38 1
   4    2    3 ar
   5    2   29 1
   6    3    4 ar
   7    3   39 1
   8    4    5 ar
   9    4   40 1
  10    5    6 ar
  11    5    7 1
  12    6   41 1
  13    7    8 1
  14    7    9 2
  15    8   11 2
  16    9   10 1
  17   10   11 1
  18   10   13 1
  19   11   12 1
  20   12   23 ar
  21   12   27 ar
  22   13   14 1
  23   13   42 1
  24   13   43 1
  25   14   15 2
  26   14   16 am
  27   16   17 1
  28   16   21 1
  29   17   18 1
  30   17   44 1
  31   17   45 1
  32   18   19 1
  33   18   46 1
  34   18   47 1
  35   19   20 1
  36   19   22 1
  37   20   21 1
  38   20   48 1
  39   20   49 1
  40   21   50 1
  41   21   51 1
  42   22   31 ar
  43   22   30 ar
  44   23   24 ar
  45   23   52 1
  46   24   25 ar
  47   24   53 1
  48   25   26 ar
  49   25   28 1
  50   26   27 ar
  51   26   54 1
  52   27   55 1
  53   30   34 ar
  54   30   56 1
  55   31   32 ar
  56   31   36 1
  57   32   33 ar
  58   32   57 1
  59   33   34 ar
  60   33   58 1
  61   34   35 1
  62   36   37 1
  63   37   59 1
  64   37   60 1
  65   37   61 1

#	End of record

