#	Name: ASD01883089
#	Creating user name:	WinNT
#	Creation time:	15. 06. 2019 19:45

#	Modifying user name:	WinNT
#	Modification time:	15. 06. 2019 19:45

#	Program:	/corina/corina34_cracker 3.40 0067  02.08.2006

@<TRIPOS>MOLECULE
ASD01883089
  35   37    0    0    0
SMALL
NO_CHARGES


@<TRIPOS>ATOM
   1 N1            -0.0162     1.3417     0.0094 N.am    
   2 C2             0.0021    -0.0041     0.0020 C.2     
   3 C3            -1.2166    -0.7275     0.0102 C.2     
   4 C4            -2.4257    -0.0118     0.0261 C.2     
   5 C5            -2.3786     1.3954     0.0332 C.2     
   6 C6            -1.1848     2.0319     0.0299 C.2     
   7 O7             1.0656    -0.6000    -0.0121 O.2     
   8 C8            -1.2158    -2.1595     0.0021 C.1     
   9 N9            -1.2152    -3.2954    -0.0044 N.1     
  10 C10            1.2511     2.0766     0.0013 C.3     
  11 C11            1.6721     2.3362    -1.4223 C.ar    
  12 C12            1.2730     3.4889    -2.0814 C.ar    
  13 C13            1.6790     3.6931    -3.3866 C.ar    
  14 N14            2.4361     2.8074    -4.0040 N.ar    
  15 C15            2.8344     1.7003    -3.4083 C.ar    
  16 C16            2.4726     1.4309    -2.1020 C.ar    
  17 C17           -3.7229    -0.7230     0.0347 C.ar    
  18 C18           -4.5720    -0.6188     1.1376 C.ar    
  19 C19           -5.7803    -1.2846     1.1392 C.ar    
  20 C20           -6.1508    -2.0546     0.0510 C.ar    
  21 C21           -5.3137    -2.1620    -1.0455 C.ar    
  22 C22           -4.1055    -1.4964    -1.0624 C.ar    
  23 H23           -3.2952     1.9665     0.0453 H       
  24 H24           -1.1612     3.1116     0.0354 H       
  25 H25            1.1240     3.0260     0.5214 H       
  26 H26            2.0167     1.4862     0.5046 H       
  27 H27            0.6523     4.2177    -1.5814 H       
  28 H28            1.3723     4.5884    -3.9071 H       
  29 H29            3.4538     0.9979    -3.9463 H       
  30 H30            2.8022     0.5227    -1.6195 H       
  31 H31           -4.2836    -0.0187     1.9879 H       
  32 H32           -6.4382    -1.2049     1.9920 H       
  33 H33           -7.0975    -2.5744     0.0576 H       
  34 H34           -5.6088    -2.7647    -1.8917 H       
  35 H35           -3.4531    -1.5807    -1.9190 H       
@<TRIPOS>BOND
   1    1    2 am
   2    1   10 1
   3    1    6 1
   4    2    3 1
   5    2    7 2
   6    3    4 2
   7    3    8 1
   8    4    5 1
   9    4   17 1
  10    5    6 2
  11    5   23 1
  12    6   24 1
  13    8    9 3
  14   10   11 1
  15   10   25 1
  16   10   26 1
  17   11   12 ar
  18   11   16 ar
  19   12   13 ar
  20   12   27 1
  21   13   14 ar
  22   13   28 1
  23   14   15 ar
  24   15   16 ar
  25   15   29 1
  26   16   30 1
  27   17   18 ar
  28   17   22 ar
  29   18   19 ar
  30   18   31 1
  31   19   20 ar
  32   19   32 1
  33   20   21 ar
  34   20   33 1
  35   21   22 ar
  36   21   34 1
  37   22   35 1

#	End of record

