#	Name: ASD01208612
#	Creating user name:	WinNT
#	Creation time:	15. 06. 2019 19:10

#	Modifying user name:	WinNT
#	Modification time:	15. 06. 2019 19:10

#	Program:	/corina/corina34_cracker 3.40 0067  02.08.2006

@<TRIPOS>MOLECULE
ASD01208612
  83   84    0    0    0
SMALL
NO_CHARGES


@<TRIPOS>ATOM
   1 N1            -0.8364     3.6766     1.3692 N.pl3   
   2 C2            -1.3635     2.4390     1.6627 C.2     
   3 C3            -0.3169     1.5461     1.7772 C.2     
   4 C4             0.8623     2.2533     1.5497 C.2     
   5 C5             0.5214     3.5651     1.3000 C.2     
   6 C6            -2.7860     2.1247     1.8249 C.2     
   7 O7            -3.1321     0.9872     2.0852 O.2     
   8 N8            -3.7108     3.0953     1.6860 N.am    
   9 C9             1.4659     4.6638     1.0070 C.ar    
  10 C10            0.9877     5.9535     0.7712 C.ar    
  11 C11            1.8760     6.9798     0.4971 C.ar    
  12 C12            3.2399     6.7273     0.4562 C.ar    
  13 C13            3.7195     5.4467     0.6900 C.ar    
  14 C14            2.8383     4.4155     0.9711 C.ar    
  15 O15            5.0562     5.2048     0.6488 O.3     
  16 Si16           5.8273     5.4988     2.0557 Si      
  17 C17            7.5487     3.4536     1.3035 C.3     
  18 C18            7.5653     4.8346     1.9619 C.3     
  19 C19            8.4304     5.7850     1.1317 C.3     
  20 C20            6.8529     7.6338     3.5054 C.3     
  21 C21            5.8801     7.3356     2.3628 C.3     
  22 C22            6.3485     8.0514     1.0943 C.3     
  23 C23            4.9572     3.1461     3.2472 C.3     
  24 C24            4.9171     4.6621     3.4494 C.3     
  25 C25            5.5841     5.0170     4.7798 C.3     
  26 O26            1.4114     8.2361     0.2673 O.3     
  27 C27           -0.3689     9.6536    -0.5463 C.3     
  28 C28           -0.0064     8.4151     0.2756 C.3     
  29 C29           -0.4887     8.5997     1.7158 C.3     
  30 O30            0.1629    10.8185     0.0878 O.3     
  31 C31           -0.1206    12.0370    -0.6030 C.3     
  32 C32           -5.8901     4.0447     2.2609 C.3     
  33 C33           -5.1325     2.7811     1.8481 C.3     
  34 C34           -5.6938     2.2595     0.5239 C.3     
  35 C35           -7.1786     1.9315     0.6932 C.3     
  36 O36           -4.9862     1.0794     0.1384 O.3     
  37 O37           -5.8329     5.0018     1.2013 O.3     
  38 H38           -1.3455     4.4906     1.2308 H       
  39 H39           -0.3971     0.4929     2.0022 H       
  40 H40            1.8627     1.8469     1.5665 H       
  41 H41           -3.4350     4.0018     1.4785 H       
  42 H42           -0.0737     6.1507     0.8021 H       
  43 H43            3.9299     7.5298     0.2415 H       
  44 H44            3.2128     3.4198     1.1574 H       
  45 H45            7.0429     3.5165     0.3400 H       
  46 H46            8.5722     3.1096     1.1547 H       
  47 H47            7.0191     2.7508     1.9466 H       
  48 H48            7.9777     4.7527     2.9675 H       
  49 H49            8.5618     6.7224     1.6722 H       
  50 H50            9.4041     5.3284     0.9540 H       
  51 H51            7.9416     5.9813     0.1774 H       
  52 H52            7.7712     7.0653     3.3585 H       
  53 H53            7.0832     8.6991     3.5178 H       
  54 H54            6.3973     7.3495     4.4540 H       
  55 H55            4.8844     7.6877     2.6320 H       
  56 H56            5.6907     7.7897     0.2655 H       
  57 H57            6.3205     9.1293     1.2540 H       
  58 H58            7.3680     7.7452     0.8597 H       
  59 H59            5.9681     2.7817     3.4301 H       
  60 H60            4.2673     2.6684     3.9429 H       
  61 H61            4.6647     2.9081     2.2245 H       
  62 H62            3.8808     4.9998     3.4610 H       
  63 H63            5.4650     6.0831     4.9729 H       
  64 H64            5.1172     4.4477     5.5835 H       
  65 H65            6.6453     4.7730     4.7307 H       
  66 H66            0.0516     9.5610    -1.5477 H       
  67 H67           -1.4534     9.7400    -0.6142 H       
  68 H68           -0.4859     7.5378    -0.1585 H       
  69 H69           -0.0091     9.4770     2.1500 H       
  70 H70           -1.5701     8.7362     1.7222 H       
  71 H71           -0.2304     7.7173     2.3014 H       
  72 H72            0.3051    11.9938    -1.6055 H       
  73 H73           -1.1999    12.1728    -0.6720 H       
  74 H74            0.3168    12.8737    -0.0582 H       
  75 H75           -6.9304     3.7933     2.4677 H       
  76 H76           -5.4332     4.4661     3.1563 H       
  77 H77           -5.2506     2.0188     2.6182 H       
  78 H78           -5.5757     3.0218    -0.2462 H       
  79 H79           -7.7184     2.8316     0.9873 H       
  80 H80           -7.5785     1.5599    -0.2502 H       
  81 H81           -7.2967     1.1691     1.4633 H       
  82 H82           -4.0368     1.2134     0.0128 H       
  83 H83           -6.2937     5.8299     1.3940 H       
@<TRIPOS>BOND
   1    1    2 1
   2    1    5 1
   3    1   38 1
   4    2    3 2
   5    2    6 1
   6    3    4 1
   7    3   39 1
   8    4    5 2
   9    4   40 1
  10    5    9 1
  11    6    7 2
  12    6    8 am
  13    8   33 1
  14    8   41 1
  15    9   10 ar
  16    9   14 ar
  17   10   11 ar
  18   10   42 1
  19   11   12 ar
  20   11   26 1
  21   12   13 ar
  22   12   43 1
  23   13   14 ar
  24   13   15 1
  25   14   44 1
  26   15   16 1
  27   16   18 1
  28   16   21 1
  29   16   24 1
  30   17   18 1
  31   17   45 1
  32   17   46 1
  33   17   47 1
  34   18   19 1
  35   18   48 1
  36   19   49 1
  37   19   50 1
  38   19   51 1
  39   20   21 1
  40   20   52 1
  41   20   53 1
  42   20   54 1
  43   21   22 1
  44   21   55 1
  45   22   56 1
  46   22   57 1
  47   22   58 1
  48   23   24 1
  49   23   59 1
  50   23   60 1
  51   23   61 1
  52   24   25 1
  53   24   62 1
  54   25   63 1
  55   25   64 1
  56   25   65 1
  57   26   28 1
  58   27   28 1
  59   27   30 1
  60   27   66 1
  61   27   67 1
  62   28   29 1
  63   28   68 1
  64   29   69 1
  65   29   70 1
  66   29   71 1
  67   30   31 1
  68   31   72 1
  69   31   73 1
  70   31   74 1
  71   32   37 1
  72   32   33 1
  73   32   75 1
  74   32   76 1
  75   33   34 1
  76   33   77 1
  77   34   35 1
  78   34   36 1
  79   34   78 1
  80   35   79 1
  81   35   80 1
  82   35   81 1
  83   36   82 1
  84   37   83 1

#	End of record

