#	Name: ASD01814088
#	Creating user name:	WinNT
#	Creation time:	15. 06. 2019 19:31

#	Modifying user name:	WinNT
#	Modification time:	15. 06. 2019 19:31

#	Program:	/corina/corina34_cracker 3.40 0067  02.08.2006

@<TRIPOS>MOLECULE
ASD01814088
  47   51    0    0    0
SMALL
NO_CHARGES


@<TRIPOS>ATOM
   1 C1             1.1584     2.2494    -0.5153 C.ar    
   2 C2             0.7819     0.9152    -0.4999 C.ar    
   3 C3             1.7237    -0.0819    -0.3473 C.ar    
   4 C4             3.0706     0.2475    -0.2069 C.ar    
   5 C5             3.4508     1.6003    -0.2232 C.ar    
   6 C6             2.4866     2.5995    -0.3780 C.ar    
   7 N7             4.0208    -0.7400    -0.0528 N.pl3   
   8 C8             5.3259    -0.4752     0.0866 C.2     
   9 C9             5.8188     0.8141     0.0867 C.2     
  10 C10            4.8781     1.9351    -0.0738 C.2     
  11 O11            5.2633     3.0912    -0.0809 O.2     
  12 C12            7.2585     1.0635     0.2434 C.2     
  13 O13            7.7277     2.3273     0.2419 O.3     
  14 O14            8.0264     0.1302     0.3745 O.2     
  15 C15            3.5837    -2.1382    -0.0406 C.3     
  16 C16            3.4403    -2.6321    -1.4571 C.ar    
  17 C17            4.5226    -2.5815    -2.3197 C.ar    
  18 C18            4.3926    -3.0340    -3.6206 C.ar    
  19 C19            3.1762    -3.5390    -4.0595 C.ar    
  20 C20            2.0933    -3.5883    -3.1907 C.ar    
  21 C21            2.2299    -3.1401    -1.8917 C.ar    
  22 N22            3.0410    -3.9973    -5.3753 N.pl3   
  23 F23            1.3401    -1.3772    -0.3336 F       
  24 N24            3.6754    -3.4493    -6.4949 N.2     
  25 C25            3.3383    -4.1082    -7.5678 C.2     
  26 C26            2.4197    -5.1711    -7.1689 C.ar    
  27 C27            2.2689    -5.0607    -5.7731 C.ar    
  28 F28            5.7055    -2.0896    -1.8908 F       
  29 Cl29           3.8836    -3.7803    -9.1831 Cl      
  30 C30            1.7380    -6.1778    -7.8612 C.ar    
  31 C31            0.9300    -7.0392    -7.1771 C.ar    
  32 C32            0.7786    -6.9253    -5.8005 C.ar    
  33 C33            1.4389    -5.9544    -5.1019 C.ar    
  34 F34            2.8520     3.9001    -0.3941 F       
  35 H35            0.4098     3.0179    -0.6397 H       
  36 H36           -0.2603     0.6532    -0.6082 H       
  37 H37            6.0159    -1.2978     0.2033 H       
  38 H38            8.6821     2.4414     0.3480 H       
  39 H39            4.3223    -2.7453     0.4828 H       
  40 H40            2.6235    -2.2142     0.4697 H       
  41 H41            5.2362    -2.9941    -4.2939 H       
  42 H42            1.1459    -3.9804    -3.5300 H       
  43 H43            1.3878    -3.1790    -1.2165 H       
  44 H44            1.8503    -6.2725    -8.9312 H       
  45 H45            0.4031    -7.8164    -7.7107 H       
  46 H46            0.1348    -7.6157    -5.2758 H       
  47 H47            1.3129    -5.8769    -4.0321 H       
@<TRIPOS>BOND
   1    1    2 ar
   2    1    6 ar
   3    1   35 1
   4    2    3 ar
   5    2   36 1
   6    3    4 ar
   7    3   23 1
   8    4    5 ar
   9    4    7 1
  10    5    6 ar
  11    5   10 1
  12    6   34 1
  13    7    8 1
  14    7   15 1
  15    8    9 2
  16    8   37 1
  17    9   10 1
  18    9   12 1
  19   10   11 2
  20   12   13 1
  21   12   14 2
  22   13   38 1
  23   15   16 1
  24   15   39 1
  25   15   40 1
  26   16   17 ar
  27   16   21 ar
  28   17   18 ar
  29   17   28 1
  30   18   19 ar
  31   18   41 1
  32   19   20 ar
  33   19   22 1
  34   20   21 ar
  35   20   42 1
  36   21   43 1
  37   22   24 1
  38   22   27 1
  39   24   25 2
  40   25   26 1
  41   25   29 1
  42   26   27 ar
  43   26   30 ar
  44   27   33 ar
  45   30   31 ar
  46   30   44 1
  47   31   32 ar
  48   31   45 1
  49   32   33 ar
  50   32   46 1
  51   33   47 1

#	End of record

