#	Name: ASD01882552
#	Creating user name:	WinNT
#	Creation time:	15. 06. 2019 19:44

#	Modifying user name:	WinNT
#	Modification time:	15. 06. 2019 19:44

#	Program:	/corina/corina34_cracker 3.40 0067  02.08.2006

@<TRIPOS>MOLECULE
ASD01882552
  52   55    0    0    0
SMALL
NO_CHARGES


@<TRIPOS>ATOM
   1 N1            -0.0097     1.3106     0.1555 N.ar    
   2 C2             0.0021    -0.0041     0.0020 C.ar    
   3 C3             1.1976    -0.6950    -0.1669 C.ar    
   4 C4             2.3902     0.0078    -0.1738 C.ar    
   5 C5             1.1100     2.0182     0.1545 C.ar    
   6 N6             1.3723     3.3752     0.2926 N.am    
   7 C7             2.3439     1.3863    -0.0103 C.ar    
   8 N8             3.3190     2.3817     0.0329 N.am    
   9 C9             2.7025     3.5650     0.2159 C.2     
  10 N10           -1.2005    -0.7063     0.0102 N.pl3   
  11 C11            0.3688     4.4245     0.4884 C.3     
  12 O12            3.2629     4.6419     0.2989 O.2     
  13 C13            4.7637     2.1761    -0.0974 C.3     
  14 C14            5.1612     2.2697    -1.5719 C.3     
  15 C15            4.7920     3.6525    -2.1128 C.3     
  16 C16            6.6699     2.0550    -1.7079 C.3     
  17 C17            4.4192     1.1954    -2.3694 C.3     
  18 C18           -2.9162    -1.8876    -1.2273 C.ar    
  19 C19           -3.3565    -2.6336     0.0045 C.3     
  20 C20           -2.2511    -2.6241     1.0630 C.3     
  21 C21           -1.7806    -1.1791     1.2746 C.3     
  22 C22           -1.8796    -0.9682    -1.1856 C.ar    
  23 C23           -3.1888    -1.4589    -3.5723 C.ar    
  24 C24           -3.5635    -2.1337    -2.4267 C.ar    
  25 C25           -1.5017    -0.2927    -2.3411 C.ar    
  26 C26           -2.1567    -0.5391    -3.5308 C.ar    
  27 H27            1.1954    -1.7678    -0.2909 H       
  28 H28            3.3330    -0.5030    -0.3026 H       
  29 H29            0.1951     4.5666     1.5550 H       
  30 H30            0.7275     5.3564     0.0513 H       
  31 H31           -0.5627     4.1311     0.0044 H       
  32 H32            5.2923     2.9415     0.4708 H       
  33 H33            5.0267     1.1910     0.2880 H       
  34 H34            5.3207     4.4179    -1.5446 H       
  35 H35            5.0753     3.7192    -3.1632 H       
  36 H36            3.7172     3.8055    -2.0159 H       
  37 H37            6.9329     1.0699    -1.3226 H       
  38 H38            6.9532     2.1217    -2.7584 H       
  39 H39            7.1986     2.8204    -1.1398 H       
  40 H40            3.3443     1.3483    -2.2725 H       
  41 H41            4.7024     1.2621    -3.4198 H       
  42 H42            4.6822     0.2103    -1.9840 H       
  43 H43           -4.2467    -2.1572     0.4152 H       
  44 H44           -3.5938    -3.6632    -0.2634 H       
  45 H45           -2.6382    -3.0270     1.9989 H       
  46 H46           -1.4127    -3.2309     0.7210 H       
  47 H47           -1.0267    -1.1477     2.0612 H       
  48 H48           -2.6282    -0.5513     1.5494 H       
  49 H49           -3.6977    -1.6558    -4.5043 H       
  50 H50           -4.3699    -2.8510    -2.4650 H       
  51 H51           -0.6956     0.4253    -2.3074 H       
  52 H52           -1.8635    -0.0145    -4.4282 H       
@<TRIPOS>BOND
   1    1    2 ar
   2    1    5 ar
   3    2    3 ar
   4    2   10 1
   5    3    4 ar
   6    3   27 1
   7    4    7 ar
   8    4   28 1
   9    5    7 ar
  10    5    6 1
  11    6    9 am
  12    6   11 1
  13    7    8 1
  14    8    9 am
  15    8   13 1
  16    9   12 2
  17   10   22 1
  18   10   21 1
  19   11   29 1
  20   11   30 1
  21   11   31 1
  22   13   14 1
  23   13   32 1
  24   13   33 1
  25   14   15 1
  26   14   16 1
  27   14   17 1
  28   15   34 1
  29   15   35 1
  30   15   36 1
  31   16   37 1
  32   16   38 1
  33   16   39 1
  34   17   40 1
  35   17   41 1
  36   17   42 1
  37   18   19 1
  38   18   22 ar
  39   18   24 ar
  40   19   20 1
  41   19   43 1
  42   19   44 1
  43   20   21 1
  44   20   45 1
  45   20   46 1
  46   21   47 1
  47   21   48 1
  48   22   25 ar
  49   23   24 ar
  50   23   26 ar
  51   23   49 1
  52   24   50 1
  53   25   26 ar
  54   25   51 1
  55   26   52 1

#	End of record

