#	Name: ASD01881029
#	Creating user name:	WinNT
#	Creation time:	15. 06. 2019 19:41

#	Modifying user name:	WinNT
#	Modification time:	15. 06. 2019 19:41

#	Program:	/corina/corina34_cracker 3.40 0067  02.08.2006

@<TRIPOS>MOLECULE
ASD01881029
  45   46    0    0    0
SMALL
NO_CHARGES


@<TRIPOS>ATOM
   1 O1            -0.0177     1.4528     0.0100 O.3     
   2 C2             0.0021    -0.0041     0.0020 C.3     
   3 C3             1.5020    -0.3567    -0.0142 C.3     
   4 N4             2.1700     0.9538    -0.0135 N.am    
   5 C5             1.2374     1.9159     0.0005 C.2     
   6 C6            -0.6652    -0.5565     1.2632 C.3     
   7 C7            -2.1566    -0.2156     1.2421 C.3     
   8 C8            -2.8238    -0.7680     2.5033 C.3     
   9 C9            -4.3152    -0.4272     2.4823 C.3     
  10 C10           -4.9824    -0.9796     3.7434 C.3     
  11 C11           -6.4738    -0.6387     3.7224 C.3     
  12 O12            1.5070     3.1008     0.0039 O.2     
  13 C13            3.5539     1.1619    -0.0256 C.ar    
  14 C14            4.0633     2.4537    -0.0236 C.ar    
  15 C15            5.4295     2.6558    -0.0356 C.ar    
  16 C16            6.2899     1.5733    -0.0501 C.ar    
  17 C17            5.7858     0.2857    -0.0527 C.ar    
  18 C18            4.4206     0.0769    -0.0340 C.ar    
  19 C19           -7.1411    -1.1911     4.9836 C.3     
  20 C20           -8.6325    -0.8503     4.9625 C.3     
  21 H21           -0.4904    -0.3880    -0.8914 H       
  22 H22            1.7715    -0.9243     0.8765 H       
  23 H23            1.7544    -0.9146    -0.9159 H       
  24 H24           -0.5402    -1.6388     1.2960 H       
  25 H25           -0.2029    -0.1105     2.1438 H       
  26 H26           -2.2815     0.8667     1.2093 H       
  27 H27           -2.6188    -0.6616     0.3615 H       
  28 H28           -2.6989    -1.8503     2.5361 H       
  29 H29           -2.3616    -0.3221     3.3840 H       
  30 H30           -4.4401     0.6551     2.4495 H       
  31 H31           -4.7774    -0.8731     1.6016 H       
  32 H32           -4.8575    -2.0619     3.7763 H       
  33 H33           -4.5202    -0.5336     4.6241 H       
  34 H34           -6.5988     0.4436     3.6896 H       
  35 H35           -6.9361    -1.0847     2.8417 H       
  36 H36            3.3918     3.2996    -0.0129 H       
  37 H37            5.8263     3.6602    -0.0340 H       
  38 H38            7.3578     1.7339    -0.0598 H       
  39 H39            6.4603    -0.5577    -0.0647 H       
  40 H40            4.0275    -0.9290    -0.0360 H       
  41 H41           -7.0162    -2.2734     5.0164 H       
  42 H42           -6.6789    -0.7452     5.8642 H       
  43 H43           -8.7574     0.2320     4.9297 H       
  44 H44           -9.0947    -1.2963     4.0819 H       
  45 H45           -9.1078    -1.2438     5.8610 H       
@<TRIPOS>BOND
   1    1    2 1
   2    1    5 1
   3    2    3 1
   4    2    6 1
   5    2   21 1
   6    3    4 1
   7    3   22 1
   8    3   23 1
   9    4    5 am
  10    4   13 1
  11    5   12 2
  12    6    7 1
  13    6   24 1
  14    6   25 1
  15    7    8 1
  16    7   26 1
  17    7   27 1
  18    8    9 1
  19    8   28 1
  20    8   29 1
  21    9   10 1
  22    9   30 1
  23    9   31 1
  24   10   11 1
  25   10   32 1
  26   10   33 1
  27   11   19 1
  28   11   34 1
  29   11   35 1
  30   13   14 ar
  31   13   18 ar
  32   14   15 ar
  33   14   36 1
  34   15   16 ar
  35   15   37 1
  36   16   17 ar
  37   16   38 1
  38   17   18 ar
  39   17   39 1
  40   18   40 1
  41   19   20 1
  42   19   41 1
  43   19   42 1
  44   20   43 1
  45   20   44 1
  46   20   45 1

#	End of record

