#	Name: ASD05303013
#	Creating user name:	WinNT
#	Creation time:	15. 06. 2019 20:58

#	Modifying user name:	WinNT
#	Modification time:	15. 06. 2019 20:58

#	Program:	/corina/corina34_cracker 3.40 0067  02.08.2006

@<TRIPOS>MOLECULE
ASD05303013
  38   41    0    0    0
SMALL
NO_CHARGES


@<TRIPOS>ATOM
   1 C1             0.5244     1.8450    -1.0014 C.ar    
   2 C2             0.4349     0.4907    -1.2621 C.ar    
   3 C3             1.4599    -0.3574    -0.8810 C.ar    
   4 C4             2.5736     0.1543    -0.2389 C.ar    
   5 C5             2.6687     1.5195     0.0225 C.ar    
   6 C6             1.6365     2.3611    -0.3613 C.ar    
   7 O7             3.7630     2.0274     0.6448 O.3     
   8 N8             3.6205    -0.6959     0.1624 N.am    
   9 C9             4.6203     1.1934     1.2867 C.ar    
  10 C10            4.5727    -0.1805     1.0611 C.ar    
  11 C11            5.4519    -1.0259     1.7145 C.ar    
  12 C12            6.3809    -0.5039     2.5975 C.ar    
  13 C13            6.4295     0.8584     2.8254 C.ar    
  14 C14            5.5529     1.7072     2.1741 C.ar    
  15 C15            3.7080    -1.9597    -0.2976 C.2     
  16 O16            2.7015    -2.5588    -0.6244 O.2     
  17 N17            4.9109    -2.5596    -0.3953 N.am    
  18 C18            5.0185    -4.0146    -0.5866 C.3     
  19 C19            5.9573    -4.2787    -1.7694 C.3     
  20 O20            7.1835    -3.5730    -1.5637 O.3     
  21 C21            7.0389    -2.1517    -1.5104 C.3     
  22 C22            6.1554    -1.7780    -0.3201 C.3     
  23 H23           -0.2762     2.5043    -1.3029 H       
  24 H24           -0.4356     0.0940    -1.7633 H       
  25 H25            1.3906    -1.4159    -1.0839 H       
  26 H26            1.7008     3.4204    -0.1608 H       
  27 H27            5.4130    -2.0904     1.5362 H       
  28 H28            7.0681    -1.1615     3.1090 H       
  29 H29            7.1549     1.2621     3.5161 H       
  30 H30            5.5961     2.7709     2.3560 H       
  31 H31            5.4248    -4.4743     0.3143 H       
  32 H32            4.0338    -4.4307    -0.7995 H       
  33 H33            6.1599    -5.3472    -1.8418 H       
  34 H34            5.4883    -3.9330    -2.6906 H       
  35 H35            8.0197    -1.6900    -1.3966 H       
  36 H36            6.5739    -1.7983    -2.4307 H       
  37 H37            5.9247    -0.7132    -0.3541 H       
  38 H38            6.6739    -2.0122     0.6097 H       
@<TRIPOS>BOND
   1    1    2 ar
   2    1    6 ar
   3    1   23 1
   4    2    3 ar
   5    2   24 1
   6    3    4 ar
   7    3   25 1
   8    4    5 ar
   9    4    8 1
  10    5    6 ar
  11    5    7 1
  12    6   26 1
  13    7    9 1
  14    8   10 1
  15    8   15 am
  16    9   10 ar
  17    9   14 ar
  18   10   11 ar
  19   11   12 ar
  20   11   27 1
  21   12   13 ar
  22   12   28 1
  23   13   14 ar
  24   13   29 1
  25   14   30 1
  26   15   16 2
  27   15   17 am
  28   17   18 1
  29   17   22 1
  30   18   19 1
  31   18   31 1
  32   18   32 1
  33   19   20 1
  34   19   33 1
  35   19   34 1
  36   20   21 1
  37   21   22 1
  38   21   35 1
  39   21   36 1
  40   22   37 1
  41   22   38 1

#	End of record

