#	Name: ASD05430712
#	Creating user name:	WinNT
#	Creation time:	15. 06. 2019 21:00

#	Modifying user name:	WinNT
#	Modification time:	15. 06. 2019 21:00

#	Program:	/corina/corina34_cracker 3.40 0067  02.08.2006

@<TRIPOS>MOLECULE
ASD05430712
  54   58    0    0    0
SMALL
NO_CHARGES


@<TRIPOS>ATOM
   1 C1            -0.0169     1.3921     0.0097 C.ar    
   2 C2             0.0021    -0.0041     0.0020 C.ar    
   3 C3             1.1837     2.1040     0.0021 C.ar    
   4 C4             2.3874     1.4238    -0.0131 C.ar    
   5 C5             2.3997     0.0298    -0.0207 C.ar    
   6 C6             1.2048    -0.6775    -0.0131 C.ar    
   7 N7             3.6204    -0.6591    -0.0360 N.pl3   
   8 C8             3.9899    -1.6812     0.7995 C.2     
   9 C9             4.6583    -0.4439    -0.8854 C.2     
  10 N10            5.6170    -1.2791    -0.5902 N.2     
  11 C11            5.2341    -2.0493     0.4389 C.2     
  12 C12            6.0544    -3.1384     1.0808 C.3     
  13 C13           -2.7483     3.7342     0.0355 C.2     
  14 C14           -3.4712     2.5346     0.0333 C.2     
  15 C15           -4.8762     2.5766     0.0410 C.2     
  16 N16           -5.5118     3.7134     0.0501 N.2     
  17 N17           -4.8439     4.9405     0.0527 N.am    
  18 C18           -3.4940     4.9924     0.0511 C.2     
  19 O19           -2.9108     6.0636     0.0533 O.2     
  20 C20           -5.6163     6.1852     0.0630 C.3     
  21 C21           -6.5047     6.2445    -1.1812 C.3     
  22 C22           -6.4783     6.2313     1.2983 C.ar    
  23 C23           -6.6324     7.4185     1.9890 C.ar    
  24 C24           -7.4242     7.4619     3.1242 C.ar    
  25 C25           -8.0614     6.3158     3.5672 C.ar    
  26 C26           -7.9064     5.1273     2.8747 C.ar    
  27 C27           -7.1186     5.0875     1.7365 C.ar    
  28 N28           -1.4429     3.4205     0.0270 N.2     
  29 C29           -1.3061     2.1149     0.0197 C.2     
  30 N30           -2.5423     1.5262     0.0233 N.pl3   
  31 F31           -8.5274     4.0078     3.3062 F       
  32 F32           -7.5743     8.6225     3.7993 F       
  33 O33            3.5586     2.1142    -0.0210 O.3     
  34 C34            3.4709     3.5405    -0.0130 C.3     
  35 H35           -0.9259    -0.5566     0.0083 H       
  36 H36            1.1725     3.1839     0.0076 H       
  37 H37            1.2177    -1.7574    -0.0190 H       
  38 H38            3.3971    -2.1087     1.5946 H       
  39 H39            4.6858     0.2946    -1.6730 H       
  40 H40            6.6457    -2.7167     1.8936 H       
  41 H41            5.3911    -3.9082     1.4754 H       
  42 H42            6.7196    -3.5781     0.3377 H       
  43 H43           -5.4364     1.6533     0.0389 H       
  44 H44           -4.9347     7.0358     0.0637 H       
  45 H45           -7.0794     7.1707    -1.1735 H       
  46 H46           -5.8813     6.2112    -2.0747 H       
  47 H47           -7.1863     5.3939    -1.1819 H       
  48 H48           -6.1348     8.3125     1.6433 H       
  49 H49           -8.6789     6.3487     4.4526 H       
  50 H50           -6.9978     4.1605     1.1958 H       
  51 H51           -2.7265     0.5739     0.0200 H       
  52 H52            2.9272     3.8761    -0.8960 H       
  53 H53            2.9445     3.8671     0.8838 H       
  54 H54            4.4743     3.9662    -0.0206 H       
@<TRIPOS>BOND
   1    1    2 ar
   2    1    3 ar
   3    1   29 1
   4    2    6 ar
   5    2   35 1
   6    3    4 ar
   7    3   36 1
   8    4    5 ar
   9    4   33 1
  10    5    6 ar
  11    5    7 1
  12    6   37 1
  13    7    8 1
  14    7    9 1
  15    8   11 2
  16    8   38 1
  17    9   10 2
  18    9   39 1
  19   10   11 1
  20   11   12 1
  21   12   40 1
  22   12   41 1
  23   12   42 1
  24   13   14 2
  25   13   28 1
  26   13   18 1
  27   14   15 1
  28   14   30 1
  29   15   16 2
  30   15   43 1
  31   16   17 1
  32   17   18 am
  33   17   20 1
  34   18   19 2
  35   20   21 1
  36   20   22 1
  37   20   44 1
  38   21   45 1
  39   21   46 1
  40   21   47 1
  41   22   23 ar
  42   22   27 ar
  43   23   24 ar
  44   23   48 1
  45   24   25 ar
  46   24   32 1
  47   25   26 ar
  48   25   49 1
  49   26   27 ar
  50   26   31 1
  51   27   50 1
  52   28   29 2
  53   29   30 1
  54   30   51 1
  55   33   34 1
  56   34   52 1
  57   34   53 1
  58   34   54 1

#	End of record

