#	Name: ASD02320006
#	Creating user name:	WinNT
#	Creation time:	15. 06. 2019 20:20

#	Modifying user name:	WinNT
#	Modification time:	15. 06. 2019 20:20

#	Program:	/corina/corina34_cracker 3.40 0067  02.08.2006

@<TRIPOS>MOLECULE
ASD02320006
  45   46    0    0    0
SMALL
NO_CHARGES


@<TRIPOS>ATOM
   1 Cl1            2.1195     8.6568     0.0251 Cl      
   2 C2            -0.0168     1.3843     0.0097 C.ar    
   3 C3             0.0021    -0.0041     0.0020 C.ar    
   4 C4             1.2171    -0.6893    -0.0128 C.ar    
   5 C5             2.4057     0.0123    -0.0200 C.ar    
   6 C6             2.3880     1.4128    -0.0128 C.ar    
   7 C7             1.1646     2.0929     0.0022 C.ar    
   8 C8             3.6299     3.5175    -0.0129 C.2     
   9 C9             3.6494     2.1656    -0.0199 C.2     
  10 C10            3.6459     6.4273     0.0017 C.ar    
  11 C11            4.8632     5.7426    -0.0123 C.ar    
  12 C12            4.8845     4.2663    -0.0199 C.2     
  13 C13            3.6330     7.8065     0.0083 C.ar    
  14 C14            4.8235     8.5166     0.0012 C.ar    
  15 C15            6.0337     7.8509    -0.0127 C.ar    
  16 C16            6.0648     6.4650    -0.0195 C.ar    
  17 O17            5.9479     3.6727    -0.0321 O.2     
  18 C18            4.7973    10.0233     0.0085 C.3     
  19 O19            7.2532     5.8103    -0.0326 O.3     
  20 S20            7.8071     5.5050     1.3518 S.o2    
  21 O21            9.1248     5.0103     1.1566 O.2     
  22 O22            7.5135     6.6364     2.1599 O.2     
  23 O23            6.9938     4.3498     1.9178 O.3     
  24 Na24           7.4360     2.5812     1.1202 Du      
  25 O25           -1.1659    -0.6970     0.0095 O.3     
  26 S26           -1.7116    -1.0054    -1.3774 S.o2    
  27 O27           -3.0127    -1.5439    -1.1861 O.2     
  28 O28           -1.4553     0.1431    -2.1740 O.2     
  29 O29           -0.8626    -2.1282    -1.9563 O.3     
  30 Na30          -1.2473    -3.9182    -1.1766 Du      
  31 O31            1.2305    -2.0492    -0.0198 O.3     
  32 C32            2.5100    -2.6853    -0.0351 C.3     
  33 H33           -0.9601     1.9100     0.0170 H       
  34 H34            3.3470    -0.5172    -0.0308 H       
  35 H35            1.1469     3.1727     0.0078 H       
  36 H36            2.6869     4.0439    -0.0021 H       
  37 H37            4.5923     1.6392    -0.0307 H       
  38 H38            2.7162     5.8777     0.0028 H       
  39 H39            6.9571     8.4110    -0.0185 H       
  40 H40            4.8000    10.3817     1.0379 H       
  41 H41            5.6762    10.4045    -0.5113 H       
  42 H42            3.8966    10.3735    -0.4958 H       
  43 H43            3.0558    -2.3825    -0.9287 H       
  44 H44            3.0725    -2.3914     0.8512 H       
  45 H45            2.3779    -3.7673    -0.0393 H       
@<TRIPOS>BOND
   1    1   13 1
   2    2    3 ar
   3    2    7 ar
   4    2   33 1
   5    3    4 ar
   6    3   25 1
   7    4    5 ar
   8    4   31 1
   9    5    6 ar
  10    5   34 1
  11    6    7 ar
  12    6    9 1
  13    7   35 1
  14    8    9 2
  15    8   12 1
  16    8   36 1
  17    9   37 1
  18   10   11 ar
  19   10   13 ar
  20   10   38 1
  21   11   12 1
  22   11   16 ar
  23   12   17 2
  24   13   14 ar
  25   14   15 ar
  26   14   18 1
  27   15   16 ar
  28   15   39 1
  29   16   19 1
  30   18   40 1
  31   18   41 1
  32   18   42 1
  33   19   20 1
  34   20   21 2
  35   20   22 2
  36   20   23 1
  37   23   24 1
  38   25   26 1
  39   26   27 2
  40   26   28 2
  41   26   29 1
  42   29   30 1
  43   31   32 1
  44   32   43 1
  45   32   44 1
  46   32   45 1

#	End of record

