#	Name: ASD01870132
#	Creating user name:	WinNT
#	Creation time:	15. 06. 2019 19:38

#	Modifying user name:	WinNT
#	Modification time:	15. 06. 2019 19:38

#	Program:	/corina/corina34_cracker 3.40 0067  02.08.2006

@<TRIPOS>MOLECULE
ASD01870132
  34   35    0    0    0
SMALL
NO_CHARGES


@<TRIPOS>ATOM
   1 C1            -0.2844     1.4204     0.0790 C.ar    
   2 C2            -0.3074     0.0398     0.0867 C.ar    
   3 C3             0.8763    -0.6808     0.1212 C.ar    
   4 C4             2.0892    -0.0245     0.1477 C.ar    
   5 C5             2.1254     1.3719     0.1397 C.ar    
   6 C6             0.9262     2.0959     0.1054 C.ar    
   7 O7             0.9497     3.4530     0.0970 O.3     
   8 C8             1.1350     4.0523    -1.0906 C.2     
   9 C9             1.0644     5.5539    -1.1960 C.3     
  10 O10            1.3585     3.3874    -2.0744 O.2     
  11 Cl11           0.8321    -2.4162     0.1316 Cl      
  12 C12            3.4193     2.0806     0.1679 C.2     
  13 O13            3.4470     3.2962     0.1610 O.2     
  14 N14            4.5705     1.3805     0.2014 N.am    
  15 C15            5.7980     2.0501     0.1548 C.ar    
  16 C16            5.9353     3.2940     0.7557 C.ar    
  17 C17            6.8847     1.4688    -0.4885 C.ar    
  18 C18            8.0956     2.1331    -0.5320 C.ar    
  19 C19            8.2267     3.3743     0.0638 C.ar    
  20 C20            7.1489     3.9526     0.7084 C.ar    
  21 Cl21           6.7208    -0.0896    -1.2355 Cl      
  22 N22            9.5253     4.0830     0.0157 N.pl3   
  23 O23           10.4769     3.5730    -0.5481 O.2     
  24 O24            9.6423     5.1761     0.5400 O.2     
  25 H25           -1.2106     1.9749     0.0480 H       
  26 H26           -1.2530    -0.4816     0.0661 H       
  27 H27            3.0093    -0.5893     0.1748 H       
  28 H28            0.8558     5.9777    -0.2137 H       
  29 H29            2.0166     5.9376    -1.5625 H       
  30 H30            0.2698     5.8326    -1.8881 H       
  31 H31            4.5479     0.4124     0.2579 H       
  32 H32            5.0940     3.7467     1.2595 H       
  33 H33            8.9405     1.6824    -1.0315 H       
  34 H34            7.2547     4.9221     1.1722 H       
@<TRIPOS>BOND
   1    1    2 ar
   2    1    6 ar
   3    1   25 1
   4    2    3 ar
   5    2   26 1
   6    3    4 ar
   7    3   11 1
   8    4    5 ar
   9    4   27 1
  10    5    6 ar
  11    5   12 1
  12    6    7 1
  13    7    8 1
  14    8    9 1
  15    8   10 2
  16    9   28 1
  17    9   29 1
  18    9   30 1
  19   12   13 2
  20   12   14 am
  21   14   15 1
  22   14   31 1
  23   15   16 ar
  24   15   17 ar
  25   16   20 ar
  26   16   32 1
  27   17   18 ar
  28   17   21 1
  29   18   19 ar
  30   18   33 1
  31   19   20 ar
  32   19   22 1
  33   20   34 1
  34   22   23 2
  35   22   24 2

#	End of record

