#	Name: ASD06590046
#	Creating user name:	WinNT
#	Creation time:	15. 06. 2019 21:06

#	Modifying user name:	WinNT
#	Modification time:	15. 06. 2019 21:06

#	Program:	/corina/corina34_cracker 3.40 0067  02.08.2006

@<TRIPOS>MOLECULE
ASD06590046
 278  278    0    0    0
SMALL
NO_CHARGES


@<TRIPOS>ATOM
   1 C1            -2.9237    10.6793     7.8627 C.2     
   2 O2            -2.9357    11.1928     6.7640 O.2     
   3 N3            -1.9124    12.7570     8.6038 N.am    
   4 C4            -2.3695    11.4360     9.0422 C.3     
   5 C5            -3.4612    11.5997    10.1016 C.3     
   6 C6            -2.9372    12.4737    11.2429 C.3     
   7 O7            -4.6064    12.2201     9.5137 O.3     
   8 C8            -5.5178     9.1049     6.8708 C.2     
   9 O9            -5.9767     9.8649     7.6971 O.2     
  10 N10           -3.4112     9.4339     8.0297 N.am    
  11 C11           -4.0554     8.7431     6.9099 C.3     
  12 C12           -3.9088     7.2310     7.0911 C.3     
  13 C13           -2.4522     6.8538     7.0067 C.2     
  14 O14           -1.6073     7.7175     6.9007 O.2     
  15 N15           -2.0884     5.5568     7.0489 N.am    
  16 C16           -8.5083     7.8377     5.1932 C.2     
  17 O17           -7.9274     6.8579     4.7766 O.2     
  18 N18           -6.3157     8.5839     5.9177 N.am    
  19 C19           -7.7373     8.9356     5.8798 C.3     
  20 C20           -7.9184    10.2448     5.1091 C.3     
  21 C21          -12.0551     7.2391     4.3357 C.2     
  22 O22          -12.4340     8.2855     4.8179 O.2     
  23 N23           -9.8433     7.9446     5.0422 N.am    
  24 C24          -10.5927     6.8773     4.3747 C.3     
  25 C25          -15.1896     5.4948     3.6320 C.2     
  26 O26          -14.6445     4.4119     3.5992 O.2     
  27 N27          -12.9419     6.3999     3.7649 N.am    
  28 C28          -14.3636     6.7517     3.7270 C.3     
  29 C29          -14.6379     7.6356     2.5086 C.3     
  30 C30          -13.8962     8.9646     2.6653 C.3     
  31 C31          -14.1706     9.8485     1.4470 C.3     
  32 N32          -13.4604    11.1210     1.5970 N.pl3   
  33 C33          -13.5577    12.0820     0.6187 C.2     
  34 N34          -14.2818    11.8610    -0.4423 N.2     
  35 N35          -12.8912    13.2762     0.7595 N.pl3   
  36 C36          -18.6650     4.6709     2.8535 C.2     
  37 O37          -18.9158     5.8067     2.5100 O.2     
  38 N38          -16.5342     5.5742     3.5834 N.am    
  39 C39          -17.3372     4.3524     3.4911 C.3     
  40 C40          -17.5677     3.7863     4.8937 C.3     
  41 O41          -18.3592     4.7024     5.6529 O.3     
  42 C42          -21.8533     4.4896     2.9089 C.2     
  43 O43          -21.5814     4.6052     4.0852 O.2     
  44 N44          -19.5738     3.6936     2.6649 N.am    
  45 C45          -20.8161     3.9781     1.9425 C.3     
  46 C46          -21.3251     2.6968     1.2791 C.3     
  47 C47          -20.3504     2.2602     0.2159 C.2     
  48 O48          -19.3148     2.8631     0.0615 O.2     
  49 O49          -20.6327     1.2016    -0.5595 O.3     
  50 C50          -25.4676     5.0346     2.8603 C.2     
  51 O51          -25.5940     4.4740     1.7923 O.2     
  52 N52          -23.0829     4.8186     2.4659 N.am    
  53 C53          -24.0911     5.3159     3.4053 C.3     
  54 C54          -23.9147     6.8242     3.5916 C.3     
  55 C55          -22.4778     7.1199     4.0259 C.3     
  56 O56          -24.1862     7.4915     2.3574 O.3     
  57 C57          -28.8774     6.1189     3.6092 C.2     
  58 O58          -28.4962     6.9668     4.3882 O.2     
  59 N59          -26.5582     5.4060     3.5596 N.am    
  60 C60          -27.8964     5.1326     3.0297 C.3     
  61 C61          -28.3157     3.7117     3.4120 C.3     
  62 C62          -27.3935     2.7047     2.7219 C.3     
  63 C63          -27.8129     1.2838     3.1042 C.3     
  64 N64          -26.9299     0.3195     2.4433 N.pl3   
  65 C65          -27.1154    -1.0286     2.6387 C.2     
  66 N66          -26.3298    -1.8866     2.0507 N.2     
  67 N67          -28.1296    -1.4719     3.4542 N.pl3   
  68 C68          -32.5151     6.4199     3.8075 C.2     
  69 O69          -32.6874     5.3029     3.3676 O.2     
  70 N70          -30.1782     6.0588     3.2619 N.am    
  71 C71          -31.1318     7.0177     3.8253 C.3     
  72 C72          -31.1195     8.2997     2.9903 C.3     
  73 C73          -29.7507     8.9727     3.1093 C.3     
  74 C74          -29.7386    10.2355     2.2869 C.2     
  75 O75          -30.7274    10.5647     1.6666 O.2     
  76 N76          -28.6289    10.9989     2.2406 N.am    
  77 C77          -35.9299     7.6504     4.2408 C.2     
  78 O78          -35.5721     8.8092     4.2394 O.2     
  79 N79          -33.5607     7.1266     4.2805 N.am    
  80 C80          -34.9054     6.5455     4.2632 C.3     
  81 C81          -35.1068     5.6886     5.5147 C.3     
  82 C82          -34.1497     4.4955     5.4753 C.3     
  83 C83          -34.3481     3.6515     6.7079 C.2     
  84 O84          -35.1737     3.9726     7.5363 O.2     
  85 N85          -33.6081     2.5399     6.8897 N.am    
  86 C86          -39.5347     7.9213     4.7841 C.2     
  87 O87          -39.6175     6.7777     5.1793 O.2     
  88 N88          -37.2439     7.3509     4.2223 N.am    
  89 C89          -38.2398     8.4250     4.2005 C.3     
  90 C90          -38.4722     8.8758     2.7571 C.3     
  91 C91          -37.2089     9.4924     2.2138 C.ar    
  92 C92          -36.2749     8.7001     1.5722 C.ar    
  93 C93          -35.1159     9.2628     1.0737 C.ar    
  94 C94          -34.8897    10.6241     1.2170 C.ar    
  95 O95          -33.7505    11.1800     0.7271 O.3     
  96 C96          -35.8287    11.4169     1.8608 C.ar    
  97 C97          -36.9885    10.8502     2.3529 C.ar    
  98 C98          -43.0063     9.0620     4.8861 C.2     
  99 O99          -42.7929     9.9598     4.0991 O.2     
 100 N100         -40.6008     8.7418     4.8669 N.am    
 101 C101         -41.8596     8.2521     5.4342 C.3     
 102 C102         -41.8202     8.3898     6.9575 C.3     
 103 C103         -40.7362     7.4711     7.5247 C.3     
 104 C104         -40.6967     7.6087     9.0480 C.3     
 105 N105         -39.6588     6.7291     9.5911 N.pl3   
 106 C106         -39.4374     6.6827    10.9472 C.2     
 107 N107         -38.5139     5.9000    11.4304 N.2     
 108 N108         -40.1902     7.4618    11.7936 N.pl3   
 109 C109         -45.5562    10.8248     5.5633 C.2     
 110 O110         -44.8233    11.0356     6.5006 O.2     
 111 N111         -44.2688     8.7886     5.2706 N.am    
 112 C112         -45.3834     9.5759     4.7378 C.3     
 113 C113         -46.6673     8.7456     4.7943 C.3     
 114 C114         -46.5380     7.5422     3.8584 C.3     
 115 C115         -47.8218     6.7118     3.9150 C.3     
 116 C116         -47.6925     5.5084     2.9791 C.3     
 117 N117         -48.9251     4.7111     3.0334 N.3     
 118 O118         -46.5241    11.7030     5.2574 O.3     
 119 C119          -0.9584    13.4055     9.3007 C.2     
 120 O120          -0.4782    12.8954    10.2908 O.2     
 121 C121          10.4021    27.9941    12.3504 C.3     
 122 C122           9.9247    26.6145    12.8082 C.3     
 123 C123           8.8463    26.1042    11.8503 C.3     
 124 C124           8.3689    24.7245    12.3081 C.3     
 125 C125           7.2906    24.2142    11.3502 C.3     
 126 C126           6.8132    22.8346    11.8080 C.3     
 127 C127           5.7348    22.3242    10.8501 C.3     
 128 C128           5.2574    20.9446    11.3079 C.3     
 129 C129           4.1791    20.4343    10.3500 C.3     
 130 C130           3.7017    19.0546    10.8079 C.3     
 131 C131           2.6233    18.5443     9.8500 C.3     
 132 C132           2.1459    17.1647    10.3078 C.3     
 133 C133           1.0676    16.6544     9.3499 C.3     
 134 C134           0.5902    15.2747     9.8077 C.3     
 135 C135          -0.4882    14.7644     8.8498 C.3     
 136 H136          -2.2964    13.1650     7.8120 H       
 137 H137          -1.5311    10.8838     9.4667 H       
 138 H138          -3.7386    10.6205    10.4918 H       
 139 H139          -2.6598    13.4529    10.8528 H       
 140 H140          -3.7149    12.5903    11.9977 H       
 141 H141          -2.0637    12.0005    11.6914 H       
 142 H142          -4.4328    13.0970     9.1450 H       
 143 H143          -3.3354     8.9949     8.8914 H       
 144 H144          -3.5814     9.0447     5.9758 H       
 145 H145          -4.3031     6.9419     8.0653 H       
 146 H146          -4.4636     6.7156     6.3071 H       
 147 H147          -2.7641     4.8660     7.1337 H       
 148 H148          -1.1508     5.3140     6.9946 H       
 149 H149          -5.9486     7.9760     5.2569 H       
 150 H150          -8.1085     9.0586     6.8973 H       
 151 H151          -8.9762    10.5065     5.0808 H       
 152 H152          -7.3608    11.0389     5.6056 H       
 153 H153          -7.5473    10.1217     4.0916 H       
 154 H154         -10.3079     8.7282     5.3754 H       
 155 H155         -10.4637     5.9446     4.9238 H       
 156 H156         -10.2216     6.7543     3.3573 H       
 157 H157         -12.6389     5.5631     3.3792 H       
 158 H158         -14.6284     7.2927     4.6354 H       
 159 H159         -14.2911     7.1300     1.6074 H       
 160 H160         -15.7087     7.8241     2.4302 H       
 161 H161         -14.2431     9.4702     3.5665 H       
 162 H162         -12.8255     8.7760     2.7437 H       
 163 H163         -13.8237     9.3429     0.5458 H       
 164 H164         -15.2413    10.0370     1.3686 H       
 165 H165         -12.9215    11.2855     2.3866 H       
 166 H166         -14.3504    12.5390    -1.1325 H       
 167 H167         -12.3523    13.4407     1.5491 H       
 168 H168         -12.9598    13.9543     0.0693 H       
 169 H169         -16.9702     6.4403     3.6096 H       
 170 H170         -16.8101     3.6161     2.8843 H       
 171 H171         -18.0883     2.8316     4.8192 H       
 172 H172         -16.6077     3.6391     5.3884 H       
 173 H173         -18.5452     4.4077     6.5549 H       
 174 H174         -19.4052     2.8019     3.0075 H       
 175 H175         -20.6277     4.7326     1.1788 H       
 176 H176         -21.4198     1.9120     2.0296 H       
 177 H177         -22.2981     2.8846     0.8250 H       
 178 H178         -19.9770     0.9595    -1.2276 H       
 179 H179         -23.3003     4.7262     1.5251 H       
 180 H180         -23.9713     4.8147     4.3658 H       
 181 H181         -24.6057     7.1792     4.3562 H       
 182 H182         -21.7868     6.7650     3.2612 H       
 183 H183         -22.3521     8.1945     4.1585 H       
 184 H184         -22.2707     6.6109     4.9672 H       
 185 H185         -23.6076     7.2242     1.6302 H       
 186 H186         -26.4571     5.8544     4.4138 H       
 187 H187         -27.8837     5.2279     1.9440 H       
 188 H188         -28.2429     3.5897     4.4927 H       
 189 H189         -29.3443     3.5388     3.0954 H       
 190 H190         -27.4663     2.8266     1.6412 H       
 191 H191         -26.3650     2.8775     3.0385 H       
 192 H192         -27.7401     1.1618     4.1849 H       
 193 H193         -28.8415     1.1109     2.7875 H       
 194 H194         -26.2143     0.6323     1.8679 H       
 195 H195         -26.4607    -2.8377     2.1885 H       
 196 H196         -28.7143    -0.8335     3.8917 H       
 197 H197         -28.2605    -2.4231     3.5920 H       
 198 H198         -30.4830     5.3807     2.6389 H       
 199 H199         -30.8497     7.2502     4.8521 H       
 200 H200         -31.3146     8.0551     1.9461 H       
 201 H201         -31.8909     8.9781     3.3548 H       
 202 H202         -29.5556     9.2173     4.1535 H       
 203 H203         -28.9793     8.2943     2.7448 H       
 204 H204         -27.8380    10.7356     2.7367 H       
 205 H205         -28.6211    11.8117     1.7113 H       
 206 H206         -33.4229     8.0200     4.6323 H       
 207 H207         -35.0215     5.9243     3.3751 H       
 208 H208         -34.9038     6.2881     6.4021 H       
 209 H209         -36.1351     5.3285     5.5469 H       
 210 H210         -34.3528     3.8960     4.5879 H       
 211 H211         -33.1214     4.8555     5.4431 H       
 212 H212         -32.9478     2.2830     6.2272 H       
 213 H213         -33.7357     1.9966     7.6831 H       
 214 H214         -37.5301     6.4240     4.2235 H       
 215 H215         -37.8787     9.2674     4.7906 H       
 216 H216         -38.7477     8.0152     2.1475 H       
 217 H217         -39.2759     9.6117     2.7311 H       
 218 H218         -36.4514     7.6405     1.4609 H       
 219 H219         -34.3863     8.6435     0.5732 H       
 220 H220         -33.8250    11.4892    -0.1861 H       
 221 H221         -35.6548    12.4768     1.9738 H       
 222 H222         -37.7218    11.4677     2.8502 H       
 223 H223         -40.5346     9.6564     4.5508 H       
 224 H224         -41.9950     7.2040     5.1675 H       
 225 H225         -41.5965     9.4229     7.2233 H       
 226 H226         -42.7881     8.1092     7.3728 H       
 227 H227         -40.9599     6.4379     7.2589 H       
 228 H228         -39.7682     7.7516     7.1093 H       
 229 H229         -40.4730     8.6419     9.3137 H       
 230 H230         -41.6647     7.3282     9.4633 H       
 231 H231         -39.1277     6.1793     8.9939 H       
 232 H232         -38.3577     5.8673    12.3872 H       
 233 H233         -40.8774     8.0443    11.4340 H       
 234 H234         -40.0340     7.4291    12.7504 H       
 235 H235         -44.4394     8.0706     5.9000 H       
 236 H236         -45.1733     9.8500     3.7039 H       
 237 H237         -46.8298     8.3969     5.8142 H       
 238 H238         -47.5115     9.3601     4.4816 H       
 239 H239         -46.3754     7.8909     2.8386 H       
 240 H240         -45.6938     6.9277     4.1712 H       
 241 H241         -47.9843     6.3631     4.9349 H       
 242 H242         -48.6660     7.3263     3.6022 H       
 243 H243         -47.5299     5.8571     1.9592 H       
 244 H244         -46.8483     4.8939     3.2919 H       
 245 H245         -49.7310     5.2757     2.8100 H       
 246 H246         -48.8646     3.9098     2.4233 H       
 247 H247         -46.5960    12.4893     5.8158 H       
 248 H248          10.8151    27.9203    11.3444 H       
 249 H249           9.5608    28.6873    12.3478 H       
 250 H250          11.1703    28.3577    13.0328 H       
 251 H251          10.7659    25.9214    12.8108 H       
 252 H252           9.5116    26.6883    13.8142 H       
 253 H253           8.0051    26.7973    11.8477 H       
 254 H254           9.2594    26.0304    10.8443 H       
 255 H255           9.2102    24.0314    12.3107 H       
 256 H256           7.9559    24.7984    13.3141 H       
 257 H257           6.4493    24.9074    11.3476 H       
 258 H258           7.7036    24.1404    10.3442 H       
 259 H259           7.6544    22.1414    11.8106 H       
 260 H260           6.4001    22.9084    12.8140 H       
 261 H261           4.8936    23.0174    10.8475 H       
 262 H262           6.1479    22.2504     9.8441 H       
 263 H263           6.0987    20.2515    11.3105 H       
 264 H264           4.8444    21.0184    12.3139 H       
 265 H265           3.3379    21.1274    10.3474 H       
 266 H266           4.5921    20.3605     9.3440 H       
 267 H267           4.5429    18.3615    10.8105 H       
 268 H268           3.2886    19.1285    11.8139 H       
 269 H269           1.7821    19.2375     9.8474 H       
 270 H270           3.0364    18.4705     8.8440 H       
 271 H271           2.9872    16.4715    10.3104 H       
 272 H272           1.7329    17.2385    11.3138 H       
 273 H273           0.2264    17.3475     9.3473 H       
 274 H274           1.4806    16.5805     8.3439 H       
 275 H275           1.4314    14.5816     9.8103 H       
 276 H276           0.1771    15.3485    10.8137 H       
 277 H277          -0.0751    14.6906     7.8438 H       
 278 H278          -1.3294    15.4575     8.8472 H       
@<TRIPOS>BOND
   1    1    2 2
   2    1    4 1
   3    1   10 am
   4    3  119 am
   5    3    4 1
   6    3  136 1
   7    4    5 1
   8    4  137 1
   9    5    6 1
  10    5    7 1
  11    5  138 1
  12    6  139 1
  13    6  140 1
  14    6  141 1
  15    7  142 1
  16    8    9 2
  17    8   11 1
  18    8   18 am
  19   10   11 1
  20   10  143 1
  21   11   12 1
  22   11  144 1
  23   12   13 1
  24   12  145 1
  25   12  146 1
  26   13   14 2
  27   13   15 am
  28   15  147 1
  29   15  148 1
  30   16   17 2
  31   16   19 1
  32   16   23 am
  33   18   19 1
  34   18  149 1
  35   19   20 1
  36   19  150 1
  37   20  151 1
  38   20  152 1
  39   20  153 1
  40   21   22 2
  41   21   24 1
  42   21   27 am
  43   23   24 1
  44   23  154 1
  45   24  155 1
  46   24  156 1
  47   25   26 2
  48   25   28 1
  49   25   38 am
  50   27   28 1
  51   27  157 1
  52   28   29 1
  53   28  158 1
  54   29   30 1
  55   29  159 1
  56   29  160 1
  57   30   31 1
  58   30  161 1
  59   30  162 1
  60   31   32 1
  61   31  163 1
  62   31  164 1
  63   32   33 1
  64   32  165 1
  65   33   34 2
  66   33   35 1
  67   34  166 1
  68   35  167 1
  69   35  168 1
  70   36   37 2
  71   36   39 1
  72   36   44 am
  73   38   39 1
  74   38  169 1
  75   39   40 1
  76   39  170 1
  77   40   41 1
  78   40  171 1
  79   40  172 1
  80   41  173 1
  81   42   43 2
  82   42   45 1
  83   42   52 am
  84   44   45 1
  85   44  174 1
  86   45   46 1
  87   45  175 1
  88   46   47 1
  89   46  176 1
  90   46  177 1
  91   47   48 2
  92   47   49 1
  93   49  178 1
  94   50   51 2
  95   50   53 1
  96   50   59 am
  97   52   53 1
  98   52  179 1
  99   53   54 1
 100   53  180 1
 101   54   55 1
 102   54   56 1
 103   54  181 1
 104   55  182 1
 105   55  183 1
 106   55  184 1
 107   56  185 1
 108   57   58 2
 109   57   60 1
 110   57   70 am
 111   59   60 1
 112   59  186 1
 113   60   61 1
 114   60  187 1
 115   61   62 1
 116   61  188 1
 117   61  189 1
 118   62   63 1
 119   62  190 1
 120   62  191 1
 121   63   64 1
 122   63  192 1
 123   63  193 1
 124   64   65 1
 125   64  194 1
 126   65   66 2
 127   65   67 1
 128   66  195 1
 129   67  196 1
 130   67  197 1
 131   68   69 2
 132   68   71 1
 133   68   79 am
 134   70   71 1
 135   70  198 1
 136   71   72 1
 137   71  199 1
 138   72   73 1
 139   72  200 1
 140   72  201 1
 141   73   74 1
 142   73  202 1
 143   73  203 1
 144   74   75 2
 145   74   76 am
 146   76  204 1
 147   76  205 1
 148   77   78 2
 149   77   80 1
 150   77   88 am
 151   79   80 1
 152   79  206 1
 153   80   81 1
 154   80  207 1
 155   81   82 1
 156   81  208 1
 157   81  209 1
 158   82   83 1
 159   82  210 1
 160   82  211 1
 161   83   84 2
 162   83   85 am
 163   85  212 1
 164   85  213 1
 165   86   87 2
 166   86   89 1
 167   86  100 am
 168   88   89 1
 169   88  214 1
 170   89   90 1
 171   89  215 1
 172   90   91 1
 173   90  216 1
 174   90  217 1
 175   91   92 ar
 176   91   97 ar
 177   92   93 ar
 178   92  218 1
 179   93   94 ar
 180   93  219 1
 181   94   95 1
 182   94   96 ar
 183   95  220 1
 184   96   97 ar
 185   96  221 1
 186   97  222 1
 187   98   99 2
 188   98  101 1
 189   98  111 am
 190  100  101 1
 191  100  223 1
 192  101  102 1
 193  101  224 1
 194  102  103 1
 195  102  225 1
 196  102  226 1
 197  103  104 1
 198  103  227 1
 199  103  228 1
 200  104  105 1
 201  104  229 1
 202  104  230 1
 203  105  106 1
 204  105  231 1
 205  106  107 2
 206  106  108 1
 207  107  232 1
 208  108  233 1
 209  108  234 1
 210  109  110 2
 211  109  112 1
 212  109  118 1
 213  111  112 1
 214  111  235 1
 215  112  113 1
 216  112  236 1
 217  113  114 1
 218  113  237 1
 219  113  238 1
 220  114  115 1
 221  114  239 1
 222  114  240 1
 223  115  116 1
 224  115  241 1
 225  115  242 1
 226  116  117 1
 227  116  243 1
 228  116  244 1
 229  117  245 1
 230  117  246 1
 231  118  247 1
 232  119  120 2
 233  119  135 1
 234  121  122 1
 235  121  248 1
 236  121  249 1
 237  121  250 1
 238  122  123 1
 239  122  251 1
 240  122  252 1
 241  123  124 1
 242  123  253 1
 243  123  254 1
 244  124  125 1
 245  124  255 1
 246  124  256 1
 247  125  126 1
 248  125  257 1
 249  125  258 1
 250  126  127 1
 251  126  259 1
 252  126  260 1
 253  127  128 1
 254  127  261 1
 255  127  262 1
 256  128  129 1
 257  128  263 1
 258  128  264 1
 259  129  130 1
 260  129  265 1
 261  129  266 1
 262  130  131 1
 263  130  267 1
 264  130  268 1
 265  131  132 1
 266  131  269 1
 267  131  270 1
 268  132  133 1
 269  132  271 1
 270  132  272 1
 271  133  134 1
 272  133  273 1
 273  133  274 1
 274  134  135 1
 275  134  275 1
 276  134  276 1
 277  135  277 1
 278  135  278 1

#	End of record

