#	Name: ASD04910192
#	Creating user name:	WinNT
#	Creation time:	15. 06. 2019 20:55

#	Modifying user name:	WinNT
#	Modification time:	15. 06. 2019 20:55

#	Program:	/corina/corina34_cracker 3.40 0067  02.08.2006

@<TRIPOS>MOLECULE
ASD04910192
  45   46    0    0    0
SMALL
NO_CHARGES


@<TRIPOS>ATOM
   1 C1            -0.0184     1.5028     0.0103 C.2     
   2 C2             0.0021    -0.0041     0.0020 C.3     
   3 C3             1.4513    -0.4944    -0.0145 C.3     
   4 O4             1.0197     2.1211     0.0037 O.2     
   5 O5            -1.1898     2.1580     0.0194 O.3     
   6 C6             2.6473    -2.6171    -0.0373 C.2     
   7 C7             2.6674    -4.0954    -0.0454 C.ar    
   8 C8             3.8837    -4.7799    -0.0607 C.ar    
   9 C9             3.8954    -6.1594    -0.0677 C.ar    
  10 C10            2.7049    -6.8644    -0.0601 C.ar    
  11 C11            1.4958    -6.1920    -0.0450 C.ar    
  12 C12            1.4701    -4.8127    -0.0320 C.ar    
  13 O13            3.6916    -1.9951    -0.0439 O.2     
  14 N14            1.4712    -1.9592    -0.0225 N.am    
  15 C15            2.7254    -8.3712    -0.0689 C.3     
  16 O16            1.6359    -8.8669     0.7117 O.3     
  17 C17            2.5926    -8.8747    -1.5076 C.3     
  18 C18            2.6026   -10.4078    -1.6271 C.3     
  19 C19            1.5045   -10.2534    -2.6925 C.3     
  20 C20            1.1405    -8.9234    -2.0116 C.3     
  21 C21           -1.1335     3.6089     0.0270 C.3     
  22 C22           -2.5551     4.1744     0.0369 C.3     
  23 H23           -0.4983    -0.3791     0.8948 H       
  24 H24           -0.5153    -0.3696    -0.8850 H       
  25 H25            1.9516    -0.1193    -0.9073 H       
  26 H26            1.9686    -0.1289     0.8726 H       
  27 H27            4.8137    -4.2307    -0.0674 H       
  28 H28            4.8359    -6.6902    -0.0796 H       
  29 H29            0.5700    -6.7482    -0.0391 H       
  30 H30            0.5257    -4.2891    -0.0157 H       
  31 H31            0.6378    -2.4556    -0.0172 H       
  32 H32            3.6658    -8.7243     0.3543 H       
  33 H33            0.7658    -8.5915     0.3922 H       
  34 H34            3.2782    -8.3787    -2.1946 H       
  35 H35            3.5374   -10.8091    -2.0185 H       
  36 H36            2.2666   -10.9183    -0.7245 H       
  37 H37            1.8916   -10.1343    -3.7044 H       
  38 H38            0.7206   -11.0078    -2.6241 H       
  39 H39            0.4048    -9.0281    -1.2142 H       
  40 H40            0.8950    -8.1264    -2.7134 H       
  41 H41           -0.6017     3.9472     0.9164 H       
  42 H42           -0.6102     3.9569    -0.8636 H       
  43 H43           -3.0784     3.8265     0.9275 H       
  44 H44           -2.5128     5.2636     0.0426 H       
  45 H45           -3.0869     3.8361    -0.8525 H       
@<TRIPOS>BOND
   1    1    2 1
   2    1    4 2
   3    1    5 1
   4    2    3 1
   5    2   23 1
   6    2   24 1
   7    3   14 1
   8    3   25 1
   9    3   26 1
  10    5   21 1
  11    6    7 1
  12    6   13 2
  13    6   14 am
  14    7    8 ar
  15    7   12 ar
  16    8    9 ar
  17    8   27 1
  18    9   10 ar
  19    9   28 1
  20   10   11 ar
  21   10   15 1
  22   11   12 ar
  23   11   29 1
  24   12   30 1
  25   14   31 1
  26   15   16 1
  27   15   17 1
  28   15   32 1
  29   16   33 1
  30   17   18 1
  31   17   20 1
  32   17   34 1
  33   18   19 1
  34   18   35 1
  35   18   36 1
  36   19   20 1
  37   19   37 1
  38   19   38 1
  39   20   39 1
  40   20   40 1
  41   21   22 1
  42   21   41 1
  43   21   42 1
  44   22   43 1
  45   22   44 1
  46   22   45 1

#	End of record

