#	Name: ASD01810295
#	Creating user name:	WinNT
#	Creation time:	15. 06. 2019 19:24

#	Modifying user name:	WinNT
#	Modification time:	15. 06. 2019 19:24

#	Program:	/corina/corina34_cracker 3.40 0067  02.08.2006

@<TRIPOS>MOLECULE
ASD01810295
  36   36    0    0    0
SMALL
NO_CHARGES


@<TRIPOS>ATOM
   1 C1            -0.2287     1.3912     0.0247 C.2     
   2 C2             0.0318    -0.0513    -0.0214 C.2     
   3 C3            -1.0869    -0.9963    -0.1021 C.2     
   4 O4             0.6988     2.1747     0.0916 O.2     
   5 O5            -1.4966     1.8489    -0.0128 O.3     
   6 O6            -0.8706    -2.1826    -0.2591 O.2     
   7 O7            -2.3553    -0.5497    -0.0021 O.3     
   8 C8             1.3312    -0.5201     0.0112 C.2     
   9 N9             1.5684    -1.8441     0.1228 N.pl3   
  10 C10            2.8757    -2.3300     0.0314 C.ar    
  11 C11            3.1216    -3.6924     0.1459 C.ar    
  12 C12            4.4144    -4.1693     0.0547 C.ar    
  13 C13            5.4637    -3.2922    -0.1505 C.ar    
  14 C14            5.2225    -1.9353    -0.2650 C.ar    
  15 C15            3.9315    -1.4523    -0.1800 C.ar    
  16 C16           -1.6794     3.2885     0.0366 C.3     
  17 C17           -3.1733     3.6149    -0.0160 C.3     
  18 C18           -3.4122    -1.5413    -0.0908 C.3     
  19 C19           -4.7713    -0.8514     0.0430 C.3     
  20 H20            2.1571     0.1729    -0.0525 H       
  21 H21            0.8315    -2.4584     0.2663 H       
  22 H22            2.3026    -4.3779     0.3065 H       
  23 H23            4.6063    -5.2283     0.1440 H       
  24 H24            6.4739    -3.6676    -0.2211 H       
  25 H25            6.0442    -1.2530    -0.4252 H       
  26 H26            3.7433    -0.3929    -0.2735 H       
  27 H27           -1.2549     3.6771     0.9623 H       
  28 H28           -1.1769     3.7480    -0.8146 H       
  29 H29           -3.3105     4.6956     0.0210 H       
  30 H30           -3.5977     3.2263    -0.9417 H       
  31 H31           -3.6758     3.1555     0.8352 H       
  32 H32           -3.3552    -2.0479    -1.0542 H       
  33 H33           -3.2945    -2.2705     0.7108 H       
  34 H34           -4.8283    -0.3448     1.0064 H       
  35 H35           -4.8891    -0.1222    -0.7585 H       
  36 H36           -5.5648    -1.5958    -0.0236 H       
@<TRIPOS>BOND
   1    1    2 1
   2    1    4 2
   3    1    5 1
   4    2    3 1
   5    2    8 2
   6    3    6 2
   7    3    7 1
   8    5   16 1
   9    7   18 1
  10    8    9 1
  11    8   20 1
  12    9   10 1
  13    9   21 1
  14   10   11 ar
  15   10   15 ar
  16   11   12 ar
  17   11   22 1
  18   12   13 ar
  19   12   23 1
  20   13   14 ar
  21   13   24 1
  22   14   15 ar
  23   14   25 1
  24   15   26 1
  25   16   17 1
  26   16   27 1
  27   16   28 1
  28   17   29 1
  29   17   30 1
  30   17   31 1
  31   18   19 1
  32   18   32 1
  33   18   33 1
  34   19   34 1
  35   19   35 1
  36   19   36 1

#	End of record

