#	Name: ASD01190013
#	Creating user name:	WinNT
#	Creation time:	15. 06. 2019 19:07

#	Modifying user name:	WinNT
#	Modification time:	15. 06. 2019 19:07

#	Program:	/corina/corina34_cracker 3.40 0067  02.08.2006

@<TRIPOS>MOLECULE
ASD01190013
  83   86    0    0    0
SMALL
NO_CHARGES


@<TRIPOS>ATOM
   1 C1            -0.6594     1.5249    -0.0402 C.3     
   2 C2            -3.7597    -0.4742     5.4117 C.2     
   3 C3            -2.7671    -0.6246     6.4891 C.2     
   4 C4            -1.3629    -0.2944     6.2007 C.2     
   5 C5            -1.0096     0.1662     5.0086 C.2     
   6 C6            -1.9909     0.3992     3.8984 C.3     
   7 C7            -3.3855    -0.0073     4.2310 C.2     
   8 C8             0.4541     0.4624     4.7410 C.3     
   9 C9             0.8602    -0.2606     3.4529 C.3     
  10 C10           -0.0765     0.1513     2.3155 C.3     
  11 C11           -1.5064    -0.3146     2.6327 C.3     
  12 C12            0.3491    -0.5263     1.0258 C.3     
  13 C13           -0.5862    -0.0022    -0.0970 C.3     
  14 C14           -1.9606    -0.5921     0.1545 C.3     
  15 C15           -2.4660    -0.0134     1.4855 C.3     
  16 C16            1.7295    -0.1298     0.4899 C.3     
  17 C17            1.6274    -0.4721    -1.0215 C.3     
  18 C18            0.1196    -0.4419    -1.3755 C.3     
  19 C19           -0.1375     0.5494    -2.4811 C.2     
  20 F20           -1.5018    -1.6956     2.8561 F       
  21 O21           -3.1009    -1.0130     7.5930 O.2     
  22 C22           -1.3835     0.4350    -3.3210 C.3     
  23 O23           -1.3998     1.4980    -4.3100 O.3     
  24 C24           -2.4540     1.5384    -5.1465 C.2     
  25 C25           -2.0010     1.8978     3.5903 C.3     
  26 O26           -2.6060     1.4027     1.3547 O.3     
  27 O27           -0.3241    -1.7437    -1.7633 O.3     
  28 C28            2.2006    -1.8661    -1.2842 C.3     
  29 O29            0.6550     1.4353    -2.6940 O.2     
  30 O30           -3.3362     0.7081    -5.0528 O.2     
  31 N31           -2.5307     2.4998    -6.0880 N.am    
  32 C32           -3.6777     2.5438    -6.9983 C.3     
  33 C33           -3.5198     3.7222    -7.9611 C.3     
  34 C34           -4.6997     3.7675    -8.8975 C.2     
  35 N35           -4.7764     4.7289    -9.8389 N.am    
  36 C36           -5.9234     4.7728   -10.7492 C.3     
  37 C37           -5.7655     5.9513   -11.7121 C.3     
  38 C38           -6.9634     5.9972   -12.6628 C.3     
  39 C39           -6.8054     7.1757   -13.6257 C.3     
  40 O40           -5.5802     2.9387    -8.8040 O.2     
  41 H41            0.2862     1.9469    -0.3806 H       
  42 H42           -1.4660     1.8742    -0.6847 H       
  43 H43           -0.8504     1.8417     0.9851 H       
  44 H44           -4.7902    -0.7484     5.5833 H       
  45 H45           -0.6133    -0.4280     6.9667 H       
  46 H46           -4.1373     0.0844     3.4611 H       
  47 H47            0.5960     1.5364     4.6203 H       
  48 H48            1.0603     0.1018     5.5720 H       
  49 H49            1.8847     0.0068     3.1942 H       
  50 H50            0.7942    -1.3379     3.6053 H       
  51 H51           -0.0600     1.2351     2.1999 H       
  52 H52            0.2625    -1.6087     1.1199 H       
  53 H53           -2.6378    -0.3130    -0.6528 H       
  54 H54           -1.8917    -1.6777     0.2239 H       
  55 H55           -3.4401    -0.4459     1.7141 H       
  56 H56            1.9070     0.9361     0.6328 H       
  57 H57            2.5123    -0.7196     0.9668 H       
  58 H58            2.1648     0.2711    -1.6105 H       
  59 H59           -1.3940    -0.5311    -3.8257 H       
  60 H60           -2.2619     0.5203    -2.6813 H       
  61 H61           -1.1314     2.1498     2.9833 H       
  62 H62           -2.9103     2.1505     3.0449 H       
  63 H63           -1.9685     2.4608     4.5231 H       
  64 H64           -3.2283     1.6744     0.6662 H       
  65 H65            0.0909    -2.0763    -2.5710 H       
  66 H66            1.6554    -2.6007    -0.6916 H       
  67 H67            2.1007    -2.1065    -2.3426 H       
  68 H68            3.2543    -1.8841    -1.0055 H       
  69 H69           -1.8264     3.1626    -6.1628 H       
  70 H70           -3.7267     1.6147    -7.5661 H       
  71 H71           -4.5946     2.6660    -6.4217 H       
  72 H72           -3.4707     4.6513    -7.3933 H       
  73 H73           -2.6028     3.6000    -8.5377 H       
  74 H74           -4.0721     5.3917    -9.9138 H       
  75 H75           -5.9724     3.8437   -11.3171 H       
  76 H76           -6.8403     4.8951   -10.1727 H       
  77 H77           -5.7164     6.8804   -11.1443 H       
  78 H78           -4.8485     5.8291   -12.2887 H       
  79 H79           -7.0124     5.0681   -13.2307 H       
  80 H80           -7.8803     6.1195   -12.0863 H       
  81 H81           -6.7564     8.1048   -13.0578 H       
  82 H82           -5.8885     7.0535   -14.2022 H       
  83 H83           -7.6588     7.2084   -14.3030 H       
@<TRIPOS>BOND
   1    1   13 1
   2    1   41 1
   3    1   42 1
   4    1   43 1
   5    2    3 1
   6    2    7 2
   7    2   44 1
   8    3    4 1
   9    3   21 2
  10    4    5 2
  11    4   45 1
  12    5    6 1
  13    5    8 1
  14    6    7 1
  15    6   11 1
  16    6   25 1
  17    7   46 1
  18    8    9 1
  19    8   47 1
  20    8   48 1
  21    9   10 1
  22    9   49 1
  23    9   50 1
  24   10   11 1
  25   10   12 1
  26   10   51 1
  27   11   20 1
  28   11   15 1
  29   12   13 1
  30   12   16 1
  31   12   52 1
  32   13   14 1
  33   13   18 1
  34   14   15 1
  35   14   53 1
  36   14   54 1
  37   15   26 1
  38   15   55 1
  39   16   17 1
  40   16   56 1
  41   16   57 1
  42   17   18 1
  43   17   28 1
  44   17   58 1
  45   18   19 1
  46   18   27 1
  47   19   22 1
  48   19   29 2
  49   22   23 1
  50   22   59 1
  51   22   60 1
  52   23   24 1
  53   24   30 2
  54   24   31 am
  55   25   61 1
  56   25   62 1
  57   25   63 1
  58   26   64 1
  59   27   65 1
  60   28   66 1
  61   28   67 1
  62   28   68 1
  63   31   32 1
  64   31   69 1
  65   32   33 1
  66   32   70 1
  67   32   71 1
  68   33   34 1
  69   33   72 1
  70   33   73 1
  71   34   35 am
  72   34   40 2
  73   35   36 1
  74   35   74 1
  75   36   37 1
  76   36   75 1
  77   36   76 1
  78   37   38 1
  79   37   77 1
  80   37   78 1
  81   38   39 1
  82   38   79 1
  83   38   80 1
  84   39   81 1
  85   39   82 1
  86   39   83 1

#	End of record

