#	Name: ASD03092826
#	Creating user name:	WinNT
#	Creation time:	15. 06. 2019 20:33

#	Modifying user name:	WinNT
#	Modification time:	15. 06. 2019 20:33

#	Program:	/corina/corina34_cracker 3.40 0067  02.08.2006

@<TRIPOS>MOLECULE
ASD03092826
  52   54    0    0    0
SMALL
NO_CHARGES


@<TRIPOS>ATOM
   1 C1             4.0027     0.7283    -2.9253 C.3     
   2 C2             3.5818    -0.7256    -2.7025 C.3     
   3 C3             2.1583    -0.7665    -2.2093 C.2     
   4 O4             1.5403     0.2674    -2.0513 O.2     
   5 C5             1.5439    -2.0045    -1.9313 C.2     
   6 S6             2.3104    -3.5777    -2.1036 S.3     
   7 C7             0.8480    -4.3894    -1.5614 C.2     
   8 C8            -0.1189    -3.4628    -1.2848 C.2     
   9 C9            -1.4926    -3.8442    -0.7963 C.3     
  10 C10            0.2583    -2.1657    -1.4792 C.2     
  11 C11           -0.6654    -1.0029    -1.2227 C.3     
  12 C12            0.6881    -5.8512    -1.4253 C.ar    
  13 C13            1.0943    -6.6985    -2.4596 C.ar    
  14 C14            0.9466    -8.0636    -2.3350 C.ar    
  15 C15            0.3938    -8.6039    -1.1831 C.ar    
  16 O16            0.2508    -9.9489    -1.0658 O.3     
  17 C17            0.6907   -10.7465    -2.1668 C.3     
  18 C18           -0.0162    -7.7635    -0.1412 C.ar    
  19 C19            0.1367    -6.3878    -0.2616 C.ar    
  20 C20           -0.6078    -8.3409     1.0906 C.ar    
  21 C21           -1.6405    -9.2722     1.0003 C.ar    
  22 C22           -2.1871    -9.8061     2.1497 C.ar    
  23 C23           -1.7119    -9.4182     3.3895 C.ar    
  24 C24           -0.6871    -8.4941     3.4850 C.ar    
  25 C25           -0.1291    -7.9581     2.3421 C.ar    
  26 S26           -2.4150   -10.1035     4.8526 S.o2    
  27 N27           -1.5500   -11.4670     5.2200 N.am    
  28 O28           -2.1585    -9.1725     5.8951 O.2     
  29 O29           -3.7218   -10.5392     4.5038 O.2     
  30 H30            3.3481     1.1866    -3.6666 H       
  31 H31            3.9277     1.2763    -1.9861 H       
  32 H32            5.0323     0.7579    -3.2820 H       
  33 H33            3.6567    -1.2736    -3.6417 H       
  34 H34            4.2364    -1.1839    -1.9612 H       
  35 H35           -1.4882    -3.9013     0.2922 H       
  36 H36           -2.2141    -3.0931    -1.1179 H       
  37 H37           -1.7690    -4.8141    -1.2098 H       
  38 H38           -1.2231    -0.7747    -2.1310 H       
  39 H39           -1.3612    -1.2608    -0.4243 H       
  40 H40           -0.0800    -0.1321    -0.9274 H       
  41 H41            1.5246    -6.2831    -3.3588 H       
  42 H42            1.2620    -8.7145    -3.1370 H       
  43 H43            0.5199   -11.7997    -1.9437 H       
  44 H44            0.1334   -10.4697    -3.0617 H       
  45 H45            1.7545   -10.5787    -2.3349 H       
  46 H46           -0.1744    -5.7358     0.5412 H       
  47 H47           -2.0125    -9.5755     0.0328 H       
  48 H48           -2.9877   -10.5277     2.0809 H       
  49 H49           -0.3199    -8.1949     4.4555 H       
  50 H50            0.6743    -7.2403     2.4177 H       
  51 H51           -0.8098   -11.7386     4.6551 H       
  52 H52           -1.7836   -11.9940     6.0001 H       
@<TRIPOS>BOND
   1    1    2 1
   2    1   30 1
   3    1   31 1
   4    1   32 1
   5    2    3 1
   6    2   33 1
   7    2   34 1
   8    3    4 2
   9    3    5 1
  10    5   10 2
  11    5    6 1
  12    6    7 1
  13    7    8 2
  14    7   12 1
  15    8    9 1
  16    8   10 1
  17    9   35 1
  18    9   36 1
  19    9   37 1
  20   10   11 1
  21   11   38 1
  22   11   39 1
  23   11   40 1
  24   12   19 ar
  25   12   13 ar
  26   13   14 ar
  27   13   41 1
  28   14   15 ar
  29   14   42 1
  30   15   16 1
  31   15   18 ar
  32   16   17 1
  33   17   43 1
  34   17   44 1
  35   17   45 1
  36   18   19 ar
  37   18   20 1
  38   19   46 1
  39   20   25 ar
  40   20   21 ar
  41   21   22 ar
  42   21   47 1
  43   22   23 ar
  44   22   48 1
  45   23   24 ar
  46   23   26 1
  47   24   25 ar
  48   24   49 1
  49   25   50 1
  50   26   27 am
  51   26   28 2
  52   26   29 2
  53   27   51 1
  54   27   52 1

#	End of record

