#	Name: ASD01720149
#	Creating user name:	WinNT
#	Creation time:	15. 06. 2019 19:23

#	Modifying user name:	WinNT
#	Modification time:	15. 06. 2019 19:23

#	Program:	/corina/corina34_cracker 3.40 0067  02.08.2006

@<TRIPOS>MOLECULE
ASD01720149
  95   99    0    0    0
SMALL
NO_CHARGES


@<TRIPOS>ATOM
   1 C1            -0.1290     0.6881     8.5395 C.ar    
   2 C2            -1.1583     0.0427     7.8859 C.ar    
   3 C3            -1.2626     0.1368     6.5104 C.ar    
   4 C4            -0.3413     0.8792     5.8019 C.ar    
   5 C5             0.6934     1.5349     6.4582 C.ar    
   6 C6             0.8022     1.4312     7.8266 C.ar    
   7 C7             1.9176     2.0894     8.5993 C.3     
   8 C8             1.6455     2.3492     5.6225 C.3     
   9 C9             2.9573     2.5872     6.3687 C.3     
  10 N10            2.6276     3.0358     7.7323 N.am    
  11 C11            3.7595     3.6500     5.6630 C.2     
  12 N12            5.0704     3.4539     5.4189 N.am    
  13 O13            3.2255     4.6817     5.3148 O.2     
  14 C14            5.8502     4.4871     4.7329 C.3     
  15 C15            7.2985     4.0171     4.5823 C.3     
  16 C16            8.1129     5.0962     3.8659 C.3     
  17 C17            9.5612     4.6262     3.7153 C.3     
  18 C18           10.3756     5.7052     2.9989 C.3     
  19 C19           11.8257     5.2967     2.9594 C.2     
  20 N20            9.8749     5.8668     1.6273 N.3     
  21 N21           12.6059     5.4754     4.0438 N.am    
  22 O22           12.2906     4.8073     1.9518 O.2     
  23 C23           14.0155     5.0783     4.0054 C.3     
  24 C24           14.6691     5.3866     5.3540 C.3     
  25 C25           16.0838     4.8672     5.3570 C.ar    
  26 C26           14.6806     6.8769     5.5776 C.ar    
  27 C27           15.4014     7.6974     4.7302 C.ar    
  28 C28           15.4120     9.0644     4.9354 C.ar    
  29 C29           14.7015     9.6109     5.9877 C.ar    
  30 C30           13.9800     8.7905     6.8346 C.ar    
  31 C31           13.9659     7.4239     6.6268 C.ar    
  32 C32           18.1747     4.5394     4.2375 C.ar    
  33 C33           16.8770     5.0158     4.2347 C.ar    
  34 C34           16.5900     4.2473     6.4841 C.ar    
  35 C35           17.8876     3.7708     6.4868 C.ar    
  36 C36           18.6789     3.9139     5.3624 C.ar    
  37 C37            2.9655     4.2661     8.1667 C.2     
  38 O38            3.6445     4.9900     7.4697 O.2     
  39 C39            2.4996     4.7422     9.5185 C.3     
  40 C40            3.0170     6.1607     9.7657 C.3     
  41 C41            2.5440     6.6440    11.1381 C.3     
  42 C42            3.0536     8.0412    11.3817 C.2     
  43 C43            2.7321     8.7327    12.6403 C.ar    
  44 O44            3.7284     8.5956    10.5406 O.2     
  45 C45            2.1278    10.0340    15.0099 C.ar    
  46 C46            1.6623     8.7489    14.7922 C.ar    
  47 C47            1.9588     8.0945    13.6153 C.ar    
  48 C48            3.2031    10.0294    12.8701 C.ar    
  49 C49            2.8980    10.6704    14.0521 C.ar    
  50 H50           -0.0495     0.6183     9.6143 H       
  51 H51           -1.8794    -0.5340     8.4463 H       
  52 H52           -2.0633    -0.3700     5.9923 H       
  53 H53           -0.4245     0.9513     4.7275 H       
  54 H54            1.5013     2.6226     9.4540 H       
  55 H55            2.6134     1.3278     8.9515 H       
  56 H56            1.8527     1.8170     4.6940 H       
  57 H57            1.1863     3.3098     5.3893 H       
  58 H58            3.5297     1.6607     6.4127 H       
  59 H59            5.4975     2.6288     5.6974 H       
  60 H60            5.4232     4.6699     3.7468 H       
  61 H61            5.8258     5.4078     5.3158 H       
  62 H62            7.7255     3.8343     5.5684 H       
  63 H63            7.3229     3.0964     3.9994 H       
  64 H64            7.6859     5.2790     2.8798 H       
  65 H65            8.0885     6.0169     4.4488 H       
  66 H66            9.9882     4.4434     4.7014 H       
  67 H67            9.5856     3.7055     3.1324 H       
  68 H68           10.2786     6.6494     3.5347 H       
  69 H69           10.3537     6.6182     1.1538 H       
  70 H70            9.9541     5.0044     1.1095 H       
  71 H71           12.2340     5.8669     4.8496 H       
  72 H72           14.0866     4.0096     3.8031 H       
  73 H73           14.5276     5.6320     3.2184 H       
  74 H74           14.1031     4.9040     6.1508 H       
  75 H75           15.9565     7.2704     3.9080 H       
  76 H76           15.9757     9.7054     4.2737 H       
  77 H77           14.7104    10.6789     6.1484 H       
  78 H78           13.4252     9.2174     7.6570 H       
  79 H79           13.3992     6.7833     7.2863 H       
  80 H80           18.7942     4.6549     3.3604 H       
  81 H81           16.4828     5.5038     3.3556 H       
  82 H82           15.9718     4.1355     7.3626 H       
  83 H83           18.2834     3.2871     7.3676 H       
  84 H84           19.6927     3.5417     5.3646 H       
  85 H85            1.4100     4.7426     9.5479 H       
  86 H86            2.8837     4.0756    10.2907 H       
  87 H87            4.1066     6.1603     9.7363 H       
  88 H88            2.6329     6.8272     8.9935 H       
  89 H89            1.4544     6.6444    11.1675 H       
  90 H90            2.9280     5.9775    11.9103 H       
  91 H91            1.8922    10.5414    15.9338 H       
  92 H92            1.0622     8.2588    15.5446 H       
  93 H93            1.5946     7.0918    13.4468 H       
  94 H94            3.8046    10.5271    12.1238 H       
  95 H95            3.2573    11.6734    14.2292 H       
@<TRIPOS>BOND
   1    1    2 ar
   2    1    6 ar
   3    1   50 1
   4    2    3 ar
   5    2   51 1
   6    3    4 ar
   7    3   52 1
   8    4    5 ar
   9    4   53 1
  10    5    6 ar
  11    5    8 1
  12    6    7 1
  13    7   10 1
  14    7   54 1
  15    7   55 1
  16    8    9 1
  17    8   56 1
  18    8   57 1
  19    9   10 1
  20    9   11 1
  21    9   58 1
  22   10   37 am
  23   11   12 am
  24   11   13 2
  25   12   14 1
  26   12   59 1
  27   14   15 1
  28   14   60 1
  29   14   61 1
  30   15   16 1
  31   15   62 1
  32   15   63 1
  33   16   17 1
  34   16   64 1
  35   16   65 1
  36   17   18 1
  37   17   66 1
  38   17   67 1
  39   18   19 1
  40   18   20 1
  41   18   68 1
  42   19   21 am
  43   19   22 2
  44   20   69 1
  45   20   70 1
  46   21   23 1
  47   21   71 1
  48   23   24 1
  49   23   72 1
  50   23   73 1
  51   24   25 1
  52   24   26 1
  53   24   74 1
  54   25   34 ar
  55   25   33 ar
  56   26   27 ar
  57   26   31 ar
  58   27   28 ar
  59   27   75 1
  60   28   29 ar
  61   28   76 1
  62   29   30 ar
  63   29   77 1
  64   30   31 ar
  65   30   78 1
  66   31   79 1
  67   32   33 ar
  68   32   36 ar
  69   32   80 1
  70   33   81 1
  71   34   35 ar
  72   34   82 1
  73   35   36 ar
  74   35   83 1
  75   36   84 1
  76   37   38 2
  77   37   39 1
  78   39   40 1
  79   39   85 1
  80   39   86 1
  81   40   41 1
  82   40   87 1
  83   40   88 1
  84   41   42 1
  85   41   89 1
  86   41   90 1
  87   42   43 1
  88   42   44 2
  89   43   48 ar
  90   43   47 ar
  91   45   46 ar
  92   45   49 ar
  93   45   91 1
  94   46   47 ar
  95   46   92 1
  96   47   93 1
  97   48   49 ar
  98   48   94 1
  99   49   95 1

#	End of record

