#	Name: ASD01901481
#	Creating user name:	WinNT
#	Creation time:	15. 06. 2019 19:53

#	Modifying user name:	WinNT
#	Modification time:	15. 06. 2019 19:53

#	Program:	/corina/corina34_cracker 3.40 0067  02.08.2006

@<TRIPOS>MOLECULE
ASD01901481
  39   42    0    0    0
SMALL
NO_CHARGES


@<TRIPOS>ATOM
   1 C1            -0.0169     1.3958     0.0097 C.ar    
   2 C2             1.1774     2.1003     0.0021 C.ar    
   3 C3             2.3827     1.4200    -0.0135 C.ar    
   4 C4             2.4025     0.0343    -0.0216 C.ar    
   5 C5             1.2200    -0.6780    -0.0142 C.ar    
   6 C6             0.0021    -0.0041     0.0020 C.ar    
   7 C7            -1.2709    -0.7663     0.0106 C.2     
   8 N8            -3.1794    -1.5368    -1.1466 N.2     
   9 C9            -2.0558    -0.8624    -1.1593 C.2     
  10 C10           -1.6977    -1.3901     1.1496 C.2     
  11 N11           -2.8726    -2.0823     1.1227 N.pl3   
  12 C12           -3.6089    -2.1472    -0.0320 C.2     
  13 C13           -3.5500    -2.7950     2.0750 C.2     
  14 C14           -4.6692    -3.2734     1.4910 C.2     
  15 N15           -4.6908    -2.8717     0.2168 N.2     
  16 C16           -5.7196    -4.1188     2.1642 C.3     
  17 O17           -5.3508    -4.3410     3.5268 O.3     
  18 C18           -6.1962    -5.0900     4.2797 C.ar    
  19 C19           -7.3625    -5.6155     3.7328 C.ar    
  20 C20           -5.9147    -5.3565     5.6183 C.ar    
  21 C21           -6.7976    -6.1212     6.3510 C.ar    
  22 N22           -7.8980    -6.5995     5.8001 N.ar    
  23 C23           -8.1979    -6.3736     4.5333 C.ar    
  24 F24           -9.3336    -6.8889     4.0138 F       
  25 N25           -1.2332     2.0795     0.0308 N.pl3   
  26 F26            3.5445     2.1095    -0.0214 F       
  27 H27            1.1672     3.1803     0.0080 H       
  28 H28            3.3465    -0.4902    -0.0342 H       
  29 H29            1.2398    -1.7578    -0.0212 H       
  30 H30           -1.7291    -0.3781    -2.0677 H       
  31 H31           -1.1135    -1.3360     2.0563 H       
  32 H32           -3.2460    -2.9467     3.1002 H       
  33 H33           -6.6794    -3.6035     2.1270 H       
  34 H34           -5.8007    -5.0759     1.6490 H       
  35 H35           -7.6123    -5.4337     2.6980 H       
  36 H36           -5.0163    -4.9694     6.0758 H       
  37 H37           -6.5861    -6.3319     7.3889 H       
  38 H38           -2.0675     1.5848     0.0401 H       
  39 H39           -1.2443     3.0494     0.0361 H       
@<TRIPOS>BOND
   1    1    6 ar
   2    1    2 ar
   3    1   25 1
   4    2    3 ar
   5    2   27 1
   6    3    4 ar
   7    3   26 1
   8    4    5 ar
   9    4   28 1
  10    5    6 ar
  11    5   29 1
  12    6    7 1
  13    7   10 2
  14    7    9 1
  15    8    9 2
  16    8   12 1
  17    9   30 1
  18   10   11 1
  19   10   31 1
  20   11   13 1
  21   11   12 1
  22   12   15 2
  23   13   14 2
  24   13   32 1
  25   14   15 1
  26   14   16 1
  27   16   17 1
  28   16   33 1
  29   16   34 1
  30   17   18 1
  31   18   20 ar
  32   18   19 ar
  33   19   23 ar
  34   19   35 1
  35   20   21 ar
  36   20   36 1
  37   21   22 ar
  38   21   37 1
  39   22   23 ar
  40   23   24 1
  41   25   38 1
  42   25   39 1

#	End of record

