#	Name: ASD01913623
#	Creating user name:	WinNT
#	Creation time:	15. 06. 2019 20:01

#	Modifying user name:	WinNT
#	Modification time:	15. 06. 2019 20:01

#	Program:	/corina/corina34_cracker 3.40 0067  02.08.2006

@<TRIPOS>MOLECULE
ASD01913623
  48   49    0    0    0
SMALL
NO_CHARGES


@<TRIPOS>ATOM
   1 C1             1.1966     4.3534     2.0011 C.ar    
   2 C2             1.5639     3.0201     2.0641 C.ar    
   3 C3             0.6050     2.0328     1.9368 C.ar    
   4 C4            -0.7202     2.3763     1.7461 C.ar    
   5 C5            -1.0883     3.7075     1.6830 C.ar    
   6 C6            -0.1323     4.6963     1.8163 C.ar    
   7 F7             2.1330     5.3192     2.1255 F       
   8 C8            -2.5335     4.0803     1.4745 C.3     
   9 O9            -3.1799     4.2090     2.7424 O.3     
  10 C10           -4.4931     4.5427     2.7324 C.ar    
  11 N11           -5.1096     4.7316     1.5759 N.ar    
  12 C12           -6.3839     5.0569     1.5139 C.ar    
  13 C13           -7.1345     5.2154     2.6793 C.ar    
  14 C14           -6.5114     5.0224     3.9213 C.ar    
  15 C15           -5.1760     4.6765     3.9376 C.ar    
  16 C16           -8.5628     5.5811     2.6065 C.2     
  17 N17           -9.1512     5.7645     1.4079 N.am    
  18 C18          -10.5687     6.1275     1.3357 C.3     
  19 C19          -10.7146     7.6441     1.4751 C.3     
  20 C20           -9.8218     8.3391     0.4452 C.3     
  21 C21          -12.1729     8.0403     1.2360 C.3     
  22 C22          -10.2949     8.0695     2.8836 C.3     
  23 C23          -11.1413     5.6817    -0.0113 C.3     
  24 O24          -10.4640     6.3666    -1.0669 O.3     
  25 O25           -9.2084     5.7168     3.6278 O.2     
  26 H26            2.5994     2.7515     2.2124 H       
  27 H27            0.8914     0.9926     1.9859 H       
  28 H28           -1.4687     1.6042     1.6459 H       
  29 H29           -0.4201     5.7361     1.7673 H       
  30 H30           -2.5907     5.0284     0.9397 H       
  31 H31           -3.0286     3.3038     0.8914 H       
  32 H32           -6.8525     5.2028     0.5519 H       
  33 H33           -7.0645     5.1374     4.8417 H       
  34 H34           -4.6641     4.5196     4.8756 H       
  35 H35           -8.6362     5.6562     0.5931 H       
  36 H36          -11.1115     5.6346     2.1423 H       
  37 H37          -10.2344     8.1903    -0.5526 H       
  38 H38           -9.7767     9.4059     0.6644 H       
  39 H39           -8.8181     7.9163     0.4902 H       
  40 H40          -12.8090     7.5452     1.9697 H       
  41 H41          -12.2768     9.1208     1.3353 H       
  42 H42          -12.4719     7.7373     0.2325 H       
  43 H43           -9.2560     7.7872     3.0540 H       
  44 H44          -10.3988     9.1499     2.9830 H       
  45 H45          -10.9310     7.5743     3.6174 H       
  46 H46          -11.0021     4.6069    -0.1274 H       
  47 H47          -12.2050     5.9166    -0.0495 H       
  48 H48          -10.7763     6.1324    -1.9516 H       
@<TRIPOS>BOND
   1    1    2 ar
   2    1    7 1
   3    1    6 ar
   4    2    3 ar
   5    2   26 1
   6    3    4 ar
   7    3   27 1
   8    4    5 ar
   9    4   28 1
  10    5    6 ar
  11    5    8 1
  12    6   29 1
  13    8    9 1
  14    8   30 1
  15    8   31 1
  16    9   10 1
  17   10   11 ar
  18   10   15 ar
  19   11   12 ar
  20   12   13 ar
  21   12   32 1
  22   13   14 ar
  23   13   16 1
  24   14   15 ar
  25   14   33 1
  26   15   34 1
  27   16   17 am
  28   16   25 2
  29   17   18 1
  30   17   35 1
  31   18   19 1
  32   18   23 1
  33   18   36 1
  34   19   20 1
  35   19   21 1
  36   19   22 1
  37   20   37 1
  38   20   38 1
  39   20   39 1
  40   21   40 1
  41   21   41 1
  42   21   42 1
  43   22   43 1
  44   22   44 1
  45   22   45 1
  46   23   24 1
  47   23   46 1
  48   23   47 1
  49   24   48 1

#	End of record

