#	Name: ASD09116013
#	Creating user name:	WinNT
#	Creation time:	15. 06. 2019 21:20

#	Modifying user name:	WinNT
#	Modification time:	15. 06. 2019 21:20

#	Program:	/corina/corina34_cracker 3.40 0067  02.08.2006

@<TRIPOS>MOLECULE
ASD09116013
  87   93    0    0    0
SMALL
NO_CHARGES


@<TRIPOS>ATOM
   1 C1             4.2889     0.6569     6.0099 C.ar    
   2 C2             2.9850     0.2742     6.2508 C.ar    
   3 C3             1.9496     0.8242     5.4971 C.ar    
   4 C4             2.2380     1.7584     4.5037 C.ar    
   5 C5             3.5456     2.1336     4.2716 C.ar    
   6 C6             4.5692     1.5844     5.0227 C.ar    
   7 C7             0.5465     0.4166     5.7508 C.ar    
   8 C8             0.1789    -0.9338     5.8211 C.ar    
   9 C9            -1.1464    -1.2678     6.0604 C.ar    
  10 N10           -2.0780    -0.3323     6.2246 N.ar    
  11 C11           -1.7698     0.9309     6.1652 C.ar    
  12 C12           -0.4578     1.3557     5.9345 C.ar    
  13 C13           -2.7396     2.0859     6.3354 C.3     
  14 C14           -2.1838     2.9461     7.4890 C.3     
  15 C15           -0.7280     3.3131     7.1932 C.3     
  16 N16           -0.3039     2.7460     5.9026 N.3     
  17 N17           -1.5108    -2.6163     6.1299 N.pl3   
  18 N18           -0.8464    -3.6989     5.5313 N.2     
  19 C19           -1.5173    -4.7810     5.8459 C.2     
  20 N20           -2.5635    -4.4394     6.6069 N.2     
  21 C21           -2.5699    -3.1365     6.7921 C.2     
  22 N22           -1.1927    -6.0792     5.4505 N.pl3   
  23 C23           -1.9259    -7.1629     5.9408 C.ar    
  24 C24           -2.0750    -8.3085     5.1689 C.ar    
  25 C25           -2.5026    -7.0988     7.2037 C.ar    
  26 C26           -3.2256    -8.1772     7.6790 C.ar    
  27 C27           -3.3755    -9.3041     6.9125 C.ar    
  28 C28           -2.8003    -9.3790     5.6551 C.ar    
  29 N29           -3.5001    -2.4241     7.5254 N.pl3   
  30 C30           -1.1499     3.3048     4.8297 C.3     
  31 C31           -2.6193     2.9392     5.0561 C.3     
  32 C32           -3.8514    -8.1054     9.0566 C.3     
  33 C33           -5.3698    -8.0009     8.8945 C.3     
  34 C34           -5.9958    -9.3747     8.7570 C.3     
  35 C35           -5.6494   -10.0953     7.4691 C.3     
  36 C36           -4.1684   -10.4822     7.4398 C.3     
  37 N37           -7.4558    -9.2311     8.8324 N.3     
  38 C38           -8.1237   -10.5207     8.6115 C.3     
  39 C39           -7.8612    -8.6412    10.1153 C.3     
  40 C40           -9.3744    -8.4148    10.1170 C.3     
  41 C41           -9.7779    -7.6746    11.3938 C.3     
  42 C42           -7.5961   -11.5470     9.6161 C.3     
  43 C43           -8.3572   -12.8635     9.4474 C.3     
  44 H44            5.0916     0.2347     6.5964 H       
  45 H45            2.7674    -0.4503     7.0216 H       
  46 H46            1.4396     2.1875     3.9164 H       
  47 H47            3.7703     2.8571     3.5019 H       
  48 H48            5.5910     1.8812     4.8379 H       
  49 H49            0.9206    -1.7078     5.6899 H       
  50 H50           -3.7580     1.7471     6.5253 H       
  51 H51           -2.7765     3.8561     7.5822 H       
  52 H52           -2.2345     2.3819     8.4203 H       
  53 H53           -0.6302     4.3982     7.1600 H       
  54 H54           -0.0898     2.9190     7.9841 H       
  55 H55           -0.4580    -6.2293     4.8352 H       
  56 H56           -1.6243    -8.3620     4.1889 H       
  57 H57           -2.3864    -6.2126     7.8099 H       
  58 H58           -2.9217   -10.2689     5.0554 H       
  59 H59           -4.2329    -2.8875     7.9604 H       
  60 H60           -3.4202    -1.4607     7.6051 H       
  61 H61           -1.0489     4.3901     4.8204 H       
  62 H62           -0.8237     2.9054     3.8695 H       
  63 H63           -2.9889     2.3699     4.2032 H       
  64 H64           -3.2087     3.8491     5.1691 H       
  65 H65           -3.6041    -9.0060     9.6186 H       
  66 H66           -3.4779    -7.2272     9.5833 H       
  67 H67           -5.7897    -7.5017     9.7677 H       
  68 H68           -5.5954    -7.4138     8.0042 H       
  69 H69           -5.6687    -9.9892     9.5958 H       
  70 H70           -6.2567   -10.9969     7.3887 H       
  71 H71           -5.8658    -9.4421     6.6238 H       
  72 H72           -4.0272   -11.3417     6.7845 H       
  73 H73           -3.8339   -10.7275     8.4478 H       
  74 H74           -9.1988   -10.4007     8.7453 H       
  75 H75           -7.9201   -10.8664     7.5980 H       
  76 H76           -7.5942    -9.3180    10.9269 H       
  77 H77           -7.3510    -7.6881    10.2543 H       
  78 H78           -9.6535    -7.8189     9.2480 H       
  79 H79           -9.8857    -9.3765    10.0775 H       
  80 H80           -9.4987    -8.2705    12.2628 H       
  81 H81           -9.2665    -6.7128    11.4332 H       
  82 H82          -10.8559    -7.5133    11.3950 H       
  83 H83           -6.5340   -11.7161     9.4389 H       
  84 H84           -7.7402   -11.1712    10.6290 H       
  85 H85           -8.2131   -13.2393     8.4345 H       
  86 H86           -7.9813   -13.5947    10.1631 H       
  87 H87           -9.4193   -12.6945     9.6246 H       
@<TRIPOS>BOND
   1    1    2 ar
   2    1    6 ar
   3    1   44 1
   4    2    3 ar
   5    2   45 1
   6    3    4 ar
   7    3    7 1
   8    4    5 ar
   9    4   46 1
  10    5    6 ar
  11    5   47 1
  12    6   48 1
  13    7    8 ar
  14    7   12 ar
  15    8    9 ar
  16    8   49 1
  17    9   10 ar
  18    9   17 1
  19   10   11 ar
  20   11   12 ar
  21   11   13 1
  22   12   16 1
  23   13   14 1
  24   13   31 1
  25   13   50 1
  26   14   15 1
  27   14   51 1
  28   14   52 1
  29   15   16 1
  30   15   53 1
  31   15   54 1
  32   16   30 1
  33   17   18 1
  34   17   21 1
  35   18   19 2
  36   19   20 1
  37   19   22 1
  38   20   21 2
  39   21   29 1
  40   22   23 1
  41   22   55 1
  42   23   24 ar
  43   23   25 ar
  44   24   28 ar
  45   24   56 1
  46   25   26 ar
  47   25   57 1
  48   26   27 ar
  49   26   32 1
  50   27   28 ar
  51   27   36 1
  52   28   58 1
  53   29   59 1
  54   29   60 1
  55   30   31 1
  56   30   61 1
  57   30   62 1
  58   31   63 1
  59   31   64 1
  60   32   33 1
  61   32   65 1
  62   32   66 1
  63   33   34 1
  64   33   67 1
  65   33   68 1
  66   34   35 1
  67   34   37 1
  68   34   69 1
  69   35   36 1
  70   35   70 1
  71   35   71 1
  72   36   72 1
  73   36   73 1
  74   37   38 1
  75   37   39 1
  76   38   42 1
  77   38   74 1
  78   38   75 1
  79   39   40 1
  80   39   76 1
  81   39   77 1
  82   40   41 1
  83   40   78 1
  84   40   79 1
  85   41   80 1
  86   41   81 1
  87   41   82 1
  88   42   43 1
  89   42   83 1
  90   42   84 1
  91   43   85 1
  92   43   86 1
  93   43   87 1

#	End of record

