#	Name: ASD04882600
#	Creating user name:	WinNT
#	Creation time:	15. 06. 2019 20:55

#	Modifying user name:	WinNT
#	Modification time:	15. 06. 2019 20:55

#	Program:	/corina/corina34_cracker 3.40 0067  02.08.2006

@<TRIPOS>MOLECULE
ASD04882600
  76   81    0    0    0
SMALL
NO_CHARGES


@<TRIPOS>ATOM
   1 C1            -0.0428     1.3815    -0.0136 C.ar    
   2 C2            -0.0278    -0.0160    -0.0068 C.ar    
   3 C3            -1.2229    -0.7260    -0.0199 C.ar    
   4 C4            -2.4257    -0.0553    -0.0396 C.ar    
   5 C5            -2.4479     1.3422    -0.0470 C.ar    
   6 C6            -1.2478     2.0584    -0.0276 C.ar    
   7 N7             1.1860    -0.6983     0.0127 N.3     
   8 C8             1.2931    -1.5486     1.2064 C.3     
   9 C9             1.3648    -1.4902    -1.2123 C.3     
  10 C10            2.7410    -2.1593    -1.1877 C.3     
  11 N11            2.8481    -3.0097     0.0061 N.3     
  12 C12            2.6694    -2.2178     1.2310 C.3     
  13 C13           -3.7364     2.0603    -0.0686 C.2     
  14 O14           -3.7548     3.2761    -0.0750 O.2     
  15 N15           -4.8932     1.3688    -0.0812 N.am    
  16 N16            1.1624     2.0957    -0.0005 N.am    
  17 C17            4.0545    -3.6878     0.0254 C.ar    
  18 C18            4.0758    -5.0886     0.1371 C.ar    
  19 N19            5.2413    -5.7298     0.1548 N.ar    
  20 C20            6.3682    -5.0511     0.0677 C.ar    
  21 C21            6.3471    -3.6692    -0.0425 C.ar    
  22 N22            5.1973    -3.0189    -0.0669 N.ar    
  23 C23            1.1995     3.3457     0.5019 C.2     
  24 C24            2.4770     4.0605     0.5966 C.2     
  25 C25            3.7010     3.5933     0.2186 C.2     
  26 N26            4.5935     4.5559     0.4723 N.2     
  27 C27            3.9744     5.5851     0.9856 C.2     
  28 O28            2.6683     5.3137     1.0707 O.3     
  29 O29            0.1731     3.8815     0.8770 O.2     
  30 C30            2.8494    -5.8218     0.2320 C.1     
  31 C31            4.6278     6.8753     1.4092 C.3     
  32 C32            5.7042     6.7992     2.4938 C.3     
  33 C33            6.0995     7.0758     1.0419 C.3     
  34 N34            1.8765    -6.4034     0.3072 N.1     
  35 C35           -6.1727     2.0820    -0.1026 C.3     
  36 C36           -7.3203     1.0702    -0.1135 C.3     
  37 C37           -8.6566     1.8150    -0.1359 C.3     
  38 N38           -9.7555     0.8462    -0.1463 N.am    
  39 C39          -10.3402     0.3506     0.9580 C.2     
  40 C40          -11.4281    -0.6286     0.5758 C.3     
  41 C41          -11.1340    -0.9633    -0.9049 C.3     
  42 C42          -10.3636     0.2968    -1.3638 C.3     
  43 O43          -10.0391     0.6454     2.0952 O.2     
  44 H44           -1.2082    -1.8059    -0.0149 H       
  45 H45           -3.3525    -0.6097    -0.0497 H       
  46 H46           -1.2618     3.1383    -0.0333 H       
  47 H47            1.1699    -0.9375     2.1005 H       
  48 H48            0.5172    -2.3137     1.1787 H       
  49 H49            0.5897    -2.2546    -1.2675 H       
  50 H50            1.2938    -0.8364    -2.0816 H       
  51 H51            2.8643    -2.7705    -2.0818 H       
  52 H52            3.5169    -1.3943    -1.1600 H       
  53 H53            3.4444    -1.4534     1.2862 H       
  54 H54            2.7404    -2.8716     2.1003 H       
  55 H55           -4.8785     0.3989    -0.0761 H       
  56 H56            1.9701     1.6904    -0.3530 H       
  57 H57            7.3129    -5.5744     0.0826 H       
  58 H58            7.2754    -3.1218    -0.1133 H       
  59 H59            3.9110     2.6235    -0.2077 H       
  60 H60            3.9826     7.7538     1.4013 H       
  61 H61            5.7675     7.6278     3.1992 H       
  62 H62            5.9398     5.8160     2.9010 H       
  63 H63            6.5950     6.2745     0.4938 H       
  64 H64            6.4227     8.0863     0.7920 H       
  65 H65           -6.2523     2.7122     0.7831 H       
  66 H66           -6.2275     2.7031    -0.9966 H       
  67 H67           -7.2407     0.4400    -0.9993 H       
  68 H68           -7.2655     0.4490     0.7805 H       
  69 H69           -8.7362     2.4452     0.7499 H       
  70 H70           -8.7114     2.4362    -1.0299 H       
  71 H71          -11.3655    -1.5271     1.1897 H       
  72 H72          -12.4100    -0.1657     0.6745 H       
  73 H73          -10.5140    -1.8560    -0.9873 H       
  74 H74          -12.0590    -1.0791    -1.4698 H       
  75 H75          -11.0500     1.0175    -1.8082 H       
  76 H76           -9.5868     0.0246    -2.0783 H       
@<TRIPOS>BOND
   1    1    2 ar
   2    1   16 1
   3    1    6 ar
   4    2    3 ar
   5    2    7 1
   6    3    4 ar
   7    3   44 1
   8    4    5 ar
   9    4   45 1
  10    5    6 ar
  11    5   13 1
  12    6   46 1
  13    7    8 1
  14    7    9 1
  15    8   12 1
  16    8   47 1
  17    8   48 1
  18    9   10 1
  19    9   49 1
  20    9   50 1
  21   10   11 1
  22   10   51 1
  23   10   52 1
  24   11   12 1
  25   11   17 1
  26   12   53 1
  27   12   54 1
  28   13   14 2
  29   13   15 am
  30   15   35 1
  31   15   55 1
  32   16   23 am
  33   16   56 1
  34   17   18 ar
  35   17   22 ar
  36   18   19 ar
  37   18   30 1
  38   19   20 ar
  39   20   21 ar
  40   20   57 1
  41   21   22 ar
  42   21   58 1
  43   23   24 1
  44   23   29 2
  45   24   25 2
  46   24   28 1
  47   25   26 1
  48   25   59 1
  49   26   27 2
  50   27   28 1
  51   27   31 1
  52   30   34 3
  53   31   32 1
  54   31   33 1
  55   31   60 1
  56   32   33 1
  57   32   61 1
  58   32   62 1
  59   33   63 1
  60   33   64 1
  61   35   36 1
  62   35   65 1
  63   35   66 1
  64   36   37 1
  65   36   67 1
  66   36   68 1
  67   37   38 1
  68   37   69 1
  69   37   70 1
  70   38   39 am
  71   38   42 1
  72   39   40 1
  73   39   43 2
  74   40   41 1
  75   40   71 1
  76   40   72 1
  77   41   42 1
  78   41   73 1
  79   41   74 1
  80   42   75 1
  81   42   76 1

#	End of record

