#	Name: ASD01200369
#	Creating user name:	WinNT
#	Creation time:	15. 06. 2019 19:09

#	Modifying user name:	WinNT
#	Modification time:	15. 06. 2019 19:09

#	Program:	/corina/corina34_cracker 3.40 0067  02.08.2006

@<TRIPOS>MOLECULE
ASD01200369
  63   67    0    0    0
SMALL
NO_CHARGES


@<TRIPOS>ATOM
   1 C1            -0.2202     1.7021    -0.8111 C.ar    
   2 C2            -0.2290     0.3921    -1.1977 C.ar    
   3 C3             0.9596    -0.3048    -1.3785 C.ar    
   4 C4             2.1622     0.3066    -1.1730 C.ar    
   5 C5             2.1976     1.6484    -0.7770 C.ar    
   6 C6             0.9921     2.3529    -0.5943 C.ar    
   7 C7             3.2719     2.5892    -0.4767 C.2     
   8 N8             2.7258     3.7264    -0.1529 N.2     
   9 N9             1.3321     3.6244    -0.2130 N.pl3   
  10 C10            0.3873     4.7037     0.0849 C.3     
  11 C11            0.5844     5.1700     1.5288 C.3     
  12 C12            0.6307     5.8576    -0.8533 C.2     
  13 N13            0.0423     5.8760    -2.0657 N.am    
  14 O14            1.3561     6.7698    -0.5173 O.2     
  15 C15           -0.4943     6.1946     1.8856 C.3     
  16 C16           -2.9285     6.5262     2.3268 C.3     
  17 C17           -1.8661     5.5130     1.8925 C.3     
  18 C18           -0.2149     6.7691     3.2778 C.3     
  19 C19           -1.3411     7.7337     3.6586 C.3     
  20 O20           -2.5920     7.0443     3.6154 O.3     
  21 S21            3.6621    -0.5886    -1.4046 S.o2    
  22 O22            4.3923    -0.3648    -0.2063 O.2     
  23 O23            3.2379    -1.8943    -1.7710 O.2     
  24 C24            4.4691     0.2349    -2.8050 C.3     
  25 C25            5.7617    -0.3850    -3.3397 C.3     
  26 C26            4.4684    -0.4949    -4.1497 C.3     
  27 N27            1.1856     7.8851    -2.7751 N.2     
  28 C28            0.3480     6.8955    -2.9776 C.2     
  29 C29           -0.1880     7.0362    -4.2677 C.2     
  30 C30            0.3575     8.1408    -4.8255 C.2     
  31 N31            1.2068     8.6819    -3.9270 N.pl3   
  32 C32           -1.1929     6.1190    -4.9157 C.3     
  33 C33           -2.6054     6.5346    -4.4997 C.3     
  34 O34           -3.5583     5.6649    -5.1142 O.3     
  35 H35           -1.1510     2.2334    -0.6781 H       
  36 H36           -1.1714    -0.1084    -1.3646 H       
  37 H37            0.9314    -1.3403    -1.6842 H       
  38 H38            4.3307     2.3798    -0.5156 H       
  39 H39           -0.6321     4.3399    -0.0434 H       
  40 H40            0.5095     4.3147     2.2002 H       
  41 H41            1.5684     5.6276     1.6317 H       
  42 H42           -0.5928     5.1837    -2.3071 H       
  43 H43           -0.4895     6.9999     1.1511 H       
  44 H44           -2.9684     7.3427     1.6059 H       
  45 H45           -3.9006     6.0355     2.3748 H       
  46 H46           -2.0973     5.1495     0.8912 H       
  47 H47           -1.8536     4.6763     2.5909 H       
  48 H48           -0.1691     5.9577     4.0042 H       
  49 H49            0.7348     7.3039     3.2672 H       
  50 H50           -1.1696     8.1130     4.6660 H       
  51 H51           -1.3602     8.5660     2.9551 H       
  52 H52            4.3876     1.3217    -2.8218 H       
  53 H53            6.5304     0.2940    -3.7087 H       
  54 H54            6.1271    -1.2876    -2.8500 H       
  55 H55            3.9829    -1.4699    -4.1929 H       
  56 H56            4.3862     0.1117    -5.0515 H       
  57 H57            0.1507     8.5219    -5.8147 H       
  58 H58            1.7385     9.4829    -4.0560 H       
  59 H59           -1.0992     6.1851    -5.9997 H       
  60 H60           -1.0073     5.0933    -4.5969 H       
  61 H61           -2.6992     6.4685    -3.4158 H       
  62 H62           -2.7910     7.5603    -4.8186 H       
  63 H63           -4.4773     5.8702    -4.8943 H       
@<TRIPOS>BOND
   1    1    2 ar
   2    1    6 ar
   3    1   35 1
   4    2    3 ar
   5    2   36 1
   6    3    4 ar
   7    3   37 1
   8    4    5 ar
   9    4   21 1
  10    5    7 1
  11    5    6 ar
  12    6    9 1
  13    7    8 2
  14    7   38 1
  15    8    9 1
  16    9   10 1
  17   10   11 1
  18   10   12 1
  19   10   39 1
  20   11   15 1
  21   11   40 1
  22   11   41 1
  23   12   13 am
  24   12   14 2
  25   13   28 1
  26   13   42 1
  27   15   18 1
  28   15   17 1
  29   15   43 1
  30   16   17 1
  31   16   20 1
  32   16   44 1
  33   16   45 1
  34   17   46 1
  35   17   47 1
  36   18   19 1
  37   18   48 1
  38   18   49 1
  39   19   20 1
  40   19   50 1
  41   19   51 1
  42   21   22 2
  43   21   23 2
  44   21   24 1
  45   24   25 1
  46   24   26 1
  47   24   52 1
  48   25   26 1
  49   25   53 1
  50   25   54 1
  51   26   55 1
  52   26   56 1
  53   27   31 1
  54   27   28 2
  55   28   29 1
  56   29   30 2
  57   29   32 1
  58   30   31 1
  59   30   57 1
  60   31   58 1
  61   32   33 1
  62   32   59 1
  63   32   60 1
  64   33   34 1
  65   33   61 1
  66   33   62 1
  67   34   63 1

#	End of record

