#	Name: ASD01230742
#	Creating user name:	WinNT
#	Creation time:	15. 06. 2019 19:15

#	Modifying user name:	WinNT
#	Modification time:	15. 06. 2019 19:15

#	Program:	/corina/corina34_cracker 3.40 0067  02.08.2006

@<TRIPOS>MOLECULE
ASD01230742
  42   44    0    0    0
SMALL
NO_CHARGES


@<TRIPOS>ATOM
   1 C1            -0.0157     1.3098     0.0092 C.2     
   2 N2            -0.0643     0.1010    -0.5036 N.2     
   3 C3            -1.1988    -0.5965    -0.5013 C.2     
   4 C4            -2.3398    -0.0960     0.0078 C.2     
   5 N5            -2.3899     1.1661     0.5528 N.pl3   
   6 C6            -1.2396     1.9015     0.6015 C.2     
   7 C7            -3.6875     1.6316     1.0404 C.3     
   8 C8            -3.5099     2.5102     2.2829 C.3     
   9 S9            -2.4015     3.8785     1.8209 S.o2    
  10 N10           -1.1209     3.0913     1.1282 N.am    
  11 C11            1.2515     2.0721     0.0012 C.ar    
  12 C12            2.4726     1.4011     0.0913 C.ar    
  13 O13           -2.9649     4.6506     0.7694 O.2     
  14 O14           -1.8531     4.4956     2.9775 O.2     
  15 C15            1.2302     3.4644    -0.1022 C.ar    
  16 C16            2.4133     4.1712    -0.1098 C.ar    
  17 C17            3.6258     3.5003    -0.0147 C.ar    
  18 C18            3.6514     2.1150     0.0830 C.ar    
  19 O19            4.7898     4.2004    -0.0230 O.3     
  20 C20            6.0003     3.4478     0.0781 C.3     
  21 C21            7.1971     4.4007     0.0523 C.3     
  22 C22            8.4931     3.5948     0.1605 C.3     
  23 C23            9.6899     4.5478     0.1347 C.3     
  24 H24           -1.2035    -1.5919    -0.9203 H       
  25 H25           -3.2359    -0.6985    -0.0121 H       
  26 H26           -4.1794     2.2098     0.2583 H       
  27 H27           -4.3064     0.7709     1.2939 H       
  28 H28           -4.4753     2.9052     2.5993 H       
  29 H29           -3.0641     1.9274     3.0890 H       
  30 H30            2.4933     0.3240     0.1677 H       
  31 H31            0.2878     3.9867    -0.1765 H       
  32 H32            2.3976     5.2481    -0.1901 H       
  33 H33            4.5962     1.5969     0.1568 H       
  34 H34            6.0025     2.8869     1.0127 H       
  35 H35            6.0689     2.7556    -0.7612 H       
  36 H36            7.1949     4.9615    -0.8824 H       
  37 H37            7.1285     5.0929     0.8915 H       
  38 H38            8.4953     3.0340     1.0951 H       
  39 H39            8.5617     2.9027    -0.6787 H       
  40 H40            9.6877     5.1086    -0.7999 H       
  41 H41            9.6213     5.2400     0.9739 H       
  42 H42           10.6132     3.9737     0.2118 H       
@<TRIPOS>BOND
   1    1    2 2
   2    1   11 1
   3    1    6 1
   4    2    3 1
   5    3    4 2
   6    3   24 1
   7    4    5 1
   8    4   25 1
   9    5    6 1
  10    5    7 1
  11    6   10 2
  12    7    8 1
  13    7   26 1
  14    7   27 1
  15    8    9 1
  16    8   28 1
  17    8   29 1
  18    9   10 am
  19    9   13 2
  20    9   14 2
  21   11   12 ar
  22   11   15 ar
  23   12   18 ar
  24   12   30 1
  25   15   16 ar
  26   15   31 1
  27   16   17 ar
  28   16   32 1
  29   17   18 ar
  30   17   19 1
  31   18   33 1
  32   19   20 1
  33   20   21 1
  34   20   34 1
  35   20   35 1
  36   21   22 1
  37   21   36 1
  38   21   37 1
  39   22   23 1
  40   22   38 1
  41   22   39 1
  42   23   40 1
  43   23   41 1
  44   23   42 1

#	End of record

