#	Name: ASD01001086
#	Creating user name:	WinNT
#	Creation time:	15. 06. 2019 18:55

#	Modifying user name:	WinNT
#	Modification time:	15. 06. 2019 18:55

#	Program:	/corina/corina34_cracker 3.40 0067  02.08.2006

@<TRIPOS>MOLECULE
ASD01001086
  35   37    0    0    0
SMALL
NO_CHARGES


@<TRIPOS>ATOM
   1 C1            -0.0166     1.3750     0.0096 C.ar    
   2 C2             0.0021    -0.0041     0.0020 C.ar    
   3 C3             1.1853     2.0867     0.0019 C.ar    
   4 C4             1.2077    -0.6835    -0.0127 C.ar    
   5 C5             2.3994     1.3945    -0.0134 C.ar    
   6 C6             1.1732     3.5615     0.0095 C.2     
   7 C7             2.4023     0.0137    -0.0199 C.ar    
   8 N8             2.2189     4.3132     0.0031 N.2     
   9 N9             1.9391     5.6782     0.0122 N.pl3   
  10 C10            0.4794     5.8644     0.0270 C.3     
  11 C11           -0.0688     4.4237     0.0194 C.3     
  12 C12            2.9353     6.7523     0.0082 C.3     
  13 C13            0.0505     6.5938     1.2741 C.ar    
  14 C14            0.6666     6.3196     2.4809 C.ar    
  15 C15            0.2749     6.9868     3.6271 C.ar    
  16 C16           -0.7333     7.9292     3.5687 C.ar    
  17 C17           -1.3529     8.2064     2.3586 C.ar    
  18 C18           -0.9544     7.5399     1.2092 C.ar    
  19 Cl19           3.8995     2.2682    -0.0224 Cl      
  20 O20           -2.3454     9.1328     2.2986 O.3     
  21 H21           -0.9585     1.9034     0.0169 H       
  22 H22           -0.9267    -0.5553     0.0079 H       
  23 H23            1.2158    -1.7635    -0.0182 H       
  24 H24            3.3394    -0.5231    -0.0306 H       
  25 H25            0.1520     6.4004    -0.8639 H       
  26 H26           -0.6698     4.2480    -0.8728 H       
  27 H27           -0.6536     4.2323     0.9192 H       
  28 H28            3.9358     6.3200    -0.0036 H       
  29 H29            2.7971     7.3727    -0.8774 H       
  30 H30            2.8141     7.3636     0.9025 H       
  31 H31            1.4548     5.5829     2.5287 H       
  32 H32            0.7575     6.7707     4.5688 H       
  33 H33           -1.0393     8.4495     4.4643 H       
  34 H34           -1.4351     7.7539     0.2661 H       
  35 H35           -2.0349    10.0309     2.1195 H       
@<TRIPOS>BOND
   1    1    2 ar
   2    1    3 ar
   3    1   21 1
   4    2    4 ar
   5    2   22 1
   6    3    6 1
   7    3    5 ar
   8    4    7 ar
   9    4   23 1
  10    5   19 1
  11    5    7 ar
  12    6    8 2
  13    6   11 1
  14    7   24 1
  15    8    9 1
  16    9   10 1
  17    9   12 1
  18   10   11 1
  19   10   13 1
  20   10   25 1
  21   11   26 1
  22   11   27 1
  23   12   28 1
  24   12   29 1
  25   12   30 1
  26   13   14 ar
  27   13   18 ar
  28   14   15 ar
  29   14   31 1
  30   15   16 ar
  31   15   32 1
  32   16   17 ar
  33   16   33 1
  34   17   18 ar
  35   17   20 1
  36   18   34 1
  37   20   35 1

#	End of record

