#	Name: ASD08710057
#	Creating user name:	WinNT
#	Creation time:	15. 06. 2019 21:19

#	Modifying user name:	WinNT
#	Modification time:	15. 06. 2019 21:19

#	Program:	/corina/corina34_cracker 3.40 0067  02.08.2006

@<TRIPOS>MOLECULE
ASD08710057
  50   52    0    0    0
SMALL
NO_CHARGES


@<TRIPOS>ATOM
   1 C1            -0.8014     1.4140    -2.9603 C.ar    
   2 C2            -0.3125     0.3407    -2.2451 C.ar    
   3 C3             0.0837     2.2809    -3.6047 C.ar    
   4 C4             1.4587     2.0543    -3.5200 C.ar    
   5 C5             1.9340     0.9768    -2.8012 C.ar    
   6 C6             1.0516     0.1220    -2.1653 C.ar    
   7 S7             1.6674    -1.2512    -1.2490 S.o2    
   8 O8             2.7248    -0.7528    -0.4410 O.2     
   9 O9             0.5322    -1.9205    -0.7174 O.2     
  10 N10            2.3594    -2.2937    -2.3338 N.am    
  11 C11            3.8204    -2.4346    -2.4083 C.3     
  12 C12            1.5233    -3.0991    -3.2349 C.3     
  13 C13            1.8877    -4.5775    -3.0511 C.3     
  14 N14            3.3488    -4.7142    -3.1295 N.am    
  15 C15            4.1799    -3.9144    -2.2262 C.3     
  16 C16            3.9120    -5.5634    -4.0117 C.2     
  17 C17            3.0669    -6.2806    -4.9900 C.ar    
  18 O18            5.1146    -5.7394    -4.0031 O.2     
  19 C19            3.4235    -6.3240    -6.3386 C.ar    
  20 N20            2.6710    -6.9628    -7.2099 N.ar    
  21 C21            1.5621    -7.5819    -6.8515 C.ar    
  22 C22            1.1401    -7.5853    -5.5344 C.ar    
  23 C23            1.8986    -6.9326    -4.5783 C.ar    
  24 C24            3.4179     0.7303    -2.7090 C.3     
  25 C25           -0.4168     3.3969    -4.3494 C.1     
  26 N26           -0.8139     4.2823    -4.9401 N.1     
  27 C27            0.7419    -8.2964    -7.8945 C.3     
  28 C28            0.0473    -2.8875    -2.8920 C.3     
  29 H29           -1.8664     1.5809    -3.0255 H       
  30 H30           -0.9958    -0.3303    -1.7459 H       
  31 H31            2.1487     2.7207    -4.0163 H       
  32 H32            4.1720    -2.0897    -3.3807 H       
  33 H33            4.2855    -1.8452    -1.6182 H       
  34 H34            1.7076    -2.8026    -4.2675 H       
  35 H35            1.5398    -4.9216    -2.0771 H       
  36 H36            1.4220    -5.1697    -3.8388 H       
  37 H37            5.2320    -4.0630    -2.4693 H       
  38 H38            3.9941    -4.2155    -1.1952 H       
  39 H39            4.3243    -5.8291    -6.6704 H       
  40 H40            0.2303    -8.0955    -5.2542 H       
  41 H41            1.5925    -6.9195    -3.5426 H       
  42 H42            3.8303     1.3025    -1.8780 H       
  43 H43            3.6002    -0.3317    -2.5449 H       
  44 H44            3.8963     1.0419    -3.6375 H       
  45 H45            1.0794    -9.3296    -7.9770 H       
  46 H46           -0.3088    -8.2794    -7.6048 H       
  47 H47            0.8619    -7.7971    -8.8559 H       
  48 H48           -0.1685    -1.8196    -2.8584 H       
  49 H49           -0.5739    -3.3600    -3.6529 H       
  50 H50           -0.1673    -3.3323    -1.9202 H       
@<TRIPOS>BOND
   1    1    2 ar
   2    1    3 ar
   3    1   29 1
   4    2    6 ar
   5    2   30 1
   6    3    4 ar
   7    3   25 1
   8    4    5 ar
   9    4   31 1
  10    5    6 ar
  11    5   24 1
  12    6    7 1
  13    7    8 2
  14    7    9 2
  15    7   10 am
  16   10   11 1
  17   10   12 1
  18   11   15 1
  19   11   32 1
  20   11   33 1
  21   12   13 1
  22   12   28 1
  23   12   34 1
  24   13   14 1
  25   13   35 1
  26   13   36 1
  27   14   15 1
  28   14   16 am
  29   15   37 1
  30   15   38 1
  31   16   17 1
  32   16   18 2
  33   17   19 ar
  34   17   23 ar
  35   19   20 ar
  36   19   39 1
  37   20   21 ar
  38   21   22 ar
  39   21   27 1
  40   22   23 ar
  41   22   40 1
  42   23   41 1
  43   24   42 1
  44   24   43 1
  45   24   44 1
  46   25   26 3
  47   27   45 1
  48   27   46 1
  49   27   47 1
  50   28   48 1
  51   28   49 1
  52   28   50 1

#	End of record

