#	Name: ASD05380286
#	Creating user name:	WinNT
#	Creation time:	15. 06. 2019 20:59

#	Modifying user name:	WinNT
#	Modification time:	15. 06. 2019 20:59

#	Program:	/corina/corina34_cracker 3.40 0067  02.08.2006

@<TRIPOS>MOLECULE
ASD05380286
  50   52    0    0    0
SMALL
NO_CHARGES


@<TRIPOS>ATOM
   1 C1            -0.0171     1.4106     0.0098 C.ar    
   2 C2             0.0021    -0.0041     0.0020 C.ar    
   3 N3            -1.1909    -0.6598     0.0218 N.2     
   4 O4            -2.3669     1.2875    -0.4576 O.3     
   5 C5            -1.3446     2.0539     0.0198 C.2     
   6 C6             1.1714     2.1289     0.0023 C.ar    
   7 C7             2.3736     1.4458    -0.0179 C.ar    
   8 C8             2.3958     0.0596    -0.0310 C.ar    
   9 C9             1.2235    -0.6691    -0.0208 C.ar    
  10 N10           -1.5291     3.2792     0.4573 N.2     
  11 Cl11           1.1481     3.8647     0.0175 Cl      
  12 C12           -2.3057    -0.0286    -0.1903 C.2     
  13 C13           -3.5933    -0.8096    -0.1351 C.3     
  14 C14           -4.0737    -0.8992     1.3147 C.3     
  15 C15           -2.7815     3.8288     0.4441 C.ar    
  16 C16           -3.2513     4.5300     1.5570 C.ar    
  17 C17           -3.5936     3.6959    -0.6845 C.ar    
  18 C18           -4.8577     4.2537    -0.6921 C.ar    
  19 C19           -5.3201     4.9437     0.4170 C.ar    
  20 C20           -4.5171     5.0833     1.5375 C.ar    
  21 F21           -5.6441     4.1264    -1.7831 F       
  22 F22           -4.9748     5.7575     2.6151 F       
  23 N23           -4.6096    -0.1335    -0.9454 N.am    
  24 O24           -6.5691    -0.2159    -2.2092 O.3     
  25 C25           -7.6450    -1.0363    -2.7361 C.3     
  26 C26           -8.4066    -1.6839    -1.5779 C.3     
  27 C27           -8.6013    -0.1621    -3.5498 C.3     
  28 C28           -7.0608    -2.1272    -3.6357 C.3     
  29 C29           -5.6352    -0.8372    -1.4645 C.2     
  30 O30           -5.7169    -2.0322    -1.2606 O.2     
  31 H31            3.3026     1.9965    -0.0238 H       
  32 H32            3.3438    -0.4575    -0.0494 H       
  33 H33            1.2545    -1.7486    -0.0316 H       
  34 H34           -3.4263    -1.8135    -0.5253 H       
  35 H35           -5.0051    -1.4641     1.3546 H       
  36 H36           -3.3176    -1.4022     1.9176 H       
  37 H37           -4.2407     0.1048     1.7049 H       
  38 H38           -2.6264     4.6392     2.4310 H       
  39 H39           -3.2340     3.1587    -1.5496 H       
  40 H40           -6.3089     5.3780     0.4064 H       
  41 H41           -4.5443     0.8205    -1.1082 H       
  42 H42           -8.8228    -0.9067    -0.9370 H       
  43 H43           -9.2143    -2.2998    -1.9735 H       
  44 H44           -7.7253    -2.3067    -0.9982 H       
  45 H45           -8.0588     0.2994    -4.3749 H       
  46 H46           -9.4090    -0.7779    -3.9454 H       
  47 H47           -9.0175     0.6152    -2.9089 H       
  48 H48           -6.3795    -2.7500    -3.0560 H       
  49 H49           -7.8685    -2.7431    -4.0313 H       
  50 H50           -6.5183    -1.6658    -4.4608 H       
@<TRIPOS>BOND
   1    1    2 ar
   2    1    6 ar
   3    1    5 1
   4    2    3 1
   5    2    9 ar
   6    3   12 2
   7    4    5 1
   8    4   12 1
   9    5   10 2
  10    6    7 ar
  11    6   11 1
  12    7    8 ar
  13    7   31 1
  14    8    9 ar
  15    8   32 1
  16    9   33 1
  17   10   15 1
  18   12   13 1
  19   13   14 1
  20   13   23 1
  21   13   34 1
  22   14   35 1
  23   14   36 1
  24   14   37 1
  25   15   16 ar
  26   15   17 ar
  27   16   20 ar
  28   16   38 1
  29   17   18 ar
  30   17   39 1
  31   18   19 ar
  32   18   21 1
  33   19   20 ar
  34   19   40 1
  35   20   22 1
  36   23   29 am
  37   23   41 1
  38   24   25 1
  39   24   29 1
  40   25   26 1
  41   25   27 1
  42   25   28 1
  43   26   42 1
  44   26   43 1
  45   26   44 1
  46   27   45 1
  47   27   46 1
  48   27   47 1
  49   28   48 1
  50   28   49 1
  51   28   50 1
  52   29   30 2

#	End of record

