#	Name: ASD01148240
#	Creating user name:	WinNT
#	Creation time:	15. 06. 2019 19:02

#	Modifying user name:	WinNT
#	Modification time:	15. 06. 2019 19:02

#	Program:	/corina/corina34_cracker 3.40 0067  02.08.2006

@<TRIPOS>MOLECULE
ASD01148240
  55   58    0    0    0
SMALL
NO_CHARGES


@<TRIPOS>ATOM
   1 C1            -0.1536     2.6549    -0.6692 C.ar    
   2 C2             0.3297     1.3609    -0.7431 C.ar    
   3 C3            -0.5271     0.2913    -0.5546 C.ar    
   4 C4            -1.8669     0.5164    -0.2923 C.ar    
   5 C5            -2.3492     1.8096    -0.2186 C.ar    
   6 C6            -1.4925     2.8788    -0.4016 C.ar    
   7 C7            -3.8085     2.0541     0.0671 C.3     
   8 O8            -4.3505     1.0163     0.9090 O.3     
   9 C9            -3.9968     3.3088     0.9530 C.3     
  10 C10           -4.0401     2.7218     2.3510 C.2     
  11 N11           -4.2348     1.4496     2.2499 N.2     
  12 C12           -3.8861     3.4756     3.6107 C.ar    
  13 C13           -3.9472     2.8078     4.8365 C.ar    
  14 C14           -3.6736     4.8563     3.5771 C.ar    
  15 C15           -3.5295     5.5592     4.7516 C.ar    
  16 C16           -3.5958     4.8922     5.9777 C.ar    
  17 C17           -3.8031     3.5107     6.0111 C.ar    
  18 C18           -3.4413     5.6465     7.2382 C.2     
  19 O19           -2.4366     6.3010     7.4353 O.2     
  20 N20           -4.4146     5.6089     8.1697 N.am    
  21 C21           -4.6053     2.1763    -1.2333 C.3     
  22 F22           -4.4696     0.9983    -1.9757 F       
  23 F23           -5.9558     2.3864    -0.9348 F       
  24 F24           -4.1190     3.2558    -1.9785 F       
  25 Cl25           0.0783    -1.3330    -0.6478 Cl      
  26 Cl26           0.9210     3.9978    -0.9049 Cl      
  27 C27           -4.2052     6.2427     9.4738 C.3     
  28 C28           -4.6648     7.6767     9.4149 C.ar    
  29 N29           -3.8431     8.6066     8.9693 N.ar    
  30 C30           -5.5804     4.9882     7.9015 C.2     
  31 C31           -4.2018     9.8738     8.9000 C.ar    
  32 C32           -5.4636    10.2739     9.2966 C.ar    
  33 C33           -6.3557     9.3241     9.7710 C.ar    
  34 C34           -5.9449     8.0011     9.8235 C.ar    
  35 O35           -5.7966     4.5572     6.7866 O.2     
  36 O36           -6.5052     4.8458     8.8691 O.3     
  37 C37           -7.7372     4.1671     8.5087 C.3     
  38 H38            1.3754     1.1857    -0.9482 H       
  39 H39           -2.5360    -0.3185    -0.1455 H       
  40 H40           -1.8699     3.8891    -0.3439 H       
  41 H41           -3.1521     3.9890     0.8449 H       
  42 H42           -4.9337     3.8128     0.7158 H       
  43 H43           -4.1077     1.7401     4.8623 H       
  44 H44           -3.6220     5.3718     2.6294 H       
  45 H45           -3.3649     6.6263     4.7257 H       
  46 H46           -3.8544     2.9951     6.9587 H       
  47 H47           -4.7767     5.7089    10.2331 H       
  48 H48           -3.1456     6.2109     9.7274 H       
  49 H49           -3.5011    10.6074     8.5294 H       
  50 H50           -5.7512    11.3133     9.2381 H       
  51 H51           -7.3483     9.6078    10.0882 H       
  52 H52           -6.6136     7.2349    10.1870 H       
  53 H53           -8.2332     4.7154     7.7079 H       
  54 H54           -7.5095     3.1563     8.1701 H       
  55 H55           -8.3936     4.1200     9.3776 H       
@<TRIPOS>BOND
   1    1    2 ar
   2    1   26 1
   3    1    6 ar
   4    2    3 ar
   5    2   38 1
   6    3    4 ar
   7    3   25 1
   8    4    5 ar
   9    4   39 1
  10    5    6 ar
  11    5    7 1
  12    6   40 1
  13    7    8 1
  14    7    9 1
  15    7   21 1
  16    8   11 1
  17    9   10 1
  18    9   41 1
  19    9   42 1
  20   10   11 2
  21   10   12 1
  22   12   13 ar
  23   12   14 ar
  24   13   17 ar
  25   13   43 1
  26   14   15 ar
  27   14   44 1
  28   15   16 ar
  29   15   45 1
  30   16   17 ar
  31   16   18 1
  32   17   46 1
  33   18   19 2
  34   18   20 am
  35   20   27 1
  36   20   30 am
  37   21   22 1
  38   21   23 1
  39   21   24 1
  40   27   28 1
  41   27   47 1
  42   27   48 1
  43   28   29 ar
  44   28   34 ar
  45   29   31 ar
  46   30   35 2
  47   30   36 1
  48   31   32 ar
  49   31   49 1
  50   32   33 ar
  51   32   50 1
  52   33   34 ar
  53   33   51 1
  54   34   52 1
  55   36   37 1
  56   37   53 1
  57   37   54 1
  58   37   55 1

#	End of record

