#	Name: ASD03331232
#	Creating user name:	WinNT
#	Creation time:	15. 06. 2019 20:38

#	Modifying user name:	WinNT
#	Modification time:	15. 06. 2019 20:38

#	Program:	/corina/corina34_cracker 3.40 0067  02.08.2006

@<TRIPOS>MOLECULE
ASD03331232
  52   55    0    0    0
SMALL
NO_CHARGES


@<TRIPOS>ATOM
   1 N1            -0.0459     1.4956     0.5699 N.am    
   2 C2             0.0019     0.1506     1.1633 C.3     
   3 C3             0.5966    -0.8151     0.1328 C.3     
   4 N4             1.8894    -0.2950    -0.3321 N.3     
   5 C5             1.7287     0.9910    -1.0237 C.3     
   6 C6             1.1805     2.0309    -0.0406 C.3     
   7 C7            -1.1849     2.2161     0.5803 C.2     
   8 O8            -2.2139     1.7207     0.9975 O.2     
   9 N9            -1.1831     3.4859     0.1284 N.am    
  10 C10           -2.3869     4.1973     0.0328 C.ar    
  11 C11           -2.4019     5.5688     0.2481 C.ar    
  12 C12           -3.5883     6.2693     0.1533 C.ar    
  13 C13           -4.7647     5.6030    -0.1569 C.ar    
  14 C14           -4.7504     4.2326    -0.3716 C.ar    
  15 C15           -3.5637     3.5318    -0.2828 C.ar    
  16 C16            2.5723    -1.2724    -1.1901 C.3     
  17 C17            3.7648    -0.6216    -1.8424 C.ar    
  18 C18            5.0074    -0.6544    -1.2140 C.ar    
  19 N19            6.0670    -0.0997    -1.7511 N.ar    
  20 C20            6.0017     0.5248    -2.9309 C.ar    
  21 C21            4.7677     0.5949    -3.6243 C.ar    
  22 C22            3.6293    -0.0039    -3.0534 C.ar    
  23 C23            4.7044     1.2529    -4.8633 C.ar    
  24 C24            7.1411     1.1184    -3.5020 C.ar    
  25 C25            7.0437     1.7476    -4.7045 C.ar    
  26 C26            5.8290     1.8160    -5.3843 C.ar    
  27 O27           -5.9324     6.2933    -0.2501 O.3     
  28 C28           -7.1053     5.5435    -0.5729 C.3     
  29 H29            0.6285     0.1660     2.0550 H       
  30 H30           -1.0062    -0.1697     1.4262 H       
  31 H31            0.7419    -1.7929     0.5921 H       
  32 H32           -0.0838    -0.9080    -0.7137 H       
  33 H33            2.6951     1.3232    -1.4030 H       
  34 H34            1.0326     0.8730    -1.8541 H       
  35 H35            0.9515     2.9537    -0.5736 H       
  36 H36            1.9203     2.2269     0.7354 H       
  37 H37           -0.3488     3.9073    -0.1307 H       
  38 H38           -1.4861     6.0877     0.4900 H       
  39 H39           -3.6002     7.3361     0.3211 H       
  40 H40           -5.6667     3.7143    -0.6124 H       
  41 H41           -3.5519     2.4657    -0.4548 H       
  42 H42            2.9043    -2.1168    -0.5861 H       
  43 H43            1.8844    -1.6241    -1.9591 H       
  44 H44            5.1004    -1.1495    -0.2587 H       
  45 H45            2.6735     0.0306    -3.5550 H       
  46 H46            3.7690     1.3115    -5.4000 H       
  47 H47            8.0900     1.0754    -2.9880 H       
  48 H48            7.9218     2.2023    -5.1388 H       
  49 H49            5.7796     2.3210    -6.3376 H       
  50 H50           -7.2736     4.7851     0.1917 H       
  51 H51           -7.9643     6.2132    -0.6157 H       
  52 H52           -6.9727     5.0603    -1.5409 H       
@<TRIPOS>BOND
   1    1    2 1
   2    1    6 1
   3    1    7 am
   4    2    3 1
   5    2   29 1
   6    2   30 1
   7    3    4 1
   8    3   31 1
   9    3   32 1
  10    4    5 1
  11    4   16 1
  12    5    6 1
  13    5   33 1
  14    5   34 1
  15    6   35 1
  16    6   36 1
  17    7    8 2
  18    7    9 am
  19    9   10 1
  20    9   37 1
  21   10   11 ar
  22   10   15 ar
  23   11   12 ar
  24   11   38 1
  25   12   13 ar
  26   12   39 1
  27   13   14 ar
  28   13   27 1
  29   14   15 ar
  30   14   40 1
  31   15   41 1
  32   16   17 1
  33   16   42 1
  34   16   43 1
  35   17   18 ar
  36   17   22 ar
  37   18   19 ar
  38   18   44 1
  39   19   20 ar
  40   20   21 ar
  41   20   24 ar
  42   21   22 ar
  43   21   23 ar
  44   22   45 1
  45   23   26 ar
  46   23   46 1
  47   24   25 ar
  48   24   47 1
  49   25   26 ar
  50   25   48 1
  51   26   49 1
  52   27   28 1
  53   28   50 1
  54   28   51 1
  55   28   52 1

#	End of record

