#	Name: ASD07300817
#	Creating user name:	WinNT
#	Creation time:	15. 06. 2019 21:10

#	Modifying user name:	WinNT
#	Modification time:	15. 06. 2019 21:10

#	Program:	/corina/corina34_cracker 3.40 0067  02.08.2006

@<TRIPOS>MOLECULE
ASD07300817
  46   49    0    0    0
SMALL
NO_CHARGES


@<TRIPOS>ATOM
   1 C1            -0.0173     1.4132    -0.0100 C.2     
   2 C2             0.0021    -0.0041     0.0020 C.2     
   3 N3             1.1780     2.0870    -0.0172 N.pl3   
   4 N4             1.1570    -0.6390     0.0060 N.2     
   5 C5             2.3159     0.0275    -0.0010 C.2     
   6 C6             2.3488     1.3750    -0.0126 C.2     
   7 N7            -0.9985     2.3007    -0.0112 N.2     
   8 C8            -0.4876     3.5284    -0.0246 C.2     
   9 C9             0.8869     3.4238    -0.0278 C.2     
  10 C10            2.9637     4.5217     0.8115 C.ar    
  11 C11            1.8573     4.5387    -0.0376 C.ar    
  12 C12            1.6799     5.6284    -0.9002 C.ar    
  13 C13            2.6142     6.6458    -0.8728 C.ar    
  14 C14            3.6905     6.5565     0.0018 C.ar    
  15 N15            3.8305     5.5141     0.8045 N.ar    
  16 O16            4.6115     7.5526     0.0327 O.3     
  17 C17            5.6956     7.4056     0.9519 C.3     
  18 C18            6.6237     8.6172     0.8440 C.3     
  19 F19            5.9089     9.7807     1.1482 F       
  20 F20            7.6851     8.4732     1.7439 F       
  21 F21            7.1257     8.7056    -0.4588 F       
  22 N22           -1.1861    -0.7177     0.0100 N.pl3   
  23 C23           -1.1896    -2.1845    -0.1073 C.3     
  24 C24           -2.0522    -2.7579     1.0227 C.3     
  25 O25           -3.3301    -2.1170     1.0109 O.3     
  26 C26           -3.2810    -0.7092     1.2547 C.3     
  27 C27           -2.4810    -0.0313     0.1422 C.3     
  28 C28           -1.2755     4.8130    -0.0310 C.3     
  29 H29            3.2441    -0.5247     0.0026 H       
  30 H30            3.2966     1.8927    -0.0178 H       
  31 H31            3.1089     3.6894     1.4842 H       
  32 H32            0.8340     5.6717    -1.5702 H       
  33 H33            2.5094     7.5009    -1.5242 H       
  34 H34            5.3045     7.3368     1.9670 H       
  35 H35            6.2526     6.4991     0.7149 H       
  36 H36           -1.6072    -2.4747    -1.0714 H       
  37 H37           -0.1709    -2.5622    -0.0194 H       
  38 H38           -2.1812    -3.8300     0.8742 H       
  39 H39           -1.5637    -2.5784     1.9805 H       
  40 H40           -4.2941    -0.3074     1.2730 H       
  41 H41           -2.7971    -0.5223     2.2133 H       
  42 H42           -2.3172     1.0161     0.3953 H       
  43 H43           -3.0310    -0.1010    -0.7963 H       
  44 H44           -1.4592     5.1317     0.9951 H       
  45 H45           -0.7101     5.5835    -0.5551 H       
  46 H46           -2.2273     4.6529    -0.5376 H       
@<TRIPOS>BOND
   1    1    2 1
   2    1    3 1
   3    1    7 2
   4    2    4 2
   5    2   22 1
   6    3    6 1
   7    3    9 1
   8    4    5 1
   9    5    6 2
  10    5   29 1
  11    6   30 1
  12    7    8 1
  13    8    9 2
  14    8   28 1
  15    9   11 1
  16   10   11 ar
  17   10   15 ar
  18   10   31 1
  19   11   12 ar
  20   12   13 ar
  21   12   32 1
  22   13   14 ar
  23   13   33 1
  24   14   15 ar
  25   14   16 1
  26   16   17 1
  27   17   18 1
  28   17   34 1
  29   17   35 1
  30   18   19 1
  31   18   20 1
  32   18   21 1
  33   22   23 1
  34   22   27 1
  35   23   24 1
  36   23   36 1
  37   23   37 1
  38   24   25 1
  39   24   38 1
  40   24   39 1
  41   25   26 1
  42   26   27 1
  43   26   40 1
  44   26   41 1
  45   27   42 1
  46   27   43 1
  47   28   44 1
  48   28   45 1
  49   28   46 1

#	End of record

