#	Name: ASD01901491
#	Creating user name:	WinNT
#	Creation time:	15. 06. 2019 19:53

#	Modifying user name:	WinNT
#	Modification time:	15. 06. 2019 19:53

#	Program:	/corina/corina34_cracker 3.40 0067  02.08.2006

@<TRIPOS>MOLECULE
ASD01901491
  39   42    0    0    0
SMALL
NO_CHARGES


@<TRIPOS>ATOM
   1 C1            -0.0168     1.3898     0.0097 C.ar    
   2 C2             1.1694     2.0936     0.0021 C.ar    
   3 C3             2.3788     1.4171    -0.0130 C.ar    
   4 C4             2.4023     0.0319    -0.0212 C.ar    
   5 C5             1.2205    -0.6803    -0.0137 C.ar    
   6 C6             0.0021    -0.0041     0.0020 C.ar    
   7 C7            -1.2710    -0.7653     0.0106 C.2     
   8 N8            -2.3687    -2.8620     0.0162 N.2     
   9 C9            -1.2531    -2.1769     0.0087 C.2     
  10 N10           -2.4244    -0.1266     0.0255 N.2     
  11 N11           -3.6111    -0.8695     0.0337 N.pl3   
  12 C12           -3.5559    -2.2426     0.0263 C.2     
  13 C13           -4.9282    -0.5192     0.0488 C.2     
  14 C14           -5.6460    -1.6661     0.0504 C.2     
  15 N15           -4.8005    -2.6986     0.0351 N.2     
  16 C16           -7.1499    -1.7617     0.0650 C.3     
  17 O17           -7.7107    -0.4474     0.0771 O.3     
  18 C18           -9.0643    -0.3553     0.0911 C.ar    
  19 C19           -9.6685     0.8951     0.1033 C.ar    
  20 N20           -9.7959    -1.4574     0.0875 N.ar    
  21 C21          -11.1144    -1.4130     0.1007 C.ar    
  22 C22          -11.7817    -0.2042     0.1189 C.ar    
  23 C23          -11.0503     0.9752     0.1176 C.ar    
  24 C24           -1.3313     2.1265     0.0325 C.3     
  25 F25           -1.0931     3.5051     0.0364 F       
  26 F26           -2.0769     1.7853    -1.1010 F       
  27 F27           -2.0440     1.7732     1.1833 F       
  28 F28            3.5383     2.1104    -0.0204 F       
  29 H29            1.1557     3.1735     0.0077 H       
  30 H30            3.3471    -0.4913    -0.0337 H       
  31 H31            1.2398    -1.7601    -0.0201 H       
  32 H32           -0.3072    -2.6982     0.0007 H       
  33 H33           -5.3245     0.4855     0.0584 H       
  34 H34           -7.4888    -2.2931    -0.8243 H       
  35 H35           -7.4710    -2.3019     0.9555 H       
  36 H36           -9.0682     1.7929     0.1021 H       
  37 H37          -11.6789    -2.3337     0.0970 H       
  38 H38          -12.8613    -0.1769     0.1297 H       
  39 H39          -11.5478     1.9337     0.1278 H       
@<TRIPOS>BOND
   1    1    6 ar
   2    1    2 ar
   3    1   24 1
   4    2    3 ar
   5    2   29 1
   6    3    4 ar
   7    3   28 1
   8    4    5 ar
   9    4   30 1
  10    5    6 ar
  11    5   31 1
  12    6    7 1
  13    7   10 2
  14    7    9 1
  15    8    9 2
  16    8   12 1
  17    9   32 1
  18   10   11 1
  19   11   13 1
  20   11   12 1
  21   12   15 2
  22   13   14 2
  23   13   33 1
  24   14   15 1
  25   14   16 1
  26   16   17 1
  27   16   34 1
  28   16   35 1
  29   17   18 1
  30   18   19 ar
  31   18   20 ar
  32   19   23 ar
  33   19   36 1
  34   20   21 ar
  35   21   22 ar
  36   21   37 1
  37   22   23 ar
  38   22   38 1
  39   23   39 1
  40   24   25 1
  41   24   26 1
  42   24   27 1

#	End of record

