#	Name: ASD01890098
#	Creating user name:	WinNT
#	Creation time:	15. 06. 2019 19:50

#	Modifying user name:	WinNT
#	Modification time:	15. 06. 2019 19:50

#	Program:	/corina/corina34_cracker 3.40 0067  02.08.2006

@<TRIPOS>MOLECULE
ASD01890098
  53   55    0    0    0
SMALL
NO_CHARGES


@<TRIPOS>ATOM
   1 C1             1.4693     0.1286    -0.0883 C.2     
   2 C2             0.0044    -0.1631     0.1115 C.3     
   3 C3            -0.5241    -0.9203    -1.0795 C.2     
   4 O4             2.0844    -0.4374    -0.9608 O.2     
   5 O5             2.0894     1.0213     0.6993 O.3     
   6 O6             0.2293    -1.5700    -1.7651 O.2     
   7 O7            -1.8318    -0.8729    -1.3786 O.3     
   8 C8            -0.1801    -1.0063     1.3748 C.3     
   9 C9            -1.6669    -1.3063     1.5751 C.3     
  10 C10           -2.4002    -0.0269     1.8856 C.2     
  11 C11            0.5785    -2.3004     1.2301 C.ar    
  12 C12            1.5812    -2.6178     2.1272 C.ar    
  13 C13            2.2771    -3.8048     1.9944 C.ar    
  14 C14            1.9699    -4.6747     0.9649 C.ar    
  15 C15            0.9666    -4.3577     0.0684 C.ar    
  16 C16            0.2678    -3.1727     0.2037 C.ar    
  17 O17           -1.7913     1.0200     1.9532 O.2     
  18 C18           -3.8512    -0.0476     2.1064 C.ar    
  19 C19           -4.5394     1.1423     2.3961 C.ar    
  20 C20           -5.9101     1.1093     2.6026 C.ar    
  21 C21           -6.5939    -0.0878     2.5236 C.ar    
  22 C22           -5.9197    -1.2644     2.2380 C.ar    
  23 C23           -4.5593    -1.2523     2.0239 C.ar    
  24 O24           -3.8666     2.3170     2.4739 O.3     
  25 C25           -4.6335     3.4853     2.7724 C.3     
  26 C26           -3.7233     4.6856     2.8176 C.ar    
  27 C27           -3.4861     5.4167     1.6687 C.ar    
  28 C28           -2.6512     6.5177     1.7101 C.ar    
  29 C29           -2.0540     6.8878     2.9006 C.ar    
  30 C30           -2.2919     6.1572     4.0497 C.ar    
  31 C31           -3.1302     5.0588     4.0092 C.ar    
  32 H32           -0.5416     0.7744     0.2175 H       
  33 H33            3.0443     1.1204     0.5833 H       
  34 H34           -2.1237    -1.3748    -2.1518 H       
  35 H35            0.1992    -0.4573     2.2367 H       
  36 H36           -2.0744    -1.7471     0.6653 H       
  37 H37           -1.7883    -2.0048     2.4031 H       
  38 H38            1.8212    -1.9382     2.9315 H       
  39 H39            3.0610    -4.0525     2.6948 H       
  40 H40            2.5140    -5.6018     0.8608 H       
  41 H41            0.7268    -5.0371    -0.7361 H       
  42 H42           -0.5186    -2.9267    -0.4945 H       
  43 H43           -6.4437     2.0213     2.8260 H       
  44 H44           -7.6615    -0.1073     2.6857 H       
  45 H45           -6.4646    -2.1950     2.1786 H       
  46 H46           -4.0391    -2.1712     1.7973 H       
  47 H47           -5.3890     3.6311     2.0004 H       
  48 H48           -5.1211     3.3625     3.7395 H       
  49 H49           -3.9527     5.1276     0.7386 H       
  50 H50           -2.4653     7.0885     0.8123 H       
  51 H51           -1.4011     7.7476     2.9328 H       
  52 H52           -1.8251     6.4462     4.9797 H       
  53 H53           -3.3191     4.4902     4.9077 H       
@<TRIPOS>BOND
   1    1    2 1
   2    1    4 2
   3    1    5 1
   4    2    3 1
   5    2    8 1
   6    2   32 1
   7    3    6 2
   8    3    7 1
   9    5   33 1
  10    7   34 1
  11    8    9 1
  12    8   11 1
  13    8   35 1
  14    9   10 1
  15    9   36 1
  16    9   37 1
  17   10   17 2
  18   10   18 1
  19   11   12 ar
  20   11   16 ar
  21   12   13 ar
  22   12   38 1
  23   13   14 ar
  24   13   39 1
  25   14   15 ar
  26   14   40 1
  27   15   16 ar
  28   15   41 1
  29   16   42 1
  30   18   19 ar
  31   18   23 ar
  32   19   20 ar
  33   19   24 1
  34   20   21 ar
  35   20   43 1
  36   21   22 ar
  37   21   44 1
  38   22   23 ar
  39   22   45 1
  40   23   46 1
  41   24   25 1
  42   25   26 1
  43   25   47 1
  44   25   48 1
  45   26   27 ar
  46   26   31 ar
  47   27   28 ar
  48   27   49 1
  49   28   29 ar
  50   28   50 1
  51   29   30 ar
  52   29   51 1
  53   30   31 ar
  54   30   52 1
  55   31   53 1

#	End of record

