#	Name: ASD01810514
#	Creating user name:	WinNT
#	Creation time:	15. 06. 2019 19:24

#	Modifying user name:	WinNT
#	Modification time:	15. 06. 2019 19:24

#	Program:	/corina/corina34_cracker 3.40 0067  02.08.2006

@<TRIPOS>MOLECULE
ASD01810514
  55   59    0    0    0
SMALL
NO_CHARGES


@<TRIPOS>ATOM
   1 C1            -0.0187     1.5258     0.0104 C.3     
   2 C2             0.0021    -0.0041     0.0020 C.3     
   3 C3             0.7182    -0.4975    -1.2568 C.3     
   4 C4             2.1536     0.0321    -1.2676 C.3     
   5 C5             2.1328     1.5619    -1.2592 C.3     
   6 C6             1.4167     2.0553    -0.0004 C.3     
   7 N7             3.5073     2.0690    -1.2696 N.am    
   8 C8             3.9227     2.8625    -2.2840 C.2     
   9 C9             4.3524     1.7441    -0.2595 C.2     
  10 N10            5.5848     2.1575    -0.2028 N.2     
  11 C11            6.1102     2.9457    -1.1558 C.ar    
  12 C12            5.3102     3.3421    -2.2434 C.ar    
  13 C13            5.8343     4.1690    -3.2486 C.ar    
  14 C14            7.4917     3.4135    -1.0994 C.ar    
  15 C15            7.9724     4.2420    -2.1426 C.ar    
  16 C16            7.1159     4.6056    -3.2023 C.ar    
  17 C17            8.3427     3.0639    -0.0454 C.ar    
  18 C18            9.6267     3.5242    -0.0328 C.ar    
  19 C19           10.1021     4.3387    -1.0560 C.ar    
  20 C20            9.2996     4.6970    -2.0973 C.ar    
  21 C21            7.6364     5.4919    -4.3044 C.3     
  22 C22            8.3359     4.6486    -5.3391 C.ar    
  23 C23            9.6918     4.3807    -5.2267 C.ar    
  24 C24            7.6330     4.1279    -6.4088 C.ar    
  25 N25            8.2381     3.3884    -7.3178 N.ar    
  26 C26            9.5265     3.1174    -7.2457 C.ar    
  27 C27           10.2931     3.6000    -6.2017 C.ar    
  28 C28           10.1694     2.2670    -8.3109 C.3     
  29 O29            3.1749     3.1670    -3.1957 O.2     
  30 O30            2.8447    -0.4413    -0.1099 O.3     
  31 H31           -0.5459     1.8868    -0.8726 H       
  32 H32           -0.5289     1.8773     0.9072 H       
  33 H33            0.5293    -0.3651     0.8851 H       
  34 H34           -1.0205    -0.3814     0.0098 H       
  35 H35            0.7330    -1.5874    -1.2628 H       
  36 H36            0.1910    -0.1364    -2.1398 H       
  37 H37            2.6638    -0.3194    -2.1644 H       
  38 H38            1.6057     1.9230    -2.1423 H       
  39 H39            1.4019     3.1452     0.0056 H       
  40 H40            1.9439     1.6943     0.8826 H       
  41 H41            3.9847     1.1126     0.5357 H       
  42 H42            5.2041     4.4628    -4.0750 H       
  43 H43            7.9846     2.4329     0.7546 H       
  44 H44           10.2823     3.2534     0.7816 H       
  45 H45           11.1223     4.6919    -1.0245 H       
  46 H46            9.6830     5.3292    -2.8845 H       
  47 H47            6.8042     6.0209    -4.7689 H       
  48 H48            8.3392     6.2139    -3.8886 H       
  49 H49           10.2658     4.7712    -4.3994 H       
  50 H50            6.5759     4.3286    -6.5014 H       
  51 H51           11.3472     3.3712    -6.1460 H       
  52 H52           10.5327     2.9060    -9.1158 H       
  53 H53           11.0048     1.7151    -7.8801 H       
  54 H54            9.4359     1.5650    -8.7073 H       
  55 H55            2.8966    -1.4050    -0.0495 H       
@<TRIPOS>BOND
   1    1    2 1
   2    1    6 1
   3    1   31 1
   4    1   32 1
   5    2    3 1
   6    2   33 1
   7    2   34 1
   8    3    4 1
   9    3   35 1
  10    3   36 1
  11    4    5 1
  12    4   30 1
  13    4   37 1
  14    5    6 1
  15    5    7 1
  16    5   38 1
  17    6   39 1
  18    6   40 1
  19    7    9 1
  20    7    8 am
  21    8   12 1
  22    8   29 2
  23    9   10 2
  24    9   41 1
  25   10   11 1
  26   11   14 ar
  27   11   12 ar
  28   12   13 ar
  29   13   16 ar
  30   13   42 1
  31   14   15 ar
  32   14   17 ar
  33   15   16 ar
  34   15   20 ar
  35   16   21 1
  36   17   18 ar
  37   17   43 1
  38   18   19 ar
  39   18   44 1
  40   19   20 ar
  41   19   45 1
  42   20   46 1
  43   21   22 1
  44   21   47 1
  45   21   48 1
  46   22   24 ar
  47   22   23 ar
  48   23   27 ar
  49   23   49 1
  50   24   25 ar
  51   24   50 1
  52   25   26 ar
  53   26   27 ar
  54   26   28 1
  55   27   51 1
  56   28   52 1
  57   28   53 1
  58   28   54 1
  59   30   55 1

#	End of record

