#	Name: ASD01911509
#	Creating user name:	WinNT
#	Creation time:	15. 06. 2019 19:57

#	Modifying user name:	WinNT
#	Modification time:	15. 06. 2019 19:57

#	Program:	/corina/corina34_cracker 3.40 0067  02.08.2006

@<TRIPOS>MOLECULE
ASD01911509
  23   23    0    0    0
SMALL
NO_CHARGES


@<TRIPOS>ATOM
   1 O1            -0.0161     1.3379     0.0094 O.3     
   2 C2             0.0021    -0.0041     0.0020 C.2     
   3 N3             1.0877    -0.7210     0.3116 N.am    
   4 C4             2.3740    -0.1130     0.6417 C.3     
   5 C5             2.1709     1.3500     1.0461 C.3     
   6 C6             1.2684     2.0198     0.0008 C.3     
   7 O7            -1.0157    -0.5953    -0.2997 O.2     
   8 C8             1.9065     1.9021    -1.3848 C.3     
   9 C9             1.0726     3.4949     0.3567 C.3     
  10 C10            1.5038     1.4167     2.4214 C.3     
  11 H11            1.0176    -1.6885     0.3175 H       
  12 H12            2.8301    -0.6572     1.4687 H       
  13 H13            3.0305    -0.1606    -0.2270 H       
  14 H14            3.1342     1.8588     1.0797 H       
  15 H15            1.2509     2.3579    -2.1267 H       
  16 H16            2.8686     2.4144    -1.3864 H       
  17 H17            2.0547     0.8500    -1.6283 H       
  18 H18            0.6289     3.5734     1.3492 H       
  19 H19            2.0376     4.0017     0.3490 H       
  20 H20            0.4118     3.9605    -0.3746 H       
  21 H21            2.1384     0.9230     3.1574 H       
  22 H22            1.3609     2.4592     2.7058 H       
  23 H23            0.5368     0.9153     2.3809 H       
@<TRIPOS>BOND
   1    1    2 1
   2    1    6 1
   3    2    3 am
   4    2    7 2
   5    3    4 1
   6    3   11 1
   7    4    5 1
   8    4   12 1
   9    4   13 1
  10    5    6 1
  11    5   10 1
  12    5   14 1
  13    6    8 1
  14    6    9 1
  15    8   15 1
  16    8   16 1
  17    8   17 1
  18    9   18 1
  19    9   19 1
  20    9   20 1
  21   10   21 1
  22   10   22 1
  23   10   23 1

#	End of record

