#	Name: ASD01916259
#	Creating user name:	WinNT
#	Creation time:	15. 06. 2019 20:07

#	Modifying user name:	WinNT
#	Modification time:	15. 06. 2019 20:07

#	Program:	/corina/corina34_cracker 3.40 0067  02.08.2006

@<TRIPOS>MOLECULE
ASD01916259
  34   36    0    0    0
SMALL
NO_CHARGES


@<TRIPOS>ATOM
   1 C1             0.4262     1.2264    -0.4141 C.ar    
   2 C2             0.6390    -0.1379    -0.3266 C.ar    
   3 C3             1.7849    -0.6251     0.2714 C.ar    
   4 C4             2.7315     0.2605     0.7888 C.ar    
   5 C5             2.5152     1.6361     0.6992 C.ar    
   6 C6             1.3629     2.1143     0.0982 C.ar    
   7 O7             1.1491     3.4533     0.0087 O.3     
   8 C8             1.6338     4.1054    -1.0807 C.ar    
   9 C9             1.5438     5.4900    -1.1821 C.ar    
  10 N10            2.0279     6.0877    -2.2583 N.ar    
  11 C11            2.5889     5.3895    -3.2250 C.ar    
  12 N12            2.6927     4.0770    -3.1662 N.ar    
  13 C13            2.2380     3.4062    -2.1206 C.ar    
  14 Cl14          -0.5376    -1.2405    -0.9697 Cl      
  15 C15            3.9588    -0.2570     1.4299 C.2     
  16 N16            4.1652    -1.5862     1.5156 N.am    
  17 O17            4.7818     0.5161     1.8798 O.2     
  18 C18            5.3227    -2.0743     2.1203 C.ar    
  19 C19            5.5298    -3.4485     2.2056 C.ar    
  20 C20            6.6849    -3.9188     2.8092 C.ar    
  21 C21            7.5941    -2.9960     3.3075 C.ar    
  22 C22            7.3233    -1.6471     3.1880 C.ar    
  23 N23            6.2176    -1.2274     2.6034 N.ar    
  24 F24            4.6173    -4.3111     1.7071 F       
  25 H25           -0.4695     1.6021    -0.8863 H       
  26 H26            1.9480    -1.6905     0.3389 H       
  27 H27            3.2441     2.3260     1.0981 H       
  28 H28            1.0851     6.0684    -0.3938 H       
  29 H29            2.9745     5.9077    -4.0906 H       
  30 H30            2.3263     2.3306    -2.0790 H       
  31 H31            3.5084    -2.2031     1.1566 H       
  32 H32            6.8733    -4.9792     2.8906 H       
  33 H33            8.5041    -3.3294     3.7841 H       
  34 H34            8.0281    -0.9260     3.5747 H       
@<TRIPOS>BOND
   1    1    2 ar
   2    1    6 ar
   3    1   25 1
   4    2    3 ar
   5    2   14 1
   6    3    4 ar
   7    3   26 1
   8    4    5 ar
   9    4   15 1
  10    5    6 ar
  11    5   27 1
  12    6    7 1
  13    7    8 1
  14    8    9 ar
  15    8   13 ar
  16    9   10 ar
  17    9   28 1
  18   10   11 ar
  19   11   12 ar
  20   11   29 1
  21   12   13 ar
  22   13   30 1
  23   15   16 am
  24   15   17 2
  25   16   18 1
  26   16   31 1
  27   18   19 ar
  28   18   23 ar
  29   19   20 ar
  30   19   24 1
  31   20   21 ar
  32   20   32 1
  33   21   22 ar
  34   21   33 1
  35   22   23 ar
  36   22   34 1

#	End of record

