#	Name: ASD01884933
#	Creating user name:	WinNT
#	Creation time:	15. 06. 2019 19:49

#	Modifying user name:	WinNT
#	Modification time:	15. 06. 2019 19:49

#	Program:	/corina/corina34_cracker 3.40 0067  02.08.2006

@<TRIPOS>MOLECULE
ASD01884933
  44   48    0    0    0
SMALL
NO_CHARGES


@<TRIPOS>ATOM
   1 C1            -0.0166     1.3739     0.0096 C.ar    
   2 C2             0.0021    -0.0041     0.0020 C.ar    
   3 C3             1.2204    -0.6839    -0.0132 C.ar    
   4 C4             2.4169     0.0336    -0.0208 C.ar    
   5 C5             2.3928     1.4115    -0.0132 C.ar    
   6 C6             1.1773     2.0867     0.0020 C.ar    
   7 C7             1.2434    -2.1650    -0.0209 C.2     
   8 C8             1.7483    -2.8502    -1.1115 C.2     
   9 C9             0.7541    -2.8937     1.0906 C.2     
  10 C10            0.7768    -4.2394     1.0821 C.2     
  11 N11            1.2688    -4.9246     0.0081 N.pl3   
  12 C12            1.7569    -4.2562    -1.0885 C.2     
  13 Cl13           2.3613    -1.9876    -2.4876 Cl      
  14 C14            1.4124    -6.2498    -0.2703 C.2     
  15 N15            1.9477    -6.3468    -1.4599 N.2     
  16 N16            2.1563    -5.1767    -1.9527 N.2     
  17 C17            1.0251    -7.3958     0.6283 C.3     
  18 N18            1.1556     3.4817     0.0097 N.3     
  19 C19           -0.2248     3.9871     0.0256 C.3     
  20 C20           -0.0122    -8.3887     0.0998 C.3     
  21 C21            1.4572    -8.8016     0.2064 C.3     
  22 C22           -0.2019     5.5164     0.0939 C.3     
  23 O23            0.5488     6.0268    -1.0112 O.3     
  24 C24            1.8983     5.5554    -1.0572 C.3     
  25 C25            1.8967     4.0265    -1.1372 C.3     
  26 H26           -0.9594     1.9007     0.0169 H       
  27 H27           -0.9255    -0.5572     0.0082 H       
  28 H28            3.3612    -0.4904    -0.0322 H       
  29 H29            3.3187     1.9674    -0.0186 H       
  30 H30            0.3618    -2.3676     1.9484 H       
  31 H31            0.4013    -4.7844     1.9356 H       
  32 H32            1.0101    -7.1725     1.6951 H       
  33 H33           -0.7386     3.6710    -0.8823 H       
  34 H34           -0.7472     3.5917     0.8967 H       
  35 H35           -0.7093    -8.8188     0.8189 H       
  36 H36           -0.4144    -8.2129    -0.8979 H       
  37 H37            2.0216    -8.8975    -0.7211 H       
  38 H38            1.7267    -9.5034     0.9957 H       
  39 H39           -1.2219     5.8981     0.0483 H       
  40 H40            0.2641     5.8321     1.0273 H       
  41 H41            2.3973     5.9653    -1.9353 H       
  42 H42            2.4254     5.8722    -0.1572 H       
  43 H43            2.9229     3.6598    -1.1149 H       
  44 H44            1.4168     3.7110    -2.0636 H       
@<TRIPOS>BOND
   1    1    2 ar
   2    1    6 ar
   3    1   26 1
   4    2    3 ar
   5    2   27 1
   6    3    4 ar
   7    3    7 1
   8    4    5 ar
   9    4   28 1
  10    5    6 ar
  11    5   29 1
  12    6   18 1
  13    7    8 2
  14    7    9 1
  15    8   13 1
  16    8   12 1
  17    9   10 2
  18    9   30 1
  19   10   11 1
  20   10   31 1
  21   11   12 1
  22   11   14 1
  23   12   16 2
  24   14   15 2
  25   14   17 1
  26   15   16 1
  27   17   20 1
  28   17   21 1
  29   17   32 1
  30   18   19 1
  31   18   25 1
  32   19   22 1
  33   19   33 1
  34   19   34 1
  35   20   21 1
  36   20   35 1
  37   20   36 1
  38   21   37 1
  39   21   38 1
  40   22   23 1
  41   22   39 1
  42   22   40 1
  43   23   24 1
  44   24   25 1
  45   24   41 1
  46   24   42 1
  47   25   43 1
  48   25   44 1

#	End of record

