#	Name: ASD01814394
#	Creating user name:	WinNT
#	Creation time:	15. 06. 2019 19:32

#	Modifying user name:	WinNT
#	Modification time:	15. 06. 2019 19:32

#	Program:	/corina/corina34_cracker 3.40 0067  02.08.2006

@<TRIPOS>MOLECULE
ASD01814394
  54   59    0    0    0
SMALL
NO_CHARGES


@<TRIPOS>ATOM
   1 C1            -0.0167     1.3814     0.0096 C.ar    
   2 C2             0.0021    -0.0041     0.0020 C.ar    
   3 C3             1.1967    -0.6942    -0.0127 C.ar    
   4 C4             2.3998     0.0010    -0.0205 C.ar    
   5 C5             2.3783     1.4090    -0.0132 C.ar    
   6 C6             1.1687     2.0940     0.0021 C.ar    
   7 N7             3.6101    -0.6622    -0.0347 N.pl3   
   8 N8             4.7463    -0.0674    -0.0420 N.2     
   9 C9             4.8856     1.2330    -0.0367 C.2     
  10 C10            3.6811     2.0990    -0.0220 C.2     
  11 C11            6.0165     2.1638    -0.0428 C.2     
  12 N12            5.4830     3.4042    -0.0321 N.am    
  13 N13            4.0877     3.3331    -0.0199 N.2     
  14 C14            3.5961    -2.1271    -0.0414 C.3     
  15 C15            3.5782    -2.6228    -1.4645 C.ar    
  16 C16            4.7683    -2.8611    -2.1271 C.ar    
  17 C17            4.7551    -3.3150    -3.4315 C.ar    
  18 C18            3.5454    -3.5323    -4.0772 C.ar    
  19 C19            2.3522    -3.2926    -3.4091 C.ar    
  20 C20            2.3718    -2.8437    -2.1031 C.ar    
  21 N21            3.5288    -3.9925    -5.4013 N.pl3   
  22 C22            2.4262    -4.2438    -6.1427 C.2     
  23 C23            2.8368    -4.6694    -7.3599 C.2     
  24 C24            4.2360    -4.6789    -7.3636 C.2     
  25 N25            4.6515    -4.2678    -6.1926 N.2     
  26 O26            7.2019     1.8762    -0.0552 O.2     
  27 C27            6.2572     4.6479    -0.0335 C.3     
  28 C28            5.9036     5.4702    -1.2766 C.3     
  29 C29            6.6576     6.8017    -1.2295 C.3     
  30 O30            6.3212     7.4958    -0.0265 O.3     
  31 C31            6.6721     6.7955     1.1687 C.3     
  32 C32            5.9187     5.4637     1.2180 C.3     
  33 F33            1.1511     3.4449     0.0096 F       
  34 H34           -0.9603     1.9067     0.0170 H       
  35 H35           -0.9296    -0.5503     0.0080 H       
  36 H36            1.1968    -1.7742    -0.0178 H       
  37 H37            4.4873    -2.5013     0.4625 H       
  38 H38            2.7075    -2.4844     0.4789 H       
  39 H39            5.7090    -2.6918    -1.6243 H       
  40 H40            5.6849    -3.5002    -3.9488 H       
  41 H41            1.4097    -3.4604    -3.9090 H       
  42 H42            1.4439    -2.6570    -1.5828 H       
  43 H43            1.4019    -4.1265    -5.8210 H       
  44 H44            2.1974    -4.9518    -8.1832 H       
  45 H45            4.8648    -4.9708    -8.1917 H       
  46 H46            7.3219     4.4146    -0.0414 H       
  47 H47            6.1924     4.9195    -2.1719 H       
  48 H48            4.8304     5.6597    -1.2948 H       
  49 H49            7.7309     6.6128    -1.2522 H       
  50 H50            6.3770     7.4090    -2.0901 H       
  51 H51            7.7456     6.6064     1.1774 H       
  52 H52            6.4020     7.3982     2.0358 H       
  53 H53            4.8458     5.6531     1.2502 H       
  54 H54            6.2183     4.9084     2.1068 H       
@<TRIPOS>BOND
   1    1    2 ar
   2    1    6 ar
   3    1   34 1
   4    2    3 ar
   5    2   35 1
   6    3    4 ar
   7    3   36 1
   8    4    5 ar
   9    4    7 1
  10    5    6 ar
  11    5   10 1
  12    6   33 1
  13    7    8 1
  14    7   14 1
  15    8    9 2
  16    9   10 1
  17    9   11 1
  18   10   13 2
  19   11   12 am
  20   11   26 2
  21   12   13 1
  22   12   27 1
  23   14   15 1
  24   14   37 1
  25   14   38 1
  26   15   16 ar
  27   15   20 ar
  28   16   17 ar
  29   16   39 1
  30   17   18 ar
  31   17   40 1
  32   18   19 ar
  33   18   21 1
  34   19   20 ar
  35   19   41 1
  36   20   42 1
  37   21   22 1
  38   21   25 1
  39   22   23 2
  40   22   43 1
  41   23   24 1
  42   23   44 1
  43   24   25 2
  44   24   45 1
  45   27   28 1
  46   27   32 1
  47   27   46 1
  48   28   29 1
  49   28   47 1
  50   28   48 1
  51   29   30 1
  52   29   49 1
  53   29   50 1
  54   30   31 1
  55   31   32 1
  56   31   51 1
  57   31   52 1
  58   32   53 1
  59   32   54 1

#	End of record

