#	Name: ASD01814696
#	Creating user name:	WinNT
#	Creation time:	15. 06. 2019 19:32

#	Modifying user name:	WinNT
#	Modification time:	15. 06. 2019 19:32

#	Program:	/corina/corina34_cracker 3.40 0067  02.08.2006

@<TRIPOS>MOLECULE
ASD01814696
  39   42    0    0    0
SMALL
NO_CHARGES


@<TRIPOS>ATOM
   1 N1             0.0197     1.3263    -0.5520 N.2     
   2 C2             0.0435     0.0253    -0.7216 C.2     
   3 C3             1.2620    -0.6388    -0.9288 C.2     
   4 C4             2.4145     0.0753    -0.9528 C.2     
   5 N5             2.3614     1.4282    -0.7741 N.pl3   
   6 C6             1.1519     2.0420    -0.5738 C.2     
   7 N7             3.3489     2.4184    -0.7466 N.2     
   8 C8             2.7757     3.5868    -0.5397 C.2     
   9 C9             1.4084     3.3997    -0.4246 C.2     
  10 C10            3.0776     5.0569    -0.3828 C.3     
  11 N11            1.8057     5.7533    -0.1665 N.am    
  12 C12            0.7510     4.7347    -0.1862 C.3     
  13 C13            1.6381     7.0776     0.0197 C.2     
  14 C14            2.8140     7.9625     0.1240 C.ar    
  15 C15            2.8858     8.9223     1.1431 C.ar    
  16 C16            3.8648     7.8448    -0.7886 C.ar    
  17 C17            4.9605     8.6746    -0.6857 C.ar    
  18 C18            5.0251     9.6256     0.3192 C.ar    
  19 C19            3.9958     9.7487     1.2316 C.ar    
  20 O20            0.5178     7.5430     0.1017 O.2     
  21 O21            1.8737     9.0424     2.0384 O.3     
  22 Br22           1.2968    -2.5137    -1.1720 Br      
  23 C23            2.0169    10.0426     3.0489 C.3     
  24 C24            0.7865    10.0285     3.9583 C.3     
  25 H25           -0.8785    -0.5367    -0.7012 H       
  26 H26            3.3615    -0.4192    -1.1108 H       
  27 H27            3.7329     5.2099     0.4747 H       
  28 H28            3.5563     5.4342    -1.2864 H       
  29 H29            0.0492     4.9502    -0.9920 H       
  30 H30            0.2259     4.7227     0.7689 H       
  31 H31            3.8189     7.1045    -1.5736 H       
  32 H32            5.7726     8.5826    -1.3917 H       
  33 H33            5.8876    10.2713     0.3926 H       
  34 H34            4.0552    10.4899     2.0149 H       
  35 H35            2.9085     9.8361     3.6408 H       
  36 H36            2.1109    11.0221     2.5800 H       
  37 H37           -0.1052    10.2351     3.3664 H       
  38 H38            0.6925     9.0491     4.4272 H       
  39 H39            0.8957    10.7915     4.7291 H       
@<TRIPOS>BOND
   1    1    2 2
   2    1    6 1
   3    2    3 1
   4    2   25 1
   5    3    4 2
   6    3   22 1
   7    4    5 1
   8    4   26 1
   9    5    7 1
  10    5    6 1
  11    6    9 2
  12    7    8 2
  13    8   10 1
  14    8    9 1
  15    9   12 1
  16   10   11 1
  17   10   27 1
  18   10   28 1
  19   11   12 1
  20   11   13 am
  21   12   29 1
  22   12   30 1
  23   13   14 1
  24   13   20 2
  25   14   16 ar
  26   14   15 ar
  27   15   19 ar
  28   15   21 1
  29   16   17 ar
  30   16   31 1
  31   17   18 ar
  32   17   32 1
  33   18   19 ar
  34   18   33 1
  35   19   34 1
  36   21   23 1
  37   23   24 1
  38   23   35 1
  39   23   36 1
  40   24   37 1
  41   24   38 1
  42   24   39 1

#	End of record

