#	Name: ASD01200409
#	Creating user name:	WinNT
#	Creation time:	15. 06. 2019 19:09

#	Modifying user name:	WinNT
#	Modification time:	15. 06. 2019 19:09

#	Program:	/corina/corina34_cracker 3.40 0067  02.08.2006

@<TRIPOS>MOLECULE
ASD01200409
  61   65    0    0    0
SMALL
NO_CHARGES


@<TRIPOS>ATOM
   1 C1             0.3064     1.0907     1.6212 C.ar    
   2 C2             0.2289    -0.2175     1.1314 C.ar    
   3 C3             1.3050    -0.7579     0.4576 C.ar    
   4 C4             2.4630    -0.0068     0.2655 C.ar    
   5 C5             2.5512     1.2813     0.7428 C.ar    
   6 C6             3.6304    -0.6110    -0.4715 C.3     
   7 C7             3.4496    -0.4346    -1.9955 C.3     
   8 C8             4.2217     0.8799    -2.2545 C.3     
   9 C9             5.2195     0.9538    -1.1198 C.2     
  10 N10            4.8671     0.1056    -0.1383 N.am    
  11 C11           -0.6203     1.9512     2.3526 C.2     
  12 C12            1.4779     1.8465     1.4248 C.ar    
  13 N13            1.2751     3.0803     2.0041 N.pl3   
  14 C14            0.0157     3.1332     2.5583 C.2     
  15 C15            5.6207    -0.0797     1.1042 C.3     
  16 O16            1.2354    -2.0288    -0.0207 O.3     
  17 O17            6.1957     1.6732    -1.0990 O.2     
  18 C18            0.0528    -2.6888     0.0917 C.ar    
  19 C19           -2.1014    -3.2754    -0.7470 C.ar    
  20 C20           -2.2910    -4.0399     0.3893 C.ar    
  21 N21           -1.3590    -4.1134     1.3191 N.ar    
  22 C22           -0.2129    -3.4717     1.2057 C.ar    
  23 C23           -0.9113    -2.5844    -0.9064 C.ar    
  24 S24           -3.8013    -4.9224     0.6010 S.o2    
  25 O25           -3.9356    -5.0543     2.0095 O.2     
  26 O26           -4.7480    -4.1841    -0.1592 O.2     
  27 C27           -3.4924    -6.5383    -0.1631 C.3     
  28 C28           -0.5570     4.2975     3.2619 C.ar    
  29 N29           -1.7924     4.2269     3.7506 N.ar    
  30 C30           -2.3416     5.2394     4.3844 C.ar    
  31 C31           -1.6359     6.4325     4.5648 C.ar    
  32 C32           -0.3309     6.5368     4.0605 C.ar    
  33 C33            0.2073     5.4575     3.4113 C.ar    
  34 C34           -2.2552     7.5669     5.2755 C.2     
  35 O35           -1.6345     8.6003     5.4277 O.2     
  36 O36           -3.5094     7.4573     5.7558 O.3     
  37 C37           -4.0550     8.6134     6.4444 C.3     
  38 H38           -0.6676    -0.8010     1.2801 H       
  39 H39            3.4540     1.8535     0.5881 H       
  40 H40            3.7266    -1.6679    -0.2229 H       
  41 H41            3.8990    -1.2648    -2.5403 H       
  42 H42            2.3962    -0.3254    -2.2533 H       
  43 H43            4.7375     0.8366    -3.2138 H       
  44 H44            3.5440     1.7330    -2.2228 H       
  45 H45           -1.6209     1.6961     2.6690 H       
  46 H46            1.9217     3.8031     2.0184 H       
  47 H47            6.3588    -0.8700     0.9670 H       
  48 H48            6.1275     0.8497     1.3638 H       
  49 H49            4.9366    -0.3568     1.9062 H       
  50 H50           -2.8703    -3.2210    -1.5034 H       
  51 H51            0.5268    -3.5567     1.9880 H       
  52 H52           -0.7362    -1.9793    -1.7837 H       
  53 H53           -2.6609    -7.0272     0.3445 H       
  54 H54           -4.3853    -7.1575    -0.0771 H       
  55 H55           -3.2454    -6.4011    -1.2158 H       
  56 H56           -3.3468     5.1487     4.7687 H       
  57 H57            0.2379     7.4464     4.1847 H       
  58 H58            1.2109     5.5042     3.0152 H       
  59 H59           -5.0683     8.3919     6.7795 H       
  60 H60           -3.4311     8.8510     7.3060 H       
  61 H61           -4.0752     9.4651     5.7645 H       
@<TRIPOS>BOND
   1    1    2 ar
   2    1   12 ar
   3    1   11 1
   4    2    3 ar
   5    2   38 1
   6    3    4 ar
   7    3   16 1
   8    4    5 ar
   9    4    6 1
  10    5   12 ar
  11    5   39 1
  12    6    7 1
  13    6   10 1
  14    6   40 1
  15    7    8 1
  16    7   41 1
  17    7   42 1
  18    8    9 1
  19    8   43 1
  20    8   44 1
  21    9   10 am
  22    9   17 2
  23   10   15 1
  24   11   14 2
  25   11   45 1
  26   12   13 1
  27   13   14 1
  28   13   46 1
  29   14   28 1
  30   15   47 1
  31   15   48 1
  32   15   49 1
  33   16   18 1
  34   18   23 ar
  35   18   22 ar
  36   19   20 ar
  37   19   23 ar
  38   19   50 1
  39   20   21 ar
  40   20   24 1
  41   21   22 ar
  42   22   51 1
  43   23   52 1
  44   24   25 2
  45   24   26 2
  46   24   27 1
  47   27   53 1
  48   27   54 1
  49   27   55 1
  50   28   29 ar
  51   28   33 ar
  52   29   30 ar
  53   30   31 ar
  54   30   56 1
  55   31   32 ar
  56   31   34 1
  57   32   33 ar
  58   32   57 1
  59   33   58 1
  60   34   35 2
  61   34   36 1
  62   36   37 1
  63   37   59 1
  64   37   60 1
  65   37   61 1

#	End of record

