#	Name: ASD03092260
#	Creating user name:	WinNT
#	Creation time:	15. 06. 2019 20:32

#	Modifying user name:	WinNT
#	Modification time:	15. 06. 2019 20:32

#	Program:	/corina/corina34_cracker 3.40 0067  02.08.2006

@<TRIPOS>MOLECULE
ASD03092260
  55   59    0    0    0
SMALL
NO_CHARGES


@<TRIPOS>ATOM
   1 C1            -0.4884     0.7277    -6.6849 C.3     
   2 N2            -0.4140    -0.7002    -6.3659 N.am    
   3 C3            -0.4672    -1.6945    -7.4405 C.3     
   4 C4            -0.2966    -1.0991    -5.0839 C.2     
   5 O5            -0.2526    -0.2759    -4.1943 O.2     
   6 C6            -0.2201    -2.5679    -4.7558 C.3     
   7 C7            -0.0914    -2.7463    -3.2417 C.3     
   8 C8            -0.1373    -4.2140    -2.9031 C.2     
   9 N9             0.8801    -5.0375    -2.9178 N.2     
  10 C10            0.4764    -6.2618    -2.5636 C.2     
  11 N11            1.2921    -7.3906    -2.4698 N.pl3   
  12 C12            0.7712    -8.5912    -1.9736 C.ar    
  13 C13            1.3450    -9.8011    -2.3401 C.ar    
  14 C14            0.8315   -10.9875    -1.8507 C.ar    
  15 C15           -0.2565   -10.9729    -0.9938 C.ar    
  16 O16           -0.9408   -11.9859    -0.3837 O.3     
  17 C17           -1.6813   -11.3620     0.6819 C.3     
  18 F18           -2.9107   -12.0035     0.8673 F       
  19 F19           -0.9393   -11.3723     1.8678 F       
  20 O20           -1.8793   -10.0137     0.2173 O.3     
  21 C21           -0.8343    -9.7604    -0.6237 C.ar    
  22 C22           -0.3162    -8.5721    -1.1100 C.ar    
  23 N23           -0.8127    -6.2282    -2.3182 N.2     
  24 N24           -1.2307    -4.9039    -2.5274 N.pl3   
  25 C25           -2.5308    -4.4001    -2.3771 C.ar    
  26 C26           -2.7352    -3.1861    -1.7361 C.ar    
  27 C27           -4.0158    -2.6900    -1.5864 C.ar    
  28 C28           -5.1006    -3.4022    -2.0758 C.ar    
  29 O29           -6.3562    -2.9012    -1.9122 O.3     
  30 C30           -7.3837    -3.4566    -2.7401 C.3     
  31 C31           -7.2478    -4.9850    -2.7149 C.3     
  32 O32           -5.9501    -5.3278    -3.2132 O.3     
  33 C33           -4.8986    -4.6172    -2.7213 C.ar    
  34 C34           -3.6134    -5.1126    -2.8743 C.ar    
  35 H35           -1.5306     1.0471    -6.6811 H       
  36 H36            0.0684     1.2959    -5.9398 H       
  37 H37           -0.0584     0.9026    -7.6711 H       
  38 H38            0.5433    -1.9063    -7.7899 H       
  39 H39           -0.9214    -2.6114    -7.0649 H       
  40 H40           -1.0632    -1.3056    -8.2662 H       
  41 H41           -1.1248    -3.0658    -5.1047 H       
  42 H42            0.6483    -3.0055    -5.2483 H       
  43 H43            0.8562    -2.3253    -2.9055 H       
  44 H44           -0.9140    -2.2327    -2.7441 H       
  45 H45            2.2200    -7.3430    -2.7485 H       
  46 H46            2.1932    -9.8154    -3.0085 H       
  47 H47            1.2793   -11.9276    -2.1374 H       
  48 H48           -0.7601    -7.6309    -0.8210 H       
  49 H49           -1.8926    -2.6291    -1.3538 H       
  50 H50           -4.1726    -1.7454    -1.0868 H       
  51 H51           -8.3618    -3.1682    -2.3551 H       
  52 H52           -7.2687    -3.0941    -3.7616 H       
  53 H53           -7.3563    -5.3469    -1.6924 H       
  54 H54           -8.0145    -5.4327    -3.3472 H       
  55 H55           -3.4544    -6.0550    -3.3773 H       
@<TRIPOS>BOND
   1    1    2 1
   2    1   35 1
   3    1   36 1
   4    1   37 1
   5    2    3 1
   6    2    4 am
   7    3   38 1
   8    3   39 1
   9    3   40 1
  10    4    5 2
  11    4    6 1
  12    6    7 1
  13    6   41 1
  14    6   42 1
  15    7    8 1
  16    7   43 1
  17    7   44 1
  18    8   24 1
  19    8    9 2
  20    9   10 1
  21   10   11 1
  22   10   23 2
  23   11   12 1
  24   11   45 1
  25   12   22 ar
  26   12   13 ar
  27   13   14 ar
  28   13   46 1
  29   14   15 ar
  30   14   47 1
  31   15   21 ar
  32   15   16 1
  33   16   17 1
  34   17   18 1
  35   17   19 1
  36   17   20 1
  37   20   21 1
  38   21   22 ar
  39   22   48 1
  40   23   24 1
  41   24   25 1
  42   25   34 ar
  43   25   26 ar
  44   26   27 ar
  45   26   49 1
  46   27   28 ar
  47   27   50 1
  48   28   33 ar
  49   28   29 1
  50   29   30 1
  51   30   31 1
  52   30   51 1
  53   30   52 1
  54   31   32 1
  55   31   53 1
  56   31   54 1
  57   32   33 1
  58   33   34 ar
  59   34   55 1

#	End of record

