#	Name: ASD01911888
#	Creating user name:	WinNT
#	Creation time:	15. 06. 2019 19:58

#	Modifying user name:	WinNT
#	Modification time:	15. 06. 2019 19:58

#	Program:	/corina/corina34_cracker 3.40 0067  02.08.2006

@<TRIPOS>MOLECULE
ASD01911888
  37   39    0    0    0
SMALL
NO_CHARGES


@<TRIPOS>ATOM
   1 C1            -1.0609    -0.5024    -2.0829 C.ar    
   2 C2            -1.0562     0.0561    -0.8087 C.ar    
   3 C3            -1.0046     1.4364    -0.6777 C.ar    
   4 N4            -0.9609     2.2130    -1.7420 N.ar    
   5 C5            -0.9637     1.7180    -2.9640 C.ar    
   6 C6            -1.0133     0.3502    -3.1762 C.ar    
   7 O7            -1.1021    -0.7392     0.2923 O.3     
   8 C8            -1.1528    -2.0842     0.1060 C.ar    
   9 C9            -0.0024    -2.7820    -0.2365 C.ar    
  10 C10           -0.0526    -4.1495    -0.4267 C.ar    
  11 C11           -1.2472    -4.8273    -0.2764 C.ar    
  12 C12           -2.4015    -4.1345     0.0661 C.ar    
  13 C13           -2.3520    -2.7614     0.2632 C.ar    
  14 N14           -3.6107    -4.8204     0.2177 N.am    
  15 C15           -4.7728    -4.2156    -0.0988 C.2     
  16 C16           -6.0570    -4.9011     0.1589 C.ar    
  17 O17           -4.7650    -3.1064    -0.5961 O.2     
  18 C18           -6.0678    -6.1756     0.7303 C.ar    
  19 C19           -7.2664    -6.8173     0.9722 C.ar    
  20 C20           -8.4614    -6.2053     0.6512 C.ar    
  21 C21           -8.4654    -4.9302     0.0790 C.ar    
  22 C22           -7.2596    -4.2748    -0.1624 C.ar    
  23 C23           -9.7059    -4.2966    -0.2534 C.1     
  24 F24           -1.0159    -0.1473    -4.4322 F       
  25 N25          -10.6899    -3.7940    -0.5172 N.1     
  26 H26           -1.0960    -1.5734    -2.2175 H       
  27 H27           -1.0006     1.8795     0.3072 H       
  28 H28           -0.9273     2.3878    -3.8104 H       
  29 H29            0.9328    -2.2550    -0.3546 H       
  30 H30            0.8436    -4.6898    -0.6937 H       
  31 H31           -1.2836    -5.8963    -0.4257 H       
  32 H32           -3.2479    -2.2203     0.5296 H       
  33 H33           -3.6131    -5.7315     0.5507 H       
  34 H34           -5.1365    -6.6604     0.9832 H       
  35 H35           -7.2689    -7.8027     1.4142 H       
  36 H36           -9.3953    -6.7130     0.8424 H       
  37 H37           -7.2568    -3.2892    -0.6041 H       
@<TRIPOS>BOND
   1    1    2 ar
   2    1    6 ar
   3    1   26 1
   4    2    3 ar
   5    2    7 1
   6    3    4 ar
   7    3   27 1
   8    4    5 ar
   9    5    6 ar
  10    5   28 1
  11    6   24 1
  12    7    8 1
  13    8    9 ar
  14    8   13 ar
  15    9   10 ar
  16    9   29 1
  17   10   11 ar
  18   10   30 1
  19   11   12 ar
  20   11   31 1
  21   12   13 ar
  22   12   14 1
  23   13   32 1
  24   14   15 am
  25   14   33 1
  26   15   16 1
  27   15   17 2
  28   16   18 ar
  29   16   22 ar
  30   18   19 ar
  31   18   34 1
  32   19   20 ar
  33   19   35 1
  34   20   21 ar
  35   20   36 1
  36   21   22 ar
  37   21   23 1
  38   22   37 1
  39   23   25 3

#	End of record

