#	Name: ASD05250027
#	Creating user name:	WinNT
#	Creation time:	15. 06. 2019 20:58

#	Modifying user name:	WinNT
#	Modification time:	15. 06. 2019 20:58

#	Program:	/corina/corina34_cracker 3.40 0067  02.08.2006

@<TRIPOS>MOLECULE
ASD05250027
  19   20    0    0    0
SMALL
NO_CHARGES


@<TRIPOS>ATOM
   1 C1            -0.0171     1.4119     0.0098 C.ar    
   2 C2             0.0021    -0.0041     0.0020 C.ar    
   3 N3            -1.1874    -0.6743     0.0093 N.pl3   
   4 N4            -2.2919    -0.0094     0.0229 N.2     
   5 C5            -2.3209     1.3064     0.0303 C.2     
   6 N6            -1.2050     2.0362     0.0189 N.2     
   7 C7             1.1937     2.1196     0.0020 C.ar    
   8 C8             2.3718     1.4337    -0.0129 C.ar    
   9 C9             2.3871     0.0417    -0.0209 C.ar    
  10 C10            1.2240    -0.6738    -0.0132 C.ar    
  11 O11           -1.2077    -2.0901     0.0013 O.3     
  12 O12           -1.2630     3.2528     0.0266 O.2     
  13 N13           -3.5517     1.9547     0.0446 N.pl3   
  14 H14            1.1928     3.1996     0.0075 H       
  15 H15            3.3051     1.9772    -0.0188 H       
  16 H16            3.3327    -0.4800    -0.0334 H       
  17 H17            1.2510    -1.7534    -0.0199 H       
  18 H18           -4.3723     1.4374     0.0489 H       
  19 H19           -3.5893     2.9239     0.0501 H       
@<TRIPOS>BOND
   1    1    2 ar
   2    1    7 ar
   3    1    6 1
   4    2    3 1
   5    2   10 ar
   6    3    4 1
   7    3   11 1
   8    4    5 2
   9    5    6 1
  10    5   13 1
  11    6   12 2
  12    7    8 ar
  13    7   14 1
  14    8    9 ar
  15    8   15 1
  16    9   10 ar
  17    9   16 1
  18   10   17 1
  19   13   18 1
  20   13   19 1

#	End of record

