#	Name: ASD03180096
#	Creating user name:	WinNT
#	Creation time:	15. 06. 2019 20:33

#	Modifying user name:	WinNT
#	Modification time:	15. 06. 2019 20:33

#	Program:	/corina/corina34_cracker 3.40 0067  02.08.2006

@<TRIPOS>MOLECULE
ASD03180096
  31   33    0    0    0
SMALL
NO_CHARGES


@<TRIPOS>ATOM
   1 N1            -0.0158     1.3164     0.0093 N.2     
   2 C2             0.0021    -0.0041     0.0020 C.2     
   3 C3             1.2223    -0.5423    -0.0125 C.2     
   4 S4             2.3985     0.7693    -0.0167 S.3     
   5 C5             1.1328     1.9185     0.0015 C.2     
   6 N6             1.3088     3.2948     0.0068 N.pl3   
   7 C7             2.5880     3.8302    -0.0024 C.2     
   8 S8             4.0807     2.8965    -0.0218 S.3     
   9 C9             5.0181     4.3883    -0.0233 C.2     
  10 C10            4.1609     5.4259    -0.0096 C.2     
  11 N11            2.8698     5.0964    -0.0039 N.2     
  12 C12            4.6195     6.8322    -0.0064 C.2     
  13 N13            4.4859     9.0666     0.0109 N.2     
  14 C14            3.8290     7.9267     0.0123 C.2     
  15 S15            6.2948     7.3779    -0.0187 S.3     
  16 C16            5.7749     9.0064    -0.0055 C.2     
  17 C17            2.3242     7.8493     0.0327 C.3     
  18 C18            6.6920    10.2022    -0.0103 C.3     
  19 C19           -1.2547    -0.8356     0.0096 C.3     
  20 H20            1.4498    -1.5980    -0.0200 H       
  21 H21            0.5371     3.8824     0.0170 H       
  22 H22            6.0957     4.4582    -0.0334 H       
  23 H23            1.9471     7.8380    -0.9900 H       
  24 H24            2.0141     6.9382     0.5444 H       
  25 H25            1.9228     8.7158     0.5583 H       
  26 H26            6.9262    10.4846     1.0161 H       
  27 H27            7.6126     9.9520    -0.5374 H       
  28 H28            6.2004    11.0351    -0.5130 H       
  29 H29           -1.5673    -1.0310    -1.0162 H       
  30 H30           -1.0619    -1.7809     0.5169 H       
  31 H31           -2.0440    -0.2965     0.5335 H       
@<TRIPOS>BOND
   1    1    2 1
   2    1    5 2
   3    2    3 2
   4    2   19 1
   5    3    4 1
   6    3   20 1
   7    4    5 1
   8    5    6 1
   9    6    7 1
  10    6   21 1
  11    7    8 1
  12    7   11 2
  13    8    9 1
  14    9   10 2
  15    9   22 1
  16   10   11 1
  17   10   12 1
  18   12   15 1
  19   12   14 2
  20   13   14 1
  21   13   16 2
  22   14   17 1
  23   15   16 1
  24   16   18 1
  25   17   23 1
  26   17   24 1
  27   17   25 1
  28   18   26 1
  29   18   27 1
  30   18   28 1
  31   19   29 1
  32   19   30 1
  33   19   31 1

#	End of record

