#	Name: ASD03092061
#	Creating user name:	WinNT
#	Creation time:	15. 06. 2019 20:31

#	Modifying user name:	WinNT
#	Modification time:	15. 06. 2019 20:31

#	Program:	/corina/corina34_cracker 3.40 0067  02.08.2006

@<TRIPOS>MOLECULE
ASD03092061
  47   50    0    0    0
SMALL
NO_CHARGES


@<TRIPOS>ATOM
   1 N1             0.1287     1.3368     0.0450 N.am    
   2 C2            -0.0105    -0.0258    -0.0086 C.2     
   3 C3            -1.3458    -0.2969    -0.0531 C.2     
   4 C4            -2.0340     0.9268    -0.0260 C.2     
   5 N5            -1.1545     1.8984     0.0386 N.2     
   6 N6            -3.4222     1.0833    -0.0565 N.pl3   
   7 C7            -3.9861     2.3539     0.0945 C.ar    
   8 C8            -5.2406     2.6252    -0.4360 C.ar    
   9 C9            -5.7972     3.8827    -0.2858 C.ar    
  10 C10           -5.1034     4.8718     0.3937 C.ar    
  11 C11           -3.2946     3.3442     0.7800 C.ar    
  12 C12            1.0855    -1.0185    -0.0171 C.ar    
  13 C13            1.2921     2.0149     0.1000 C.2     
  14 C14            0.9616    -2.2326     0.6678 C.ar    
  15 C15            2.0086    -3.1301     0.6328 C.ar    
  16 N16            3.1138    -2.8561    -0.0337 N.ar    
  17 C17            3.2717    -1.7237    -0.6926 C.ar    
  18 C18            2.2736    -0.7724    -0.7153 C.ar    
  19 C19            4.5581    -1.4692    -1.4352 C.3     
  20 N20            1.2914     3.3610     0.0345 N.am    
  21 O21            2.3419     1.4125     0.2087 O.2     
  22 C22            2.5561     4.0981     0.0942 C.3     
  23 C23            2.2764     5.5993     0.0000 C.3     
  24 C24           -3.8511     4.6025     0.9237 C.ar    
  25 F25           -7.0174     4.1470    -0.8021 F       
  26 C26            3.4637     6.5506     0.1622 C.3     
  27 C27            2.8299     6.3461    -1.2152 C.3     
  28 F28           -5.6480     6.0996     0.5392 F       
  29 F29           -3.1763     5.5677     1.5856 F       
  30 H30           -1.7945    -1.2781    -0.1010 H       
  31 H31           -3.9948     0.3105    -0.1825 H       
  32 H32           -5.7813     1.8548    -0.9657 H       
  33 H33           -2.3208     3.1333     1.1969 H       
  34 H34            0.0599    -2.4634     1.2158 H       
  35 H35            1.9227    -4.0696     1.1585 H       
  36 H36            2.4097     0.1520    -1.2569 H       
  37 H37            4.4683    -1.8417    -2.4557 H       
  38 H38            4.7600    -0.3983    -1.4558 H       
  39 H39            5.3764    -1.9837    -0.9314 H       
  40 H40            0.4534     3.8419    -0.0523 H       
  41 H41            3.0591     3.8806     1.0364 H       
  42 H42            3.1932     3.7943    -0.7364 H       
  43 H43            1.3138     5.9239     0.3951 H       
  44 H44            3.2820     7.5012     0.6637 H       
  45 H45            4.4440     6.1070     0.3361 H       
  46 H46            3.3933     5.7679    -1.9476 H       
  47 H47            2.2313     7.1622    -1.6200 H       
@<TRIPOS>BOND
   1    1    2 1
   2    1   13 am
   3    1    5 1
   4    2    3 2
   5    2   12 1
   6    3    4 1
   7    3   30 1
   8    4    5 2
   9    4    6 1
  10    6    7 1
  11    6   31 1
  12    7    8 ar
  13    7   11 ar
  14    8    9 ar
  15    8   32 1
  16    9   10 ar
  17    9   25 1
  18   10   24 ar
  19   10   28 1
  20   11   24 ar
  21   11   33 1
  22   12   14 ar
  23   12   18 ar
  24   13   20 am
  25   13   21 2
  26   14   15 ar
  27   14   34 1
  28   15   16 ar
  29   15   35 1
  30   16   17 ar
  31   17   18 ar
  32   17   19 1
  33   18   36 1
  34   19   37 1
  35   19   38 1
  36   19   39 1
  37   20   22 1
  38   20   40 1
  39   22   23 1
  40   22   41 1
  41   22   42 1
  42   23   26 1
  43   23   27 1
  44   23   43 1
  45   24   29 1
  46   26   27 1
  47   26   44 1
  48   26   45 1
  49   27   46 1
  50   27   47 1

#	End of record

