#	Name: ASD04320002
#	Creating user name:	WinNT
#	Creation time:	15. 06. 2019 20:48

#	Modifying user name:	WinNT
#	Modification time:	15. 06. 2019 20:48

#	Program:	/corina/corina34_cracker 3.40 0067  02.08.2006

@<TRIPOS>MOLECULE
ASD04320002
  33   34    0    0    0
SMALL
NO_CHARGES


@<TRIPOS>ATOM
   1 O1            -2.0958    -2.9845     3.7090 O.3     
   2 O2            -0.4442    -3.6721     2.3936 O.2     
   3 N3            -0.3101    -3.2144    -0.0734 N.pl3   
   4 C4             0.5898    -5.4367    -0.3568 C.ar    
   5 C5            -0.5033    -4.5914    -0.2113 C.ar    
   6 C6             0.3954    -6.7970    -0.4924 C.ar    
   7 C7            -1.4014    -2.3751     0.1111 C.ar    
   8 C8            -1.7884    -5.1184    -0.2026 C.ar    
   9 C9            -0.8857    -7.3183    -0.4838 C.ar    
  10 C10            1.9856    -4.8689    -0.3731 C.3     
  11 C11           -1.9757    -6.4800    -0.3386 C.ar    
  12 C12           -1.9921    -2.2536     1.3796 C.ar    
  13 C13            1.5803    -7.7146    -0.6503 C.3     
  14 C14           -1.9108    -1.6469    -0.9567 C.ar    
  15 C15           -3.0896    -1.4055     1.5509 C.ar    
  16 C16           -2.9950    -0.8138    -0.7708 C.ar    
  17 C17           -3.5839    -0.6960     0.4783 C.ar    
  18 C18           -1.4588    -3.0155     2.5218 C.2     
  19 H19           -1.7079    -3.5004     4.4290 H       
  20 H20            0.5860    -2.8446    -0.1066 H       
  21 H21           -2.6402    -4.4642    -0.0893 H       
  22 H22           -1.0350    -8.3826    -0.5903 H       
  23 H23            2.3768    -4.8371     0.6438 H       
  24 H24            2.6270    -5.4987    -0.9896 H       
  25 H25            1.9627    -3.8601    -0.7852 H       
  26 H26           -2.9747    -6.8904    -0.3320 H       
  27 H27            1.9176    -8.0449     0.3322 H       
  28 H28            1.2921    -8.5809    -1.2457 H       
  29 H29            2.3883    -7.1817    -1.1516 H       
  30 H30           -1.4579    -1.7329    -1.9333 H       
  31 H31           -3.5500    -1.3066     2.5228 H       
  32 H32           -3.3871    -0.2496    -1.6040 H       
  33 H33           -4.4321    -0.0411     0.6125 H       
@<TRIPOS>BOND
   1    1   18 1
   2    1   19 1
   3    2   18 2
   4    3    5 1
   5    3    7 1
   6    3   20 1
   7    4    5 ar
   8    4    6 ar
   9    4   10 1
  10    5    8 ar
  11    6    9 ar
  12    6   13 1
  13    7   12 ar
  14    7   14 ar
  15    8   11 ar
  16    8   21 1
  17    9   11 ar
  18    9   22 1
  19   10   23 1
  20   10   24 1
  21   10   25 1
  22   11   26 1
  23   12   15 ar
  24   12   18 1
  25   13   27 1
  26   13   28 1
  27   13   29 1
  28   14   16 ar
  29   14   30 1
  30   15   17 ar
  31   15   31 1
  32   16   17 ar
  33   16   32 1
  34   17   33 1

#	End of record

