#	Name: ASD05720263
#	Creating user name:	WinNT
#	Creation time:	15. 06. 2019 21:02

#	Modifying user name:	WinNT
#	Modification time:	15. 06. 2019 21:02

#	Program:	/corina/corina34_cracker 3.40 0067  02.08.2006

@<TRIPOS>MOLECULE
ASD05720263
  33   36    0    0    0
SMALL
NO_CHARGES


@<TRIPOS>ATOM
   1 O1            -0.0161     1.3334     0.0094 O.3     
   2 C2             0.0021    -0.0041     0.0020 C.2     
   3 N3             1.2348    -0.5293    -0.0126 N.am    
   4 C4             2.2183     0.5645    -0.0161 C.3     
   5 C5             1.3508     1.8379    -0.0010 C.3     
   6 O6            -1.0069    -0.6808     0.0087 O.2     
   7 C7             3.0621     0.5136    -1.2636 C.ar    
   8 C8             4.4174     0.7764    -1.1925 C.ar    
   9 C9             5.1915     0.7298    -2.3369 C.ar    
  10 C10            4.6103     0.4199    -3.5522 C.ar    
  11 C11            3.2552     0.1562    -3.6232 C.ar    
  12 C12            2.4820     0.1985    -2.4781 C.ar    
  13 C13            3.0998    -3.5861    -0.0446 C.2     
  14 N14            2.7924    -2.2814    -0.0357 N.2     
  15 C15            1.5350    -1.8858    -0.0220 C.2     
  16 C16            0.4938    -2.8374    -0.0165 C.2     
  17 C17            0.7983    -4.1544    -0.0253 C.2     
  18 N18            2.1111    -4.5364    -0.0395 N.pl3   
  19 N19            2.7293    -5.7921    -0.0510 N.2     
  20 C20            4.0323    -5.6237    -0.0626 C.2     
  21 C21            4.3115    -4.2644    -0.0648 C.2     
  22 Br22           6.0310    -3.4778    -0.0879 Br      
  23 H23            2.8457     0.5180     0.8740 H       
  24 H24            1.5314     2.4339    -0.8956 H       
  25 H25            1.5485     2.4243     0.8964 H       
  26 H26            4.8714     1.0186    -0.2430 H       
  27 H27            6.2502     0.9359    -2.2814 H       
  28 H28            5.2150     0.3842    -4.4464 H       
  29 H29            2.8012    -0.0856    -4.5728 H       
  30 H30            1.4239    -0.0111    -2.5330 H       
  31 H31           -0.5374    -2.5166    -0.0049 H       
  32 H32            0.0136    -4.8964    -0.0208 H       
  33 H33            4.7671    -6.4151    -0.0732 H       
@<TRIPOS>BOND
   1    1    2 1
   2    1    5 1
   3    2    3 am
   4    2    6 2
   5    3    4 1
   6    3   15 1
   7    4    5 1
   8    4    7 1
   9    4   23 1
  10    5   24 1
  11    5   25 1
  12    7    8 ar
  13    7   12 ar
  14    8    9 ar
  15    8   26 1
  16    9   10 ar
  17    9   27 1
  18   10   11 ar
  19   10   28 1
  20   11   12 ar
  21   11   29 1
  22   12   30 1
  23   13   14 1
  24   13   18 1
  25   13   21 2
  26   14   15 2
  27   15   16 1
  28   16   17 2
  29   16   31 1
  30   17   18 1
  31   17   32 1
  32   18   19 1
  33   19   20 2
  34   20   21 1
  35   20   33 1
  36   21   22 1

#	End of record

