#	Name: ASD03331494
#	Creating user name:	WinNT
#	Creation time:	15. 06. 2019 20:39

#	Modifying user name:	WinNT
#	Modification time:	15. 06. 2019 20:39

#	Program:	/corina/corina34_cracker 3.40 0067  02.08.2006

@<TRIPOS>MOLECULE
ASD03331494
  62   65    0    0    0
SMALL
NO_CHARGES


@<TRIPOS>ATOM
   1 C1            -0.2696     1.1768     0.8148 C.ar    
   2 C2            -0.1767    -0.2891     0.6413 C.2     
   3 N3            -1.2224    -1.1659     0.7000 N.pl3   
   4 C4            -0.7172    -2.4121     0.5034 C.2     
   5 C5             0.6245    -2.2774     0.3121 C.2     
   6 N6             0.9229    -0.9628     0.3997 N.2     
   7 C7             1.5788    -3.3694     0.0506 C.2     
   8 N8             2.8870    -3.0944    -0.1208 N.am    
   9 C9            -1.2553     1.9004     0.1438 C.ar    
  10 O10            1.1859    -4.5188    -0.0104 O.2     
  11 C11            3.8358    -4.1800    -0.3806 C.3     
  12 C12            3.8557    -4.4923    -1.8783 C.3     
  13 C13            5.2133    -3.7603     0.0634 C.2     
  14 C14            4.1708    -3.2161    -2.6612 C.3     
  15 C15            4.9283    -5.5448    -2.1656 C.3     
  16 C16            2.4879    -5.0282    -2.3058 C.3     
  17 C17           -1.3367     3.2698     0.3101 C.ar    
  18 C18           -0.4416     3.9243     1.1409 C.ar    
  19 C19            0.5383     3.2128     1.8086 C.ar    
  20 C20            0.6262     1.8419     1.6561 C.ar    
  21 C21           -2.6318    -0.8300     0.9211 C.3     
  22 C22           -3.3409    -2.0165     1.5780 C.3     
  23 C23           -3.8943    -2.9504     0.5028 C.3     
  24 C24           -2.7621    -3.5103    -0.3525 C.3     
  25 C25           -1.5104    -3.6923     0.5118 C.3     
  26 N26            6.0736    -4.6774     0.5486 N.am    
  27 O27            5.5479    -2.5972    -0.0159 O.2     
  28 C28            7.4174    -4.6572     1.1456 C.3     
  29 C29            7.6124    -6.0870     0.6223 C.3     
  30 C30            6.0788    -6.1380     0.7200 C.3     
  31 F31            1.5838     1.1481     2.3094 F       
  32 F32           -2.2910     3.9721    -0.3391 F       
  33 H33            3.2004    -2.1777    -0.0720 H       
  34 H34           -1.9532     1.3916    -0.5046 H       
  35 H35            3.5310    -5.0689     0.1718 H       
  36 H36            5.1453    -2.8343    -2.3566 H       
  37 H37            4.1851    -3.4385    -3.7282 H       
  38 H38            3.4067    -2.4662    -2.4565 H       
  39 H39            4.6597    -6.4806    -1.6754 H       
  40 H40            5.0005    -5.7058    -3.2412 H       
  41 H41            5.8890    -5.1979    -1.7848 H       
  42 H42            1.7237    -4.2783    -2.1011 H       
  43 H43            2.5021    -5.2506    -3.3728 H       
  44 H44            2.2634    -5.9374    -1.7481 H       
  45 H45           -0.5092     4.9947     1.2672 H       
  46 H46            1.2335     3.7288     2.4542 H       
  47 H47           -2.6999     0.0406     1.5733 H       
  48 H48           -3.1064    -0.6066    -0.0344 H       
  49 H49           -2.6325    -2.5617     2.2017 H       
  50 H50           -4.1603    -1.6511     2.1971 H       
  51 H51           -4.4255    -3.7738     0.9802 H       
  52 H52           -4.5857    -2.3973    -0.1329 H       
  53 H53           -3.0612    -4.4735    -0.7658 H       
  54 H54           -2.5445    -2.8179    -1.1657 H       
  55 H55           -0.9020    -4.5009     0.1067 H       
  56 H56           -1.8046    -3.9322     1.5336 H       
  57 H57            8.0866    -3.9310     0.6840 H       
  58 H58            7.4082    -4.5906     2.2335 H       
  59 H59            8.0007    -6.1416    -0.3947 H       
  60 H60            8.1248    -6.7515     1.3179 H       
  61 H61            5.7166    -6.4654     1.6946 H       
  62 H62            5.6087    -6.6717    -0.1060 H       
@<TRIPOS>BOND
   1    1    2 1
   2    1    9 ar
   3    1   20 ar
   4    2    3 1
   5    2    6 2
   6    3    4 1
   7    3   21 1
   8    4    5 2
   9    4   25 1
  10    5    6 1
  11    5    7 1
  12    7    8 am
  13    7   10 2
  14    8   11 1
  15    8   33 1
  16    9   17 ar
  17    9   34 1
  18   11   12 1
  19   11   13 1
  20   11   35 1
  21   12   14 1
  22   12   15 1
  23   12   16 1
  24   13   26 am
  25   13   27 2
  26   14   36 1
  27   14   37 1
  28   14   38 1
  29   15   39 1
  30   15   40 1
  31   15   41 1
  32   16   42 1
  33   16   43 1
  34   16   44 1
  35   17   18 ar
  36   17   32 1
  37   18   19 ar
  38   18   45 1
  39   19   20 ar
  40   19   46 1
  41   20   31 1
  42   21   22 1
  43   21   47 1
  44   21   48 1
  45   22   23 1
  46   22   49 1
  47   22   50 1
  48   23   24 1
  49   23   51 1
  50   23   52 1
  51   24   25 1
  52   24   53 1
  53   24   54 1
  54   25   55 1
  55   25   56 1
  56   26   28 1
  57   26   30 1
  58   28   29 1
  59   28   57 1
  60   28   58 1
  61   29   30 1
  62   29   59 1
  63   29   60 1
  64   30   61 1
  65   30   62 1

#	End of record

