#	Name: ASD01813380
#	Creating user name:	WinNT
#	Creation time:	15. 06. 2019 19:30

#	Modifying user name:	WinNT
#	Modification time:	15. 06. 2019 19:30

#	Program:	/corina/corina34_cracker 3.40 0067  02.08.2006

@<TRIPOS>MOLECULE
ASD01813380
  56   60    0    0    0
SMALL
NO_CHARGES


@<TRIPOS>ATOM
   1 C1            -0.0169     1.3972     0.0097 C.2     
   2 C2             0.0021    -0.0041     0.0020 C.2     
   3 C3             1.1986    -0.6593    -0.0129 C.2     
   4 C4             2.3918     0.0821    -0.0204 C.2     
   5 N5             2.3437     1.4497    -0.0122 N.am    
   6 C6             1.1421     2.0937     0.0024 C.2     
   7 C7             3.6227    -0.5889    -0.0356 C.2     
   8 C8             4.7877     0.1218    -0.0425 C.2     
   9 C9             4.7345     1.5280    -0.0346 C.2     
  10 C10            3.4812     2.1736    -0.0189 C.2     
  11 O11            3.4258     3.3917    -0.0123 O.2     
  12 C12            5.9703     2.3140    -0.0413 C.2     
  13 O13            5.9124     3.6618    -0.0337 O.3     
  14 O14            7.0487     1.7516    -0.0537 O.2     
  15 C15            3.6593    -2.0954    -0.0439 C.3     
  16 C16            3.7837    -2.5946    -1.4848 C.3     
  17 N17            3.8194    -4.0631    -1.4929 N.3     
  18 C18            2.5361    -4.6250    -1.0369 C.3     
  19 C19            2.5946    -6.1246    -1.2049 C.2     
  20 N20            3.5237    -6.7523    -1.9681 N.pl3   
  21 C21            4.5701    -6.0539    -2.7192 C.3     
  22 C22            4.1801    -4.5739    -2.8230 C.3     
  23 N23            1.8148    -7.0214    -0.6807 N.2     
  24 C24            2.2122    -8.2409    -1.0811 C.2     
  25 C25            3.2827    -8.0888    -1.8883 C.2     
  26 C26            4.0601    -9.1859    -2.5688 C.3     
  27 C27            3.3855    -9.5488    -3.8666 C.ar    
  28 C28            3.7341    -8.8945    -5.0334 C.ar    
  29 C29            3.1153    -9.2273    -6.2238 C.ar    
  30 C30            2.1483   -10.2148    -6.2476 C.ar    
  31 C31            1.8003   -10.8697    -5.0811 C.ar    
  32 C32            2.4222   -10.5399    -3.8914 C.ar    
  33 H33           -0.9605     1.9226     0.0170 H       
  34 H34           -0.9233    -0.5609     0.0082 H       
  35 H35            1.2282    -1.7389    -0.0187 H       
  36 H36            1.1156     3.1733     0.0087 H       
  37 H37            5.7393    -0.3889    -0.0536 H       
  38 H38            6.7544     4.1373    -0.0385 H       
  39 H39            4.5153    -2.4412     0.5356 H       
  40 H40            2.7412    -2.4836     0.3971 H       
  41 H41            2.9277    -2.2488    -2.0643 H       
  42 H42            4.7018    -2.2064    -1.9259 H       
  43 H43            2.3785    -4.3780     0.0130 H       
  44 H44            1.7222    -4.2187    -1.6375 H       
  45 H45            5.5222    -6.1472    -2.1968 H       
  46 H46            4.6545    -6.4829    -3.7177 H       
  47 H47            3.3281    -4.4695    -3.4948 H       
  48 H48            5.0223    -4.0034    -3.2147 H       
  49 H49            1.7547    -9.1794    -0.8047 H       
  50 H50            5.0743    -8.8412    -2.7705 H       
  51 H51            4.0960   -10.0615    -1.9207 H       
  52 H52            4.4897    -8.1230    -5.0148 H       
  53 H53            3.3872    -8.7156    -7.1352 H       
  54 H54            1.6643   -10.4744    -7.1776 H       
  55 H55            1.0445   -11.6410    -5.0996 H       
  56 H56            2.1504   -11.0516    -2.9800 H       
@<TRIPOS>BOND
   1    1    2 1
   2    1    6 2
   3    1   33 1
   4    2    3 2
   5    2   34 1
   6    3    4 1
   7    3   35 1
   8    4    5 1
   9    4    7 2
  10    5    6 1
  11    5   10 am
  12    6   36 1
  13    7    8 1
  14    7   15 1
  15    8    9 2
  16    8   37 1
  17    9   10 1
  18    9   12 1
  19   10   11 2
  20   12   13 1
  21   12   14 2
  22   13   38 1
  23   15   16 1
  24   15   39 1
  25   15   40 1
  26   16   17 1
  27   16   41 1
  28   16   42 1
  29   17   18 1
  30   17   22 1
  31   18   19 1
  32   18   43 1
  33   18   44 1
  34   19   20 1
  35   19   23 2
  36   20   21 1
  37   20   25 1
  38   21   22 1
  39   21   45 1
  40   21   46 1
  41   22   47 1
  42   22   48 1
  43   23   24 1
  44   24   25 2
  45   24   49 1
  46   25   26 1
  47   26   27 1
  48   26   50 1
  49   26   51 1
  50   27   28 ar
  51   27   32 ar
  52   28   29 ar
  53   28   52 1
  54   29   30 ar
  55   29   53 1
  56   30   31 ar
  57   30   54 1
  58   31   32 ar
  59   31   55 1
  60   32   56 1

#	End of record

