#	Name: ASD01028841
#	Creating user name:	WinNT
#	Creation time:	15. 06. 2019 18:58

#	Modifying user name:	WinNT
#	Modification time:	15. 06. 2019 18:58

#	Program:	/corina/corina34_cracker 3.40 0067  02.08.2006

@<TRIPOS>MOLECULE
ASD01028841
  56   61    0    0    0
SMALL
NO_CHARGES


@<TRIPOS>ATOM
   1 C1            -0.0157     1.3060     0.0092 C.ar    
   2 N2             0.0021    -0.0041     0.0020 N.ar    
   3 C3             1.1645     2.0563     0.0020 C.ar    
   4 C4             2.3770     1.4188    -0.0130 C.ar    
   5 C5             2.3867     0.0119    -0.0207 C.ar    
   6 C6             1.1525    -0.6850    -0.0126 C.ar    
   7 C7             3.5911    -0.7100    -0.0356 C.ar    
   8 C8             3.5598    -2.0712    -0.0422 C.ar    
   9 C9             2.3478    -2.7583    -0.0348 C.ar    
  10 C10            1.1619    -2.0906    -0.0203 C.ar    
  11 C11            4.8530    -2.8448    -0.0582 C.3     
  12 C12            5.2974    -3.1098     1.3572 C.2     
  13 N13            6.4189    -3.7804     1.7362 N.pl3   
  14 C14            6.4138    -3.7767     3.1087 C.2     
  15 N15            5.3253    -3.1254     3.4863 N.2     
  16 N16            4.6780    -2.7321     2.4461 N.2     
  17 C17            7.4294    -4.3856     1.0477 C.2     
  18 C18            8.4472    -4.9950     1.7125 C.2     
  19 C19            8.4657    -5.0059     3.1266 C.2     
  20 C20            7.4614    -4.4024     3.8171 C.2     
  21 C21            9.5416    -5.6510     0.9518 C.2     
  22 F22            4.6607    -4.0611    -0.7221 F       
  23 F23            5.8334    -2.1005    -0.7231 F       
  24 C24           10.4729    -5.0089     0.1133 C.2     
  25 N25           11.2746    -5.9182    -0.3750 N.2     
  26 N26           10.8898    -7.1668     0.1284 N.pl3   
  27 C27            9.8305    -6.9839     0.9434 C.2     
  28 C28           11.5303    -8.4493    -0.1735 C.3     
  29 O29            1.1087     3.4142     0.0094 O.3     
  30 C30           -0.1901     4.0101     0.0245 C.3     
  31 C31           -0.0542     5.5109     0.0309 C.ar    
  32 C32           -0.0030     6.2053    -1.1633 C.ar    
  33 C33            0.1217     7.5820    -1.1575 C.ar    
  34 C34            0.1948     8.2644     0.0425 C.ar    
  35 C35            0.1427     7.5700     1.2367 C.ar    
  36 C36            0.0137     6.1937     1.2309 C.ar    
  37 F37            7.4656    -4.4041     5.1681 F       
  38 H38           -0.9658     1.8194     0.0165 H       
  39 H39            3.2995     1.9804    -0.0192 H       
  40 H40            4.5368    -0.1884    -0.0421 H       
  41 H41            2.3494    -3.8383    -0.0407 H       
  42 H42            0.2314    -2.6388    -0.0145 H       
  43 H43            7.4208    -4.3810    -0.0323 H       
  44 H44            9.2734    -5.4902     3.6553 H       
  45 H45           10.5169    -3.9493    -0.0910 H       
  46 H46            9.3024    -7.7544     1.4855 H       
  47 H47           12.3213    -8.6401     0.5517 H       
  48 H48           10.7891    -9.2468    -0.1209 H       
  49 H49           11.9569    -8.4153    -1.1760 H       
  50 H50           -0.7429     3.6991    -0.8619 H       
  51 H51           -0.7263     3.6900     0.9180 H       
  52 H52           -0.0602     5.6723    -2.1008 H       
  53 H53            0.1623     8.1245    -2.0905 H       
  54 H54            0.2929     9.3399     0.0470 H       
  55 H55            0.2002     8.1031     2.1742 H       
  56 H56           -0.0270     5.6513     2.1639 H       
@<TRIPOS>BOND
   1    1    2 ar
   2    1    3 ar
   3    1   38 1
   4    2    6 ar
   5    3    4 ar
   6    3   29 1
   7    4    5 ar
   8    4   39 1
   9    5    6 ar
  10    5    7 ar
  11    6   10 ar
  12    7    8 ar
  13    7   40 1
  14    8    9 ar
  15    8   11 1
  16    9   10 ar
  17    9   41 1
  18   10   42 1
  19   11   12 1
  20   11   22 1
  21   11   23 1
  22   12   13 1
  23   12   16 2
  24   13   14 1
  25   13   17 1
  26   14   15 2
  27   14   20 1
  28   15   16 1
  29   17   18 2
  30   17   43 1
  31   18   19 1
  32   18   21 1
  33   19   20 2
  34   19   44 1
  35   20   37 1
  36   21   24 1
  37   21   27 2
  38   24   25 2
  39   24   45 1
  40   25   26 1
  41   26   27 1
  42   26   28 1
  43   27   46 1
  44   28   47 1
  45   28   48 1
  46   28   49 1
  47   29   30 1
  48   30   31 1
  49   30   50 1
  50   30   51 1
  51   31   32 ar
  52   31   36 ar
  53   32   33 ar
  54   32   52 1
  55   33   34 ar
  56   33   53 1
  57   34   35 ar
  58   34   54 1
  59   35   36 ar
  60   35   55 1
  61   36   56 1

#	End of record

