#	Name: ASD03730254
#	Creating user name:	WinNT
#	Creation time:	15. 06. 2019 20:44

#	Modifying user name:	WinNT
#	Modification time:	15. 06. 2019 20:44

#	Program:	/corina/corina34_cracker 3.40 0067  02.08.2006

@<TRIPOS>MOLECULE
ASD03730254
  64   69    0    0    0
SMALL
NO_CHARGES


@<TRIPOS>ATOM
   1 C1            -0.8290     2.7062    -2.8093 C.2     
   2 C2            -0.9860     1.5199    -3.7254 C.3     
   3 O3            -0.0820     3.6121    -3.1129 O.2     
   4 N4            -1.5230     2.7630    -1.6554 N.am    
   5 C5            -1.3002     3.8097    -0.7568 C.ar    
   6 C6            -2.3530     4.3028     0.0226 C.ar    
   7 C7            -2.1203     5.3457     0.9154 C.ar    
   8 C8            -0.8556     5.8876     1.0276 C.ar    
   9 C9             0.1837     5.3986     0.2560 C.ar    
  10 C10           -0.0336     4.3603    -0.6296 C.ar    
  11 O11           -3.7587     6.0910     5.6117 O.3     
  12 C12           -2.6596     6.9917     5.8442 C.3     
  13 O13           -1.4951     6.1778     5.6112 O.3     
  14 C14           -1.8940     5.2131     4.7307 C.ar    
  15 C15           -3.2859     5.1592     4.7325 C.ar    
  16 C16           -1.1699     4.3641     3.9131 C.ar    
  17 C17           -1.8226     3.4511     3.0904 C.ar    
  18 C18           -3.2132     3.4001     3.1075 C.ar    
  19 C19           -3.9380     4.2498     3.9170 C.ar    
  20 O20           -1.3063     2.5489     2.2075 O.3     
  21 C21           -3.6146     2.3111     2.1491 C.3     
  22 C22           -2.3024     1.5516     1.9100 C.3     
  23 N23           -5.7185     1.4679     1.8576 N.am    
  24 C24           -4.6811     1.4192     2.7170 C.2     
  25 C25           -4.1880     2.8534     0.8739 C.ar    
  26 C26           -3.7100     3.7175    -0.1021 C.ar    
  27 C27           -4.5101     4.0338    -1.2000 C.ar    
  28 C28           -5.7725     3.4849    -1.3078 C.ar    
  29 C29           -6.2469     2.6262    -0.3370 C.ar    
  30 C30           -5.4590     2.3003     0.7657 C.ar    
  31 C31           -6.9719     0.7333     2.0463 C.3     
  32 C32           -7.9561     1.5985     2.8361 C.3     
  33 C33           -9.2652     0.8313     3.0332 C.3     
  34 C34          -10.2494     1.6964     3.8230 C.3     
  35 C35          -11.5584     0.9293     4.0201 C.3     
  36 O36           -4.6207     0.7803     3.7462 O.2     
  37 H37           -0.2512     0.7586    -3.4632 H       
  38 H38           -1.9896     1.1083    -3.6182 H       
  39 H39           -0.8306     1.8346    -4.7573 H       
  40 H40           -2.1772     2.0772    -1.4486 H       
  41 H41           -2.9288     5.7307     1.5193 H       
  42 H42           -0.6767     6.6967     1.7202 H       
  43 H43            1.1704     5.8276     0.3494 H       
  44 H44            0.7825     3.9802    -1.2262 H       
  45 H45           -2.6917     7.8244     5.1416 H       
  46 H46           -2.6733     7.3555     6.8716 H       
  47 H47           -0.0909     4.4104     3.9131 H       
  48 H48           -5.0171     4.2054     3.9150 H       
  49 H49           -2.2268     1.2265     0.8724 H       
  50 H50           -2.2165     0.7038     2.5897 H       
  51 H51           -4.1439     4.7055    -1.9624 H       
  52 H52           -6.3930     3.7294    -2.1572 H       
  53 H53           -7.2363     2.2037    -0.4323 H       
  54 H54           -7.4007     0.4906     1.0740 H       
  55 H55           -6.7746    -0.1868     2.5963 H       
  56 H56           -7.5273     1.8412     3.8084 H       
  57 H57           -8.1535     2.5186     2.2862 H       
  58 H58           -9.6939     0.5886     2.0609 H       
  59 H59           -9.0678    -0.0888     3.5831 H       
  60 H60           -9.8206     1.9391     4.7953 H       
  61 H61          -10.4467     2.6166     3.2730 H       
  62 H62          -11.9872     0.6866     3.0478 H       
  63 H63          -11.3610     0.0091     4.5700 H       
  64 H64          -12.2595     1.5456     4.5827 H       
@<TRIPOS>BOND
   1    1    2 1
   2    1    3 2
   3    1    4 am
   4    2   37 1
   5    2   38 1
   6    2   39 1
   7    4    5 1
   8    4   40 1
   9    5    6 ar
  10    5   10 ar
  11    6    7 ar
  12    6   26 1
  13    7    8 ar
  14    7   41 1
  15    8    9 ar
  16    8   42 1
  17    9   10 ar
  18    9   43 1
  19   10   44 1
  20   11   12 1
  21   11   15 1
  22   12   13 1
  23   12   45 1
  24   12   46 1
  25   13   14 1
  26   14   15 ar
  27   14   16 ar
  28   15   19 ar
  29   16   17 ar
  30   16   47 1
  31   17   18 ar
  32   17   20 1
  33   18   19 ar
  34   18   21 1
  35   19   48 1
  36   20   22 1
  37   21   22 1
  38   21   24 1
  39   21   25 1
  40   22   49 1
  41   22   50 1
  42   23   24 am
  43   23   30 1
  44   23   31 1
  45   24   36 2
  46   25   26 ar
  47   25   30 ar
  48   26   27 ar
  49   27   28 ar
  50   27   51 1
  51   28   29 ar
  52   28   52 1
  53   29   30 ar
  54   29   53 1
  55   31   32 1
  56   31   54 1
  57   31   55 1
  58   32   33 1
  59   32   56 1
  60   32   57 1
  61   33   34 1
  62   33   58 1
  63   33   59 1
  64   34   35 1
  65   34   60 1
  66   34   61 1
  67   35   62 1
  68   35   63 1
  69   35   64 1

#	End of record

