#	Name: ASD04590560
#	Creating user name:	WinNT
#	Creation time:	15. 06. 2019 20:51

#	Modifying user name:	WinNT
#	Modification time:	15. 06. 2019 20:51

#	Program:	/corina/corina34_cracker 3.40 0067  02.08.2006

@<TRIPOS>MOLECULE
ASD04590560
  66   71    0    0    0
SMALL
NO_CHARGES


@<TRIPOS>ATOM
   1 N1             2.2756     1.4479    -0.0336 N.ar    
   2 C2             2.4034     0.1287    -0.0480 C.ar    
   3 C3             1.2881    -0.6784    -0.0388 C.ar    
   4 C4             0.0242    -0.0953    -0.0069 C.ar    
   5 C5            -0.0733     1.2828     0.0104 C.ar    
   6 C6             1.0942     2.0390    -0.0052 C.ar    
   7 C7             3.7949    -0.4529    -0.0677 C.3     
   8 C8             3.7426    -1.9176    -0.5023 C.3     
   9 N9             2.7349    -2.6130     0.3141 N.3     
  10 C10            1.3868    -2.1799    -0.0676 C.3     
  11 N11            1.0173     3.4289     0.0098 N.pl3   
  12 C12            2.1738     4.1856     0.1067 C.ar    
  13 N13            2.0849     5.5022     0.0110 N.ar    
  14 C14            3.1724     6.2623     0.0990 C.ar    
  15 C15            4.4179     5.6326     0.2962 C.ar    
  16 C16            4.4615     4.2453     0.3908 C.ar    
  17 N17            3.3307     3.5649     0.2977 N.ar    
  18 N18            3.3769     7.6185     0.0377 N.pl3   
  19 C19            4.7212     7.9122     0.1880 C.ar    
  20 C20            5.4210     6.7036     0.3537 C.ar    
  21 C21            5.4399     9.1006     0.2021 C.ar    
  22 N22            6.7469     9.0915     0.3667 N.ar    
  23 C23            7.4338     7.9738     0.5249 C.ar    
  24 C24            6.8041     6.7473     0.5253 C.ar    
  25 C25            2.3211     8.6146    -0.1600 C.3     
  26 C26            1.3056     8.5145     0.9801 C.3     
  27 C27            0.2029     9.5549     0.7737 C.3     
  28 C28           -0.5004     9.2949    -0.5600 C.3     
  29 C29            0.5150     9.3950    -1.7000 C.3     
  30 C30            1.6178     8.3546    -1.4936 C.3     
  31 C31            2.8737    -4.0704     0.1929 C.3     
  32 C32            1.9866    -4.7555     1.2343 C.3     
  33 C33           -1.6031    10.3352    -0.7663 C.3     
  34 O34            4.6047     0.2853    -0.9849 O.3     
  35 O35            0.6142    -4.4812     0.9455 O.3     
  36 H36           -0.8642    -0.7093     0.0038 H       
  37 H37           -1.0395     1.7647     0.0353 H       
  38 H38            4.2288    -0.3869     0.9300 H       
  39 H39            3.4656    -1.9774    -1.5548 H       
  40 H40            4.7183    -2.3794    -0.3511 H       
  41 H41            0.6621    -2.6020     0.6287 H       
  42 H42            1.1651    -2.5364    -1.0735 H       
  43 H43            0.1540     3.8675    -0.0476 H       
  44 H44            5.4005     3.7335     0.5414 H       
  45 H45            4.9227    10.0404     0.0767 H       
  46 H46            8.5048     8.0218     0.6559 H       
  47 H47            7.3715     5.8376     0.6548 H       
  48 H48            2.7599     9.6123    -0.1691 H       
  49 H49            0.8668     7.5168     0.9892 H       
  50 H50            1.8067     8.6998     1.9302 H       
  51 H51           -0.5205     9.4835     1.5859 H       
  52 H52            0.6417    10.5526     0.7646 H       
  53 H53           -0.9393     8.2971    -0.5508 H       
  54 H54            0.0140     9.2097    -2.6502 H       
  55 H55            0.9539    10.3927    -1.7091 H       
  56 H56            2.3412     8.4259    -2.3058 H       
  57 H57            1.1789     7.3569    -1.4845 H       
  58 H58            2.5690    -4.3826    -0.8059 H       
  59 H59            3.9135    -4.3515     0.3600 H       
  60 H60            2.1561    -5.8319     1.2044 H       
  61 H61            2.2319    -4.3766     2.2264 H       
  62 H62           -1.1643    11.3329    -0.7755 H       
  63 H63           -2.1042    10.1500    -1.7165 H       
  64 H64           -2.3265    10.2639     0.0459 H       
  65 H65            4.6899     1.2237    -0.7672 H       
  66 H66           -0.0069    -4.8852     1.5669 H       
@<TRIPOS>BOND
   1    1    2 ar
   2    1    6 ar
   3    2    3 ar
   4    2    7 1
   5    3    4 ar
   6    3   10 1
   7    4    5 ar
   8    4   36 1
   9    5    6 ar
  10    5   37 1
  11    6   11 1
  12    7    8 1
  13    7   34 1
  14    7   38 1
  15    8    9 1
  16    8   39 1
  17    8   40 1
  18    9   10 1
  19    9   31 1
  20   10   41 1
  21   10   42 1
  22   11   12 1
  23   11   43 1
  24   12   13 ar
  25   12   17 ar
  26   13   14 ar
  27   14   15 ar
  28   14   18 1
  29   15   16 ar
  30   15   20 1
  31   16   17 ar
  32   16   44 1
  33   18   19 1
  34   18   25 1
  35   19   20 ar
  36   19   21 ar
  37   20   24 ar
  38   21   22 ar
  39   21   45 1
  40   22   23 ar
  41   23   24 ar
  42   23   46 1
  43   24   47 1
  44   25   26 1
  45   25   30 1
  46   25   48 1
  47   26   27 1
  48   26   49 1
  49   26   50 1
  50   27   28 1
  51   27   51 1
  52   27   52 1
  53   28   29 1
  54   28   33 1
  55   28   53 1
  56   29   30 1
  57   29   54 1
  58   29   55 1
  59   30   56 1
  60   30   57 1
  61   31   32 1
  62   31   58 1
  63   31   59 1
  64   32   35 1
  65   32   60 1
  66   32   61 1
  67   33   62 1
  68   33   63 1
  69   33   64 1
  70   34   65 1
  71   35   66 1

#	End of record

