#	Name: ASD00241041
#	Creating user name:	WinNT
#	Creation time:	15. 06. 2019 18:33

#	Modifying user name:	WinNT
#	Modification time:	15. 06. 2019 18:33

#	Program:	/corina/corina34_cracker 3.40 0067  02.08.2006

@<TRIPOS>MOLECULE
ASD00241041
  34   36    0    0    0
SMALL
NO_CHARGES


@<TRIPOS>ATOM
   1 N1            -0.0158     1.3162     0.0093 N.ar    
   2 C2             0.0021    -0.0041     0.0020 C.ar    
   3 N3             1.1222    -0.6955    -0.0124 N.ar    
   4 C4             2.2991    -0.0783    -0.0203 C.ar    
   5 C5             2.3336     1.3265    -0.0131 C.ar    
   6 C6             1.1116     2.0200     0.0023 C.ar    
   7 N7             3.6082    -0.4886    -0.0350 N.pl3   
   8 C8             4.3871     0.6301    -0.0364 C.2     
   9 N9             3.6375     1.6938    -0.0236 N.2     
  10 C10            4.0821    -1.8748    -0.0466 C.3     
  11 O11            5.1822    -2.0378     0.8748 O.3     
  12 C12            5.8701    -3.2306     0.4390 C.3     
  13 C13            5.8732    -3.1431    -1.1033 C.3     
  14 C14            4.6699    -2.2307    -1.4301 C.3     
  15 C15            7.3032    -3.2448     0.9746 C.3     
  16 O16            3.7071    -2.9345    -2.2172 O.3     
  17 O17            5.6903    -4.4383    -1.6786 O.3     
  18 N18            1.0828     3.4035     0.0100 N.pl3   
  19 Cl19           7.2720    -3.4014     2.7705 Cl      
  20 C20            5.8941     0.6344    -0.0508 C.3     
  21 H21           -0.9374    -0.5367     0.0085 H       
  22 H22            3.2695    -2.5550     0.2087 H       
  23 H23            5.3325    -4.1200     0.7675 H       
  24 H24            6.8007    -2.6939    -1.4585 H       
  25 H25            5.0025    -1.3304    -1.9468 H       
  26 H26            7.8431    -4.0889     0.5456 H       
  27 H27            7.8031    -2.3161     0.6995 H       
  28 H28            4.0425    -3.2349    -3.0730 H       
  29 H29            6.3874    -5.0701    -1.4550 H       
  30 H30            1.9125     3.9060     0.0048 H       
  31 H31            0.2328     3.8709     0.0206 H       
  32 H32            6.2476     0.6410    -1.0819 H       
  33 H33            6.2598     1.5227     0.4643 H       
  34 H34            6.2648    -0.2573     0.4547 H       
@<TRIPOS>BOND
   1    1    2 ar
   2    1    6 ar
   3    2    3 ar
   4    2   21 1
   5    3    4 ar
   6    4    5 ar
   7    4    7 1
   8    5    6 ar
   9    5    9 1
  10    6   18 1
  11    7    8 1
  12    7   10 1
  13    8    9 2
  14    8   20 1
  15   10   11 1
  16   10   14 1
  17   10   22 1
  18   11   12 1
  19   12   13 1
  20   12   15 1
  21   12   23 1
  22   13   14 1
  23   13   17 1
  24   13   24 1
  25   14   16 1
  26   14   25 1
  27   15   19 1
  28   15   26 1
  29   15   27 1
  30   16   28 1
  31   17   29 1
  32   18   30 1
  33   18   31 1
  34   20   32 1
  35   20   33 1
  36   20   34 1

#	End of record

