#	Name: ASD04842008
#	Creating user name:	WinNT
#	Creation time:	15. 06. 2019 20:52

#	Modifying user name:	WinNT
#	Modification time:	15. 06. 2019 20:52

#	Program:	/corina/corina34_cracker 3.40 0067  02.08.2006

@<TRIPOS>MOLECULE
ASD04842008
  13   12    0    0    0
SMALL
NO_CHARGES


@<TRIPOS>ATOM
   1 C1            -0.0184     1.5028     0.0103 C.2     
   2 C2             0.0021    -0.0041     0.0020 C.3     
   3 O3             1.0197     2.1211     0.0037 O.2     
   4 O4            -1.1898     2.1580     0.0194 O.3     
   5 N5             1.3897    -0.4735    -0.0138 N.2     
   6 N6             1.7741    -1.1192     0.8222 N.1     
   7 N7             2.1585    -1.7649     1.6581 N.pl3   
   8 C8            -1.1335     3.6089     0.0270 C.3     
   9 H9            -0.4983    -0.3791     0.8948 H       
  10 H10           -0.5153    -0.3696    -0.8850 H       
  11 H11           -0.6102     3.9569    -0.8636 H       
  12 H12           -2.1463     4.0118     0.0340 H       
  13 H13           -0.6017     3.9472     0.9164 H       
@<TRIPOS>BOND
   1    1    2 1
   2    1    3 2
   3    1    4 1
   4    2    5 1
   5    2    9 1
   6    2   10 1
   7    4    8 1
   8    5    6 2
   9    6    7 2
  10    8   11 1
  11    8   12 1
  12    8   13 1

#	End of record

