#	Name: ASD03092867
#	Creating user name:	WinNT
#	Creation time:	15. 06. 2019 20:33

#	Modifying user name:	WinNT
#	Modification time:	15. 06. 2019 20:33

#	Program:	/corina/corina34_cracker 3.40 0067  02.08.2006

@<TRIPOS>MOLECULE
ASD03092867
  38   40    0    0    0
SMALL
NO_CHARGES


@<TRIPOS>ATOM
   1 C1             0.3870     1.5291     0.2370 C.3     
   2 C2             0.3171     0.0017     0.1803 C.3     
   3 C3             0.9569    -0.4901    -1.1196 C.3     
   4 N4             0.8900    -1.9526    -1.1740 N.pl3   
   5 C5             1.4089    -2.6285    -2.2631 C.ar    
   6 N6             1.8757    -1.9486    -3.2987 N.ar    
   7 C7             2.3793    -2.5537    -4.3568 C.ar    
   8 C8             2.4422    -3.9337    -4.4315 C.ar    
   9 C9             1.9687    -4.6956    -3.3780 C.ar    
  10 C10            1.4432    -4.0340    -2.2624 C.ar    
  11 C11            0.9299    -4.7973    -1.1094 C.2     
  12 O12           -0.1493    -5.3559    -1.1811 O.2     
  13 C13            1.7208    -4.8833     0.1250 C.2     
  14 C14            2.9807    -4.3965     0.3243 C.2     
  15 N15            3.3809    -4.6662     1.5898 N.pl3   
  16 H16            4.2410    -4.4176     1.9629 H       
  17 C17            2.3926    -5.3446     2.2736 C.ar    
  18 C18            2.3023    -5.8423     3.5690 C.ar    
  19 C19            1.1570    -6.4934     3.9775 C.ar    
  20 Cl20           1.0505    -7.1124     5.5959 Cl      
  21 C21            0.0888    -6.6578     3.1066 C.ar    
  22 C22            0.1604    -6.1713     1.8194 C.ar    
  23 C23            1.3084    -5.5069     1.3962 C.ar    
  24 H24            1.4291     1.8466     0.2021 H       
  25 H25           -0.1496     1.9492    -0.6137 H       
  26 H26           -0.0688     1.8795     1.1631 H       
  27 H27            0.8536    -0.4184     1.0310 H       
  28 H28           -0.7250    -0.3159     0.2152 H       
  29 H29            0.4203    -0.0700    -1.9703 H       
  30 H30            1.9990    -0.1726    -1.1545 H       
  31 H31            0.4817    -2.4468    -0.4460 H       
  32 H32            2.7491    -1.9610    -5.1804 H       
  33 H33            2.8575    -4.4128    -5.3059 H       
  34 H34            2.0075    -5.7743    -3.4141 H       
  35 H35            3.5697    -3.8752    -0.4159 H       
  36 H36            3.1280    -5.7194     4.2542 H       
  37 H37           -0.8022    -7.1696     3.4392 H       
  38 H38           -0.6719    -6.3007     1.1434 H       
@<TRIPOS>BOND
   1    1    2 1
   2    1   24 1
   3    1   25 1
   4    1   26 1
   5    2    3 1
   6    2   27 1
   7    2   28 1
   8    3    4 1
   9    3   29 1
  10    3   30 1
  11    4    5 1
  12    4   31 1
  13    5   10 ar
  14    5    6 ar
  15    6    7 ar
  16    7    8 ar
  17    7   32 1
  18    8    9 ar
  19    8   33 1
  20    9   10 ar
  21    9   34 1
  22   10   11 1
  23   11   12 2
  24   11   13 1
  25   13   23 1
  26   13   14 2
  27   14   15 1
  28   14   35 1
  29   15   16 1
  30   15   17 1
  31   17   23 ar
  32   17   18 ar
  33   18   19 ar
  34   18   36 1
  35   19   20 1
  36   19   21 ar
  37   21   22 ar
  38   21   37 1
  39   22   23 ar
  40   22   38 1

#	End of record

