#	Name: ASD01881416
#	Creating user name:	WinNT
#	Creation time:	15. 06. 2019 19:42

#	Modifying user name:	WinNT
#	Modification time:	15. 06. 2019 19:42

#	Program:	/corina/corina34_cracker 3.40 0067  02.08.2006

@<TRIPOS>MOLECULE
ASD01881416
  57   58    0    0    0
SMALL
NO_CHARGES


@<TRIPOS>ATOM
   1 C1            -0.0179     1.4705     0.0101 C.2     
   2 C2             0.0021    -0.0041     0.0020 C.ar    
   3 C3             1.2211    -0.6885    -0.0133 C.ar    
   4 C4             1.2353    -2.0650    -0.0209 C.ar    
   5 C5             0.0396    -2.7746    -0.0138 C.ar    
   6 C6            -1.1744    -2.0980     0.0010 C.ar    
   7 C7            -1.1975    -0.7213     0.0154 C.ar    
   8 O8             1.0260     2.0922     0.0035 O.2     
   9 O9            -1.1939     2.1283     0.0193 O.3     
  10 C10            2.5486    -2.8039    -0.0374 C.3     
  11 O11            0.0580    -4.1314    -0.0217 O.3     
  12 C12           -1.2062    -4.7974    -0.0137 C.3     
  13 C13           -0.9852    -6.3113    -0.0245 C.3     
  14 C14           -2.3389    -7.0244    -0.0159 C.3     
  15 C15           -2.1179    -8.5384    -0.0267 C.3     
  16 O16           -3.3821    -9.2044    -0.0187 O.3     
  17 C17           -3.3637   -10.5609    -0.0267 C.ar    
  18 C18           -4.5581   -11.2676    -0.0196 C.ar    
  19 C19           -4.5417   -12.6513    -0.0277 C.ar    
  20 C20           -3.3104   -13.3316    -0.0431 C.ar    
  21 C21           -2.1145   -12.6012    -0.0500 C.ar    
  22 C22           -2.1467   -11.2370    -0.0476 C.ar    
  23 C23           -5.8715   -10.5289    -0.0026 C.3     
  24 C24           -3.2786   -14.7962    -0.0513 C.2     
  25 O25           -4.3160   -15.4256    -0.0448 O.2     
  26 C26           -1.9575   -15.5211    -0.0678 C.3     
  27 C27           -1.4967   -15.7742     1.3691 C.3     
  28 C28           -2.1183   -16.8577    -0.7948 C.3     
  29 O29           -5.7056   -13.3473    -0.0203 O.3     
  30 H30            2.1503    -0.1381    -0.0195 H       
  31 H31           -2.1010    -2.6530     0.0057 H       
  32 H32           -2.1413    -0.1964     0.0317 H       
  33 H33           -1.1564     3.0945     0.0244 H       
  34 H34            2.8750    -2.9876     0.9862 H       
  35 H35            2.4240    -3.7549    -0.5552 H       
  36 H36            3.2967    -2.2036    -0.5551 H       
  37 H37           -1.7588    -4.5173     0.8831 H       
  38 H38           -1.7755    -4.5071    -0.8968 H       
  39 H39           -0.4326    -6.5915    -0.9213 H       
  40 H40           -0.4160    -6.6017     0.8586 H       
  41 H41           -2.8915    -6.7443     0.8809 H       
  42 H42           -2.9081    -6.7341    -0.8990 H       
  43 H43           -1.5653    -8.8185    -0.9235 H       
  44 H44           -1.5486    -8.8287     0.8564 H       
  45 H45           -1.1665   -13.1185    -0.0619 H       
  46 H46           -1.2225   -10.6783    -0.0579 H       
  47 H47           -6.1980   -10.3446    -1.0260 H       
  48 H48           -6.6196   -11.1296     0.5148 H       
  49 H49           -5.7470    -9.5782     0.5159 H       
  50 H50           -1.2158   -14.9128    -0.5854 H       
  51 H51           -0.5412   -16.2985     1.3571 H       
  52 H52           -1.3822   -14.8220     1.8870 H       
  53 H53           -2.2385   -16.3824     1.8867 H       
  54 H54           -2.4466   -16.6774    -1.8184 H       
  55 H55           -1.1628   -17.3820    -0.8067 H       
  56 H56           -2.8600   -17.4659    -0.2771 H       
  57 H57           -6.0517   -13.5441    -0.9015 H       
@<TRIPOS>BOND
   1    1    2 1
   2    1    8 2
   3    1    9 1
   4    2    3 ar
   5    2    7 ar
   6    3    4 ar
   7    3   30 1
   8    4    5 ar
   9    4   10 1
  10    5    6 ar
  11    5   11 1
  12    6    7 ar
  13    6   31 1
  14    7   32 1
  15    9   33 1
  16   10   34 1
  17   10   35 1
  18   10   36 1
  19   11   12 1
  20   12   13 1
  21   12   37 1
  22   12   38 1
  23   13   14 1
  24   13   39 1
  25   13   40 1
  26   14   15 1
  27   14   41 1
  28   14   42 1
  29   15   16 1
  30   15   43 1
  31   15   44 1
  32   16   17 1
  33   17   18 ar
  34   17   22 ar
  35   18   19 ar
  36   18   23 1
  37   19   20 ar
  38   19   29 1
  39   20   21 ar
  40   20   24 1
  41   21   22 ar
  42   21   45 1
  43   22   46 1
  44   23   47 1
  45   23   48 1
  46   23   49 1
  47   24   25 2
  48   24   26 1
  49   26   27 1
  50   26   28 1
  51   26   50 1
  52   27   51 1
  53   27   52 1
  54   27   53 1
  55   28   54 1
  56   28   55 1
  57   28   56 1
  58   29   57 1

#	End of record

