#	Name: ASD01900616
#	Creating user name:	WinNT
#	Creation time:	15. 06. 2019 19:52

#	Modifying user name:	WinNT
#	Modification time:	15. 06. 2019 19:52

#	Program:	/corina/corina34_cracker 3.40 0067  02.08.2006

@<TRIPOS>MOLECULE
ASD01900616
  40   42    0    0    0
SMALL
NO_CHARGES


@<TRIPOS>ATOM
   1 C1             0.9696     3.0983     0.7497 C.ar    
   2 N2             1.9700     3.5455     1.4944 N.ar    
   3 C3             3.1383     2.9288     1.4974 C.ar    
   4 C4             3.3096     1.8002     0.7078 C.ar    
   5 C5             2.2400     1.3600    -0.0596 C.ar    
   6 N6             1.0991     2.0245    -0.0152 N.ar    
   7 C7            -0.3306     3.8149     0.7778 C.2     
   8 O8            -0.4671     4.7984     1.4778 O.2     
   9 N9            -1.3593     3.3742     0.0268 N.am    
  10 C10           -2.6111     3.9889     0.1263 C.ar    
  11 C11           -2.6990     5.3590     0.3371 C.ar    
  12 C12           -3.9371     5.9629     0.4350 C.ar    
  13 C13           -5.0886     5.2052     0.3232 C.ar    
  14 C14           -5.0045     3.8410     0.1132 C.ar    
  15 C15           -3.7696     3.2316     0.0087 C.ar    
  16 S16           -6.6662     5.9797     0.4492 S.o2    
  17 O17           -7.5282     4.9467     0.9061 O.2     
  18 O18           -6.4266     7.1367     1.2387 O.2     
  19 C19           -7.0789     6.4461    -1.2546 C.3     
  20 C20           -8.4236     7.1260    -1.2776 C.ar    
  21 C21           -8.5074     8.4990    -1.1271 C.ar    
  22 C22           -9.7421     9.1225    -1.1488 C.ar    
  23 C23          -10.8913     8.3737    -1.3209 C.ar    
  24 C24          -10.8069     7.0022    -1.4707 C.ar    
  25 C25           -9.5727     6.3791    -1.4548 C.ar    
  26 Cl26          -7.0638     9.4386    -0.9106 Cl      
  27 H27            3.9501     3.2985     2.1063 H       
  28 H28            4.2540     1.2766     0.6906 H       
  29 H29            2.3394     0.4854    -0.6854 H       
  30 H30           -1.2311     2.6306    -0.5828 H       
  31 H31           -1.8002     5.9512     0.4249 H       
  32 H32           -4.0062     7.0281     0.5993 H       
  33 H33           -5.9057     3.2521     0.0264 H       
  34 H34           -3.7047     2.1668    -0.1597 H       
  35 H35           -6.3202     7.1281    -1.6385 H       
  36 H36           -7.1129     5.5524    -1.8778 H       
  37 H37           -9.8082    10.1940    -1.0311 H       
  38 H38          -11.8552     8.8603    -1.3378 H       
  39 H39          -11.7050     6.4175    -1.6043 H       
  40 H40           -9.5070     5.3080    -1.5763 H       
@<TRIPOS>BOND
   1    1    2 ar
   2    1    6 ar
   3    1    7 1
   4    2    3 ar
   5    3    4 ar
   6    3   27 1
   7    4    5 ar
   8    4   28 1
   9    5    6 ar
  10    5   29 1
  11    7    8 2
  12    7    9 am
  13    9   10 1
  14    9   30 1
  15   10   11 ar
  16   10   15 ar
  17   11   12 ar
  18   11   31 1
  19   12   13 ar
  20   12   32 1
  21   13   14 ar
  22   13   16 1
  23   14   15 ar
  24   14   33 1
  25   15   34 1
  26   16   17 2
  27   16   18 2
  28   16   19 1
  29   19   20 1
  30   19   35 1
  31   19   36 1
  32   20   21 ar
  33   20   25 ar
  34   21   22 ar
  35   21   26 1
  36   22   23 ar
  37   22   37 1
  38   23   24 ar
  39   23   38 1
  40   24   25 ar
  41   24   39 1
  42   25   40 1

#	End of record

