#	Name: ASD01870605
#	Creating user name:	WinNT
#	Creation time:	15. 06. 2019 19:39

#	Modifying user name:	WinNT
#	Modification time:	15. 06. 2019 19:39

#	Program:	/corina/corina34_cracker 3.40 0067  02.08.2006

@<TRIPOS>MOLECULE
ASD01870605
  43   46    0    0    0
SMALL
NO_CHARGES


@<TRIPOS>ATOM
   1 C1            -0.0461     1.4074    -0.0167 C.ar    
   2 C2            -0.0330     0.0194    -0.0272 C.ar    
   3 C3             1.1645    -0.6693    -0.0414 C.ar    
   4 C4             2.3701     0.0158    -0.0453 C.ar    
   5 C5             2.3738     1.4010    -0.0349 C.ar    
   6 C6             1.1524     2.1055    -0.0204 C.ar    
   7 C7             3.4342     2.4307    -0.0351 C.2     
   8 N8             2.8531     3.6439    -0.0216 N.am    
   9 C9             1.5121     3.5381    -0.0119 C.2     
  10 C10            3.5536     4.8595    -0.0170 C.ar    
  11 C11            3.8918     5.4703    -1.2173 C.ar    
  12 C12            4.5813     6.6660    -1.2131 C.ar    
  13 C13            4.9365     7.2585    -0.0080 C.ar    
  14 C14            4.5977     6.6476     1.1923 C.ar    
  15 C15            3.9035     5.4543     1.1875 C.ar    
  16 O16            0.7281     4.4657     0.0011 O.2     
  17 O17            4.6298     2.2172    -0.0451 O.2     
  18 N18            5.6361     8.4708    -0.0034 N.am    
  19 C19            6.5435     8.7289    -0.9660 C.2     
  20 C20            7.1909    10.0428    -1.0299 C.2     
  21 O21            6.8254     7.8712    -1.7823 O.2     
  22 C22            8.1226    10.4346    -1.9484 C.2     
  23 C23            8.4649    11.7595    -1.6360 C.2     
  24 C24            7.7365    12.1140    -0.5544 C.2     
  25 O25            6.9665    11.0787    -0.1952 O.3     
  26 C26            8.6762     9.6049    -3.0781 C.3     
  27 C27            3.5308     4.7941     2.4900 C.3     
  28 Cl28          -1.5552     2.2654    -0.0061 Cl      
  29 H29           -0.9653    -0.5258    -0.0239 H       
  30 H30            1.1617    -1.7493    -0.0491 H       
  31 H31            3.3028    -0.5286    -0.0560 H       
  32 H32            3.6156     5.0096    -2.1543 H       
  33 H33            4.8449     7.1406    -2.1467 H       
  34 H34            4.8740     7.1079     2.1294 H       
  35 H35            5.4680     9.1252     0.6926 H       
  36 H36            9.1769    12.3789    -2.1611 H       
  37 H37            7.7673    13.0753    -0.0630 H       
  38 H38            8.0600     9.7434    -3.9665 H       
  39 H39            9.6980     9.9183    -3.2921 H       
  40 H40            8.6711     8.5530    -2.7927 H       
  41 H41            4.3314     4.1219     2.7987 H       
  42 H42            3.3818     5.5569     3.2543 H       
  43 H43            2.6098     4.2262     2.3590 H       
@<TRIPOS>BOND
   1    1    2 ar
   2    1    6 ar
   3    1   28 1
   4    2    3 ar
   5    2   29 1
   6    3    4 ar
   7    3   30 1
   8    4    5 ar
   9    4   31 1
  10    5    7 1
  11    5    6 ar
  12    6    9 1
  13    7    8 am
  14    7   17 2
  15    8    9 am
  16    8   10 1
  17    9   16 2
  18   10   11 ar
  19   10   15 ar
  20   11   12 ar
  21   11   32 1
  22   12   13 ar
  23   12   33 1
  24   13   14 ar
  25   13   18 1
  26   14   15 ar
  27   14   34 1
  28   15   27 1
  29   18   19 am
  30   18   35 1
  31   19   20 1
  32   19   21 2
  33   20   22 2
  34   20   25 1
  35   22   23 1
  36   22   26 1
  37   23   24 2
  38   23   36 1
  39   24   25 1
  40   24   37 1
  41   26   38 1
  42   26   39 1
  43   26   40 1
  44   27   41 1
  45   27   42 1
  46   27   43 1

#	End of record

