#	Name: ASD07930688
#	Creating user name:	WinNT
#	Creation time:	15. 06. 2019 21:13

#	Modifying user name:	WinNT
#	Modification time:	15. 06. 2019 21:13

#	Program:	/corina/corina34_cracker 3.40 0067  02.08.2006

@<TRIPOS>MOLECULE
ASD07930688
  40   42    0    0    0
SMALL
NO_CHARGES


@<TRIPOS>ATOM
   1 C1            -0.0862     1.4516     0.2578 C.3     
   2 N2             0.6202    -0.2460    -2.0938 N.2     
   3 N3            -0.9712    -1.7130    -1.2125 N.pl3   
   4 C4            -0.9005    -2.8248    -0.2586 C.3     
   5 C5            -1.1285    -2.2886     1.1614 C.3     
   6 S6             0.1020    -0.9864     1.4846 S.o2    
   7 N7            -0.0380    -0.0081     0.1430 N.am    
   8 C8            -0.1072    -0.6443    -1.0882 C.2     
   9 C9             0.4788    -3.4819    -0.3413 C.3     
  10 O10           -0.3061    -0.1651     2.5701 O.2     
  11 O11            1.4212    -1.5092     1.4097 O.2     
  12 C12           -1.9634    -3.8404    -0.5898 C.2     
  13 C13           -2.8235    -3.6916    -1.6589 C.2     
  14 C14           -3.7125    -4.6928    -1.8104 C.2     
  15 S15           -3.4656    -5.8927    -0.5483 S.3     
  16 C16           -2.1397    -4.9554     0.1271 C.2     
  17 C17           -4.7376    -4.7704    -2.8730 C.ar    
  18 C18           -5.6039    -5.8591    -2.9275 C.ar    
  19 C19           -6.5687    -5.9253    -3.9323 C.ar    
  20 C20           -6.6595    -4.8980    -4.8781 C.ar    
  21 C21           -5.7939    -3.8200    -4.8163 C.ar    
  22 C22           -4.8420    -3.7484    -3.8202 C.ar    
  23 C23           -7.4636    -7.0415    -3.9963 C.1     
  24 Cl24          -1.2064    -5.4053     1.5200 Cl      
  25 N25           -8.1734    -7.9269    -4.0471 N.1     
  26 F26           -7.5929    -4.9588    -5.8529 F       
  27 H27            0.9258     1.8536     0.2085 H       
  28 H28           -0.6799     1.8609    -0.5596 H       
  29 H29           -0.5403     1.7264     1.2098 H       
  30 H30            1.2226     0.5070    -1.9885 H       
  31 H31           -1.6217    -1.7307    -1.9319 H       
  32 H32           -2.1329    -1.8727     1.2403 H       
  33 H33           -1.0069    -3.0963     1.8831 H       
  34 H34            1.2465    -2.7468    -0.0997 H       
  35 H35            0.5307    -4.3081     0.3678 H       
  36 H36            0.6417    -3.8589    -1.3510 H       
  37 H37           -2.7871    -2.8396    -2.3217 H       
  38 H38           -5.5288    -6.6492    -2.1950 H       
  39 H39           -5.8668    -3.0293    -5.5482 H       
  40 H40           -4.1698    -2.9042    -3.7776 H       
@<TRIPOS>BOND
   1    1    7 1
   2    1   27 1
   3    1   28 1
   4    1   29 1
   5    2    8 2
   6    2   30 1
   7    3    4 1
   8    3    8 1
   9    3   31 1
  10    4    5 1
  11    4    9 1
  12    4   12 1
  13    5    6 1
  14    5   32 1
  15    5   33 1
  16    6    7 am
  17    6   10 2
  18    6   11 2
  19    7    8 1
  20    9   34 1
  21    9   35 1
  22    9   36 1
  23   12   13 1
  24   12   16 2
  25   13   14 2
  26   13   37 1
  27   14   15 1
  28   14   17 1
  29   15   16 1
  30   16   24 1
  31   17   18 ar
  32   17   22 ar
  33   18   19 ar
  34   18   38 1
  35   19   20 ar
  36   19   23 1
  37   20   21 ar
  38   20   26 1
  39   21   22 ar
  40   21   39 1
  41   22   40 1
  42   23   25 3

#	End of record

