#	Name: ASD03330741
#	Creating user name:	WinNT
#	Creation time:	15. 06. 2019 20:37

#	Modifying user name:	WinNT
#	Modification time:	15. 06. 2019 20:37

#	Program:	/corina/corina34_cracker 3.40 0067  02.08.2006

@<TRIPOS>MOLECULE
ASD03330741
  60   62    0    0    0
SMALL
NO_CHARGES


@<TRIPOS>ATOM
   1 C1            -0.4155     1.2285     0.5067 C.2     
   2 N2            -0.2813    -0.1216     0.4212 N.pl3   
   3 C3             0.8216     1.7385     0.7602 C.2     
   4 N4             1.6912     0.7057     0.8088 N.2     
   5 C5             1.0390    -0.4141     0.6007 C.2     
   6 C6             1.6359    -1.7671     0.5665 C.ar    
   7 C7             1.1525     3.1622     0.9474 C.2     
   8 O8             0.2773     4.0040     0.8797 O.2     
   9 C9             2.7737     4.9523     1.2706 C.3     
  10 N10            2.4251     3.5315     1.1938 N.am    
  11 C11            3.1166     5.4696    -0.1278 C.3     
  12 C12            3.9642     5.1291     2.1776 C.2     
  13 O13            4.4696     4.1637     2.7099 O.2     
  14 C14           -1.3736    -1.0713     0.1919 C.3     
  15 C15           -2.2405    -0.5696    -0.9671 C.3     
  16 C16           -3.3195     0.3684    -0.4357 C.3     
  17 N17           -2.8306     1.1390     0.7094 N.3     
  18 C18           -1.6988     1.9983     0.3313 C.3     
  19 C19            2.9516    -1.9411     0.1357 C.ar    
  20 C20            0.8870    -2.8730     0.9704 C.ar    
  21 C21            1.4481    -4.1324     0.9366 C.ar    
  22 C22            2.7536    -4.3005     0.5029 C.ar    
  23 C23            3.5034    -3.2047     0.1057 C.ar    
  24 F24            3.2990    -5.5361     0.4725 F       
  25 C25           -3.9123     1.9285     1.3132 C.3     
  26 N26            4.4671     6.3601     2.3972 N.am    
  27 C27            5.6244     6.5320     3.2789 C.3     
  28 C28            4.2045     4.5884    -0.7450 C.3     
  29 C29            4.4062     4.9785    -2.2106 C.3     
  30 C30            5.5148     4.7847     0.0200 C.3     
  31 H31            1.9277     5.5130     1.6681 H       
  32 H32            3.1101     2.8565     1.3202 H       
  33 H33            2.2256     5.4397    -0.7549 H       
  34 H34            3.4770     6.4959    -0.0573 H       
  35 H35           -0.9604    -2.0483    -0.0586 H       
  36 H36           -1.9815    -1.1519     1.0931 H       
  37 H37           -1.6155    -0.0348    -1.6822 H       
  38 H38           -2.7107    -1.4192    -1.4623 H       
  39 H39           -3.6182     1.0552    -1.2277 H       
  40 H40           -4.1845    -0.2192    -0.1282 H       
  41 H41           -1.6836     2.8824     0.9687 H       
  42 H42           -1.8030     2.3006    -0.7108 H       
  43 H43            3.5368    -1.0879    -0.1740 H       
  44 H44           -0.1302    -2.7430     1.3092 H       
  45 H45            0.8693    -4.9890     1.2490 H       
  46 H46            4.5204    -3.3410    -0.2315 H       
  47 H47           -4.7034     1.2603     1.6536 H       
  48 H48           -3.5218     2.4910     2.1612 H       
  49 H49           -4.3144     2.6199     0.5727 H       
  50 H50            4.0628     7.1322     1.9714 H       
  51 H51            5.8855     7.5888     3.3338 H       
  52 H52            5.3791     6.1660     4.2759 H       
  53 H53            6.4696     5.9690     2.8829 H       
  54 H54            3.9022     3.5428    -0.6856 H       
  55 H55            4.7085     6.0240    -2.2700 H       
  56 H56            5.1812     4.3507    -2.6503 H       
  57 H57            3.4727     4.8387    -2.7556 H       
  58 H58            6.3384     4.3621    -0.5555 H       
  59 H59            5.6889     5.8494     0.1755 H       
  60 H60            5.4508     4.2823     0.9852 H       
@<TRIPOS>BOND
   1    1    2 1
   2    1    3 2
   3    1   18 1
   4    2   14 1
   5    2    5 1
   6    3    4 1
   7    3    7 1
   8    4    5 2
   9    5    6 1
  10    6   20 ar
  11    6   19 ar
  12    7    8 2
  13    7   10 am
  14    9   10 1
  15    9   11 1
  16    9   12 1
  17    9   31 1
  18   10   32 1
  19   11   28 1
  20   11   33 1
  21   11   34 1
  22   12   13 2
  23   12   26 am
  24   14   15 1
  25   14   35 1
  26   14   36 1
  27   15   16 1
  28   15   37 1
  29   15   38 1
  30   16   17 1
  31   16   39 1
  32   16   40 1
  33   17   18 1
  34   17   25 1
  35   18   41 1
  36   18   42 1
  37   19   23 ar
  38   19   43 1
  39   20   21 ar
  40   20   44 1
  41   21   22 ar
  42   21   45 1
  43   22   23 ar
  44   22   24 1
  45   23   46 1
  46   25   47 1
  47   25   48 1
  48   25   49 1
  49   26   27 1
  50   26   50 1
  51   27   51 1
  52   27   52 1
  53   27   53 1
  54   28   29 1
  55   28   30 1
  56   28   54 1
  57   29   55 1
  58   29   56 1
  59   29   57 1
  60   30   58 1
  61   30   59 1
  62   30   60 1

#	End of record

