#	Name: ASD01120053
#	Creating user name:	WinNT
#	Creation time:	15. 06. 2019 18:58

#	Modifying user name:	WinNT
#	Modification time:	15. 06. 2019 18:58

#	Program:	/corina/corina34_cracker 3.40 0067  02.08.2006

@<TRIPOS>MOLECULE
ASD01120053
  57   60    0    0    0
SMALL
NO_CHARGES


@<TRIPOS>ATOM
   1 C1             0.0308     1.4930    -0.0815 C.ar    
   2 C2             0.0936     0.1317    -0.4100 C.ar    
   3 C3            -1.0537    -0.5791    -0.6851 C.ar    
   4 C4            -2.2945     0.0675    -0.6354 C.ar    
   5 C5            -2.3501     1.4437    -0.3026 C.ar    
   6 C6            -1.1696     2.1422    -0.0222 C.ar    
   7 N7            -3.4414    -0.5798    -0.8954 N.ar    
   8 C8            -4.5891     0.0530    -0.8413 C.ar    
   9 N9            -4.6895     1.3367    -0.5351 N.ar    
  10 C10           -3.6185     2.0699    -0.2608 C.ar    
  11 N11           -3.7382     3.4079     0.0575 N.pl3   
  12 C12           -4.9822     4.0392    -0.0323 C.ar    
  13 C13           -5.9885     3.4821    -0.8070 C.ar    
  14 C14           -7.2263     4.1145    -0.8929 C.ar    
  15 C15           -7.4469     5.3036    -0.1998 C.ar    
  16 C16           -6.4398     5.8519     0.5695 C.ar    
  17 C17           -5.2130     5.2226     0.6597 C.ar    
  18 C18           -8.3071     3.5244    -1.7202 C.2     
  19 O19            1.1772     2.1736     0.1866 O.3     
  20 O20            1.2989    -0.4931    -0.4579 O.3     
  21 C21            1.0479     3.5583     0.5150 C.3     
  22 C22            2.4331     4.1505     0.7825 C.3     
  23 C23            1.2972    -1.8809    -0.7985 C.3     
  24 C24            2.7339    -2.4069    -0.8020 C.3     
  25 C25           -9.5261     4.0870    -1.8445 C.2     
  26 S26          -10.4875     3.0646    -2.9094 S.3     
  27 C27           -9.1718     1.9879    -3.0851 C.2     
  28 N28           -8.1577     2.4008    -2.4068 N.2     
  29 C29           -9.1935     0.7341    -3.9209 C.3     
  30 C30           -4.1187     5.8265     1.5016 C.3     
  31 C31           -3.2069     6.6796     0.6174 C.3     
  32 H32           -0.9964    -1.6276    -0.9377 H       
  33 H33           -1.2072     3.1912     0.2319 H       
  34 H34           -5.4926    -0.4981    -1.0566 H       
  35 H35           -2.9591     3.9100     0.3434 H       
  36 H36           -5.8126     2.5608    -1.3424 H       
  37 H37           -8.4057     5.7964    -0.2648 H       
  38 H38           -6.6129     6.7733     1.1057 H       
  39 H39            0.5812     4.0868    -0.3162 H       
  40 H40            0.4293     3.6642     1.4062 H       
  41 H41            3.0517     4.0446    -0.1087 H       
  42 H42            2.3345     5.2067     1.0329 H       
  43 H43            2.8998     3.6220     1.6137 H       
  44 H44            0.7095    -2.4341    -0.0659 H       
  45 H45            0.8600    -2.0115    -1.7884 H       
  46 H46            3.1711    -2.2763     0.1879 H       
  47 H47            2.7326    -3.4655    -1.0618 H       
  48 H48            3.3216    -1.8537    -1.5346 H       
  49 H49           -9.8550     5.0018    -1.3740 H       
  50 H50          -10.1716     0.6268    -4.3897 H       
  51 H51           -8.4260     0.7983    -4.6922 H       
  52 H52           -8.9984    -0.1297    -3.2853 H       
  53 H53           -4.5604     6.4514     2.2778 H       
  54 H54           -3.5351     5.0306     1.9642 H       
  55 H55           -2.4154     7.1164     1.2263 H       
  56 H56           -2.7652     6.0547    -0.1588 H       
  57 H57           -3.7905     7.4755     0.1548 H       
@<TRIPOS>BOND
   1    1    2 ar
   2    1   19 1
   3    1    6 ar
   4    2    3 ar
   5    2   20 1
   6    3    4 ar
   7    3   32 1
   8    4    5 ar
   9    4    7 ar
  10    5    6 ar
  11    5   10 ar
  12    6   33 1
  13    7    8 ar
  14    8    9 ar
  15    8   34 1
  16    9   10 ar
  17   10   11 1
  18   11   12 1
  19   11   35 1
  20   12   13 ar
  21   12   17 ar
  22   13   14 ar
  23   13   36 1
  24   14   15 ar
  25   14   18 1
  26   15   16 ar
  27   15   37 1
  28   16   17 ar
  29   16   38 1
  30   17   30 1
  31   18   25 2
  32   18   28 1
  33   19   21 1
  34   20   23 1
  35   21   22 1
  36   21   39 1
  37   21   40 1
  38   22   41 1
  39   22   42 1
  40   22   43 1
  41   23   24 1
  42   23   44 1
  43   23   45 1
  44   24   46 1
  45   24   47 1
  46   24   48 1
  47   25   26 1
  48   25   49 1
  49   26   27 1
  50   27   28 2
  51   27   29 1
  52   29   50 1
  53   29   51 1
  54   29   52 1
  55   30   31 1
  56   30   53 1
  57   30   54 1
  58   31   55 1
  59   31   56 1
  60   31   57 1

#	End of record

