#	Name: ASD03090185
#	Creating user name:	WinNT
#	Creation time:	15. 06. 2019 20:28

#	Modifying user name:	WinNT
#	Modification time:	15. 06. 2019 20:28

#	Program:	/corina/corina34_cracker 3.40 0067  02.08.2006

@<TRIPOS>MOLECULE
ASD03090185
  48   50    0    0    0
SMALL
NO_CHARGES


@<TRIPOS>ATOM
   1 N1             0.4502     1.5156     1.4713 N.ar    
   2 C2             0.4116     0.1972     1.4367 C.ar    
   3 C3             1.5372    -0.5368     1.1256 C.ar    
   4 C4             2.7311     0.1371     0.8440 C.ar    
   5 C5             2.7275     1.5345     0.8915 C.ar    
   6 C6             1.5545     2.1906     1.2126 C.ar    
   7 C7             3.9638    -0.6091     0.5056 C.2     
   8 N8             5.7382    -3.4605    -0.5312 N.pl3   
   9 C9             4.8108    -4.4479    -0.8744 C.ar    
  10 C10            3.5940    -4.0927    -1.4424 C.ar    
  11 C11            2.6797    -5.0712    -1.7804 C.ar    
  12 C12            2.9742    -6.4029    -1.5536 C.ar    
  13 C13            4.1849    -6.7601    -0.9882 C.ar    
  14 C14            5.1061    -5.7875    -0.6536 C.ar    
  15 N15            4.0262    -1.8652     0.1121 N.2     
  16 C16            5.2970    -2.2061    -0.1052 C.2     
  17 N17            6.0669    -1.1720     0.1463 N.2     
  18 N18            5.2236    -0.1205     0.5401 N.pl3   
  19 C19            5.6294     1.2348     0.9206 C.3     
  20 C20            5.7348     2.1063    -0.3326 C.3     
  21 Cl21           1.5330     3.9253     1.2760 Cl      
  22 C22            6.1523     3.5004     0.0588 C.2     
  23 N23            6.3099     4.4472    -0.8874 N.am    
  24 O24            6.3463     3.7704     1.2251 O.2     
  25 C25            6.7157     5.8025    -0.5070 C.3     
  26 C26            6.0755     4.1211    -2.2963 C.3     
  27 C27            4.5016    -8.2129    -0.7429 C.3     
  28 F28            3.4267    -9.0023    -1.1656 F       
  29 F29            5.6502    -8.5672    -1.4588 F       
  30 F30            4.7219    -8.4179     0.6234 F       
  31 H31           -0.5140    -0.3144     1.6554 H       
  32 H32            1.4979    -1.6157     1.0999 H       
  33 H33            3.6279     2.0926     0.6812 H       
  34 H34            6.6884    -3.6466    -0.5888 H       
  35 H35            3.3630    -3.0526    -1.6191 H       
  36 H36            1.7334    -4.7957    -2.2221 H       
  37 H37            2.2572    -7.1660    -1.8182 H       
  38 H38            6.0513    -6.0671    -0.2121 H       
  39 H39            4.8879     1.6596     1.5972 H       
  40 H40            6.5977     1.1975     1.4197 H       
  41 H41            6.4763     1.6815    -1.0092 H       
  42 H42            4.7665     2.1436    -0.8317 H       
  43 H43            7.8035     5.8718    -0.5151 H       
  44 H44            6.3007     6.5186    -1.2162 H       
  45 H45            6.3450     6.0255     0.4935 H       
  46 H46            5.7836     3.0745    -2.3832 H       
  47 H47            5.2794     4.7541    -2.6881 H       
  48 H48            6.9891     4.2920    -2.8657 H       
@<TRIPOS>BOND
   1    1    2 ar
   2    1    6 ar
   3    2    3 ar
   4    2   31 1
   5    3    4 ar
   6    3   32 1
   7    4    5 ar
   8    4    7 1
   9    5    6 ar
  10    5   33 1
  11    6   21 1
  12    7   15 2
  13    7   18 1
  14    8    9 1
  15    8   16 1
  16    8   34 1
  17    9   10 ar
  18    9   14 ar
  19   10   11 ar
  20   10   35 1
  21   11   12 ar
  22   11   36 1
  23   12   13 ar
  24   12   37 1
  25   13   14 ar
  26   13   27 1
  27   14   38 1
  28   15   16 1
  29   16   17 2
  30   17   18 1
  31   18   19 1
  32   19   20 1
  33   19   39 1
  34   19   40 1
  35   20   22 1
  36   20   41 1
  37   20   42 1
  38   22   23 am
  39   22   24 2
  40   23   25 1
  41   23   26 1
  42   25   43 1
  43   25   44 1
  44   25   45 1
  45   26   46 1
  46   26   47 1
  47   26   48 1
  48   27   28 1
  49   27   29 1
  50   27   30 1

#	End of record

