#	Name: ASD04910244
#	Creating user name:	WinNT
#	Creation time:	15. 06. 2019 20:55

#	Modifying user name:	WinNT
#	Modification time:	15. 06. 2019 20:55

#	Program:	/corina/corina34_cracker 3.40 0067  02.08.2006

@<TRIPOS>MOLECULE
ASD04910244
  35   36    0    0    0
SMALL
NO_CHARGES


@<TRIPOS>ATOM
   1 C1            -0.0162     1.3866     0.0136 C.ar    
   2 C2             0.0092     0.0059     0.1705 C.ar    
   3 C3             1.2093    -0.6695     0.1525 C.ar    
   4 C4             2.4038     0.0364    -0.0243 C.ar    
   5 C5             2.3731     1.4258    -0.1822 C.ar    
   6 C6             1.1681     2.0923    -0.1624 C.ar    
   7 O7            -1.2022     2.0475     0.0268 O.3     
   8 C8             3.6565     2.1923    -0.3727 C.3     
   9 C9             1.2354    -2.1665     0.3237 C.3     
  10 N10            3.5958    -0.6286    -0.0424 N.2     
  11 N11            3.7343    -1.6847    -0.7701 N.2     
  12 C12            4.9281    -2.3507    -0.7881 C.ar    
  13 C13            5.0818    -3.4953    -1.5753 C.ar    
  14 C14            6.2889    -4.1618    -1.5885 C.ar    
  15 C15            7.3467    -3.7000    -0.8246 C.ar    
  16 C16            7.2018    -2.5678    -0.0425 C.ar    
  17 C17            6.0022    -1.8871    -0.0241 C.ar    
  18 C18            3.9312    -4.0000    -2.4073 C.3     
  19 O19            4.3346    -5.1732    -3.1164 O.3     
  20 H20           -0.9137    -0.5382     0.3070 H       
  21 H21            1.1434     3.1652    -0.2842 H       
  22 H22           -1.4800     2.3395     0.9058 H       
  23 H23            3.9336     2.1807    -1.4268 H       
  24 H24            3.5165     3.2225    -0.0452 H       
  25 H25            4.4477     1.7282     0.2161 H       
  26 H26            1.1603    -2.6452    -0.6527 H       
  27 H27            2.1695    -2.4612     0.8019 H       
  28 H28            0.3955    -2.4758     0.9457 H       
  29 H29            6.4091    -5.0466    -2.1960 H       
  30 H30            8.2898    -4.2261    -0.8388 H       
  31 H31            8.0313    -2.2136     0.5516 H       
  32 H32            5.8920    -1.0008     0.5831 H       
  33 H33            3.0901    -4.2399    -1.7568 H       
  34 H34            3.6322    -3.2303    -3.1188 H       
  35 H35            3.6420    -5.5535    -3.6739 H       
@<TRIPOS>BOND
   1    1    2 ar
   2    1    6 ar
   3    1    7 1
   4    2    3 ar
   5    2   20 1
   6    3    4 ar
   7    3    9 1
   8    4    5 ar
   9    4   10 1
  10    5    6 ar
  11    5    8 1
  12    6   21 1
  13    7   22 1
  14    8   23 1
  15    8   24 1
  16    8   25 1
  17    9   26 1
  18    9   27 1
  19    9   28 1
  20   10   11 2
  21   11   12 1
  22   12   13 ar
  23   12   17 ar
  24   13   14 ar
  25   13   18 1
  26   14   15 ar
  27   14   29 1
  28   15   16 ar
  29   15   30 1
  30   16   17 ar
  31   16   31 1
  32   17   32 1
  33   18   19 1
  34   18   33 1
  35   18   34 1
  36   19   35 1

#	End of record

