#	Name: ASD02038882
#	Creating user name:	WinNT
#	Creation time:	15. 06. 2019 20:17

#	Modifying user name:	WinNT
#	Modification time:	15. 06. 2019 20:17

#	Program:	/corina/corina34_cracker 3.40 0067  02.08.2006

@<TRIPOS>MOLECULE
ASD02038882
  33   34    0    0    0
SMALL
NO_CHARGES


@<TRIPOS>ATOM
   1 N1            -0.0179     1.4660     0.0101 N.am    
   2 C2             0.0021    -0.0041     0.0020 C.3     
   3 C3             1.4812    -0.4420    -0.0417 C.3     
   4 C4             2.1956     0.8049    -0.6268 C.3     
   5 C5             1.3719     1.9577    -0.0005 C.3     
   6 C6            -0.6521    -0.5324     1.2526 C.2     
   7 O7            -0.7900     0.1880     2.2128 O.2     
   8 O8            -1.0815    -1.8033     1.2998 O.3     
   9 C9            -1.1236     2.2365     0.0197 C.2     
  10 O10           -2.2237     1.7205     0.0223 O.2     
  11 O11           -1.0093     3.5780     0.0264 O.3     
  12 C12           -2.2424     4.3446     0.0367 C.3     
  13 C13           -1.9188     5.8165     0.0431 C.ar    
  14 C14           -1.7762     6.4980    -1.1511 C.ar    
  15 C15           -1.4793     7.8481    -1.1452 C.ar    
  16 C16           -1.3255     8.5167     0.0548 C.ar    
  17 C17           -1.4689     7.8354     1.2490 C.ar    
  18 C18           -1.7700     6.4862     1.2432 C.ar    
  19 H19           -0.5211    -0.3771    -0.8784 H       
  20 H20            1.8482    -0.6617     0.9609 H       
  21 H21            1.6093    -1.3030    -0.6977 H       
  22 H22            3.2356     0.8471    -0.3030 H       
  23 H23            2.1257     0.8207    -1.7144 H       
  24 H24            1.4517     2.8565    -0.6119 H       
  25 H25            1.7113     2.1579     1.0158 H       
  26 H26           -1.4947    -2.0967     2.1234 H       
  27 H27           -2.8266     4.1049    -0.8518 H       
  28 H28           -2.8179     4.0953     0.9281 H       
  29 H29           -1.8965     5.9756    -2.0887 H       
  30 H30           -1.3673     8.3804    -2.0782 H       
  31 H31           -1.0928     9.5713     0.0594 H       
  32 H32           -1.3483     8.3577     2.1866 H       
  33 H33           -1.8857     5.9547     2.1762 H       
@<TRIPOS>BOND
   1    1    2 1
   2    1    5 1
   3    1    9 am
   4    2    3 1
   5    2    6 1
   6    2   19 1
   7    3    4 1
   8    3   20 1
   9    3   21 1
  10    4    5 1
  11    4   22 1
  12    4   23 1
  13    5   24 1
  14    5   25 1
  15    6    7 2
  16    6    8 1
  17    8   26 1
  18    9   10 2
  19    9   11 1
  20   11   12 1
  21   12   13 1
  22   12   27 1
  23   12   28 1
  24   13   14 ar
  25   13   18 ar
  26   14   15 ar
  27   14   29 1
  28   15   16 ar
  29   15   30 1
  30   16   17 ar
  31   16   31 1
  32   17   18 ar
  33   17   32 1
  34   18   33 1

#	End of record

