#	Name: ASD01815586
#	Creating user name:	WinNT
#	Creation time:	15. 06. 2019 19:33

#	Modifying user name:	WinNT
#	Modification time:	15. 06. 2019 19:33

#	Program:	/corina/corina34_cracker 3.40 0067  02.08.2006

@<TRIPOS>MOLECULE
ASD01815586
  34   36    0    0    0
SMALL
NO_CHARGES


@<TRIPOS>ATOM
   1 C1             0.1647     1.4909     0.6781 C.ar    
   2 C2             0.1396     0.1025     0.6684 C.ar    
   3 C3             1.2901    -0.6210     0.4312 C.ar    
   4 C4             2.4905     0.0442     0.1987 C.ar    
   5 C5             2.5069     1.4499     0.2103 C.ar    
   6 C6             1.3333     2.1637     0.4520 C.ar    
   7 N7             3.6491    -0.6628    -0.0395 N.pl3   
   8 C8             4.8276    -0.0688    -0.2674 C.2     
   9 C9             4.9688     1.3041    -0.2806 C.2     
  10 C10            3.7842     2.1434    -0.0373 C.2     
  11 O11            3.8565     3.3598    -0.0393 O.2     
  12 C12            6.2800     1.9178    -0.5338 C.2     
  13 O13            7.2516     1.2151    -0.7339 O.2     
  14 O14            6.4052     3.2600    -0.5441 O.3     
  15 C15            3.5892    -2.1266    -0.0430 C.3     
  16 C16            3.4476    -2.6202    -1.4598 C.ar    
  17 C17            4.5684    -2.7592    -2.2601 C.ar    
  18 C18            4.4371    -3.2127    -3.5618 C.ar    
  19 C19            3.1876    -3.5266    -4.0621 C.ar    
  20 C20            2.0677    -3.3877    -3.2641 C.ar    
  21 C21            2.1973    -2.9402    -1.9601 C.ar    
  22 Cl22          -1.3551    -0.7315     0.9583 Cl      
  23 F23            1.1025    -2.8050    -1.1801 F       
  24 F24            5.7900    -2.4521    -1.7715 F       
  25 H25           -0.7454     2.0428     0.8609 H       
  26 H26            1.2595    -1.7006     0.4262 H       
  27 H27            1.3475     3.2435     0.4602 H       
  28 H28            5.6965    -0.6846    -0.4466 H       
  29 H29            7.2874     3.6173    -0.7150 H       
  30 H30            4.5042    -2.5287     0.3921 H       
  31 H31            2.7322    -2.4566     0.5441 H       
  32 H32            5.3115    -3.3210    -4.1865 H       
  33 H33            3.0861    -3.8803    -5.0775 H       
  34 H34            1.0917    -3.6326    -3.6563 H       
@<TRIPOS>BOND
   1    1    2 ar
   2    1    6 ar
   3    1   25 1
   4    2    3 ar
   5    2   22 1
   6    3    4 ar
   7    3   26 1
   8    4    5 ar
   9    4    7 1
  10    5    6 ar
  11    5   10 1
  12    6   27 1
  13    7    8 1
  14    7   15 1
  15    8    9 2
  16    8   28 1
  17    9   10 1
  18    9   12 1
  19   10   11 2
  20   12   13 2
  21   12   14 1
  22   14   29 1
  23   15   16 1
  24   15   30 1
  25   15   31 1
  26   16   17 ar
  27   16   21 ar
  28   17   18 ar
  29   17   24 1
  30   18   19 ar
  31   18   32 1
  32   19   20 ar
  33   19   33 1
  34   20   21 ar
  35   20   34 1
  36   21   23 1

#	End of record

