#	Name: ASD02038007
#	Creating user name:	WinNT
#	Creation time:	15. 06. 2019 20:16

#	Modifying user name:	WinNT
#	Modification time:	15. 06. 2019 20:16

#	Program:	/corina/corina34_cracker 3.40 0067  02.08.2006

@<TRIPOS>MOLECULE
ASD02038007
  47   50    0    0    0
SMALL
NO_CHARGES


@<TRIPOS>ATOM
   1 C1             1.0546    -0.4256    -0.8059 C.ar    
   2 C2             0.0017    -0.0035    -0.0052 C.ar    
   3 N3            -1.2000    -0.7217     0.0092 N.am    
   4 C4            -2.7164    -4.1819    -0.0498 C.3     
   5 N5            -2.3309    -2.7638     0.0080 N.am    
   6 C6            -1.1836    -2.0649    -0.0999 C.2     
   7 C7            -5.2643    -4.5182     0.0843 C.3     
   8 O8            -6.4926    -4.0955    -0.5112 O.3     
   9 C9            -7.6297    -4.7021    -0.0777 C.ar    
  10 C10           -8.8570    -4.3393    -0.6139 C.ar    
  11 C11           -7.5617    -5.6873     0.8963 C.ar    
  12 C12           -8.7161    -6.3042     1.3372 C.ar    
  13 C13           -9.9447    -5.9376     0.8054 C.ar    
  14 C14          -10.0113    -4.9549    -0.1738 C.ar    
  15 N15          -11.1174    -6.5604     1.2501 N.am    
  16 C16          -12.2426    -6.4996     0.5148 C.2     
  17 C17          -12.2608    -5.7791    -0.8064 C.3     
  18 C18          -11.3464    -4.5587    -0.7486 C.3     
  19 O19           -0.1337    -2.6462    -0.2957 O.2     
  20 O20          -13.2539    -7.0318     0.9212 O.2     
  21 C21            0.1427     1.1319     0.7817 C.ar    
  22 C22            1.3294     1.8384     0.7660 C.ar    
  23 C23            2.3771     1.4159    -0.0332 C.ar    
  24 C24            2.2392     0.2844    -0.8179 C.ar    
  25 Cl25           3.8671     2.3064    -0.0510 Cl      
  26 C26           -3.7484    -2.4440     0.2345 C.3     
  27 C27           -4.1039    -3.7293    -0.5255 C.3     
  28 H28            0.9490    -1.3109    -1.4154 H       
  29 H29           -2.0444    -0.2525     0.0976 H       
  30 H30           -2.1653    -4.7514    -0.7982 H       
  31 H31           -2.7293    -4.6683     0.9256 H       
  32 H32           -5.3007    -4.3386     1.1588 H       
  33 H33           -5.1177    -5.5822    -0.1014 H       
  34 H34           -8.9090    -3.5751    -1.3753 H       
  35 H35           -6.6056    -5.9724     1.3098 H       
  36 H36           -8.6628    -7.0717     2.0952 H       
  37 H37          -11.1185    -7.0392     2.0937 H       
  38 H38          -11.9124    -6.4516    -1.5903 H       
  39 H39          -13.2786    -5.4601    -1.0309 H       
  40 H40          -11.7995    -3.7951    -0.1163 H       
  41 H41          -11.2070    -4.1615    -1.7541 H       
  42 H42           -0.6749     1.4625     1.4050 H       
  43 H43            1.4396     2.7215     1.3778 H       
  44 H44            3.0585    -0.0435    -1.4405 H       
  45 H45           -4.0361    -2.4675     1.2855 H       
  46 H46           -4.0748    -1.5358    -0.2722 H       
  47 H47           -4.1867    -3.6020    -1.6049 H       
@<TRIPOS>BOND
   1    1    2 ar
   2    1   24 ar
   3    1   28 1
   4    2   21 ar
   5    2    3 1
   6    3    6 am
   7    3   29 1
   8    4    5 1
   9    4   27 1
  10    4   30 1
  11    4   31 1
  12    5    6 am
  13    5   26 1
  14    6   19 2
  15    7    8 1
  16    7   27 1
  17    7   32 1
  18    7   33 1
  19    8    9 1
  20    9   10 ar
  21    9   11 ar
  22   10   14 ar
  23   10   34 1
  24   11   12 ar
  25   11   35 1
  26   12   13 ar
  27   12   36 1
  28   13   14 ar
  29   13   15 1
  30   14   18 1
  31   15   16 am
  32   15   37 1
  33   16   17 1
  34   16   20 2
  35   17   18 1
  36   17   38 1
  37   17   39 1
  38   18   40 1
  39   18   41 1
  40   21   22 ar
  41   21   42 1
  42   22   23 ar
  43   22   43 1
  44   23   24 ar
  45   23   25 1
  46   24   44 1
  47   26   27 1
  48   26   45 1
  49   26   46 1
  50   27   47 1

#	End of record

