#	Name: ASD03170003
#	Creating user name:	WinNT
#	Creation time:	15. 06. 2019 20:33

#	Modifying user name:	WinNT
#	Modification time:	15. 06. 2019 20:33

#	Program:	/corina/corina34_cracker 3.40 0067  02.08.2006

@<TRIPOS>MOLECULE
ASD03170003
  57   64    0    0    0
SMALL
NO_CHARGES


@<TRIPOS>ATOM
   1 O1            -0.0164     1.3557     0.0095 O.3     
   2 C2             0.0021    -0.0041     0.0020 C.ar    
   3 C3             0.0233    -0.7382     1.1855 C.ar    
   4 C4             0.0641    -2.1226     1.2210 C.ar    
   5 C5             0.0753    -2.8498     0.0442 C.ar    
   6 C6            -0.0031    -2.1128    -1.1161 C.ar    
   7 C7            -0.0053    -0.7293    -1.1957 C.ar    
   8 O8             0.0440    -0.3330    -2.4853 O.3     
   9 C9             0.4487    -1.4524    -3.3204 C.3     
  10 C10           -0.0375    -2.6598    -2.5214 C.3     
  11 C11           -1.4605    -3.0432    -2.9150 C.3     
  12 C12           -1.9973    -4.0741    -1.9170 C.3     
  13 N13           -1.1010    -5.2367    -1.8872 N.3     
  14 C14            0.2526    -4.8634    -1.4624 C.3     
  15 C15            0.2417    -4.3323    -0.0408 C.3     
  16 C16            0.8591    -3.8899    -2.4829 C.3     
  17 O17            0.9136    -4.5001    -3.7739 O.3     
  18 C18            2.2646    -3.5045    -2.0018 C.3     
  19 C19            2.7583    -2.3571    -2.8439 C.2     
  20 C20            1.9507    -1.4412    -3.4332 C.2     
  21 N21            2.7133    -0.5350    -4.1268 N.pl3   
  22 C22            4.0354    -0.8496    -4.0025 C.ar    
  23 C23            4.1204    -2.0076    -3.1875 C.ar    
  24 C24            5.3547    -2.5814    -2.8677 C.ar    
  25 C25            6.4734    -1.9736    -3.3818 C.ar    
  26 C26            6.3962    -0.8444    -4.1807 C.ar    
  27 C27            5.1892    -0.2573    -4.5117 C.ar    
  28 C28           -1.6464    -6.3002    -1.0330 C.3     
  29 C29           -2.9315    -6.8472    -1.6574 C.3     
  30 C30           -3.5926    -8.0473    -0.9764 C.3     
  31 C31           -4.2324    -6.6613    -0.8739 C.3     
  32 H32            0.8616     1.7610     0.0033 H       
  33 H33            0.0075    -0.2013     2.1225 H       
  34 H34            0.0875    -2.6359     2.1709 H       
  35 H35           -0.0303    -1.4102    -4.2985 H       
  36 H36           -2.0943    -2.1565    -2.8993 H       
  37 H37           -1.4581    -3.4728    -3.9168 H       
  38 H38           -2.0464    -3.6274    -0.9239 H       
  39 H39           -2.9943    -4.3914    -2.2229 H       
  40 H40            0.8655    -5.7647    -1.4732 H       
  41 H41            1.1802    -4.6066     0.4408 H       
  42 H42           -0.5765    -4.8060     0.5018 H       
  43 H43            1.4703    -5.2898    -3.8125 H       
  44 H44            2.2233    -3.2002    -0.9559 H       
  45 H45            2.9361    -4.3559    -2.1127 H       
  46 H46            2.3645     0.2168    -4.6307 H       
  47 H47            5.4249    -3.4612    -2.2452 H       
  48 H48            7.4445    -2.3887    -3.1558 H       
  49 H49            7.3097    -0.4090    -4.5581 H       
  50 H50            5.1417     0.6226    -5.1362 H       
  51 H51           -0.9157    -7.1039    -0.9423 H       
  52 H52           -1.8661    -5.8957    -0.0449 H       
  53 H53           -2.9863    -6.7924    -2.7447 H       
  54 H54           -4.0826    -8.7817    -1.6156 H       
  55 H55           -3.1120    -8.4470    -0.0835 H       
  56 H56           -4.1727    -6.1492     0.0865 H       
  57 H57           -5.1434    -6.4839    -1.4456 H       
@<TRIPOS>BOND
   1    1    2 1
   2    1   32 1
   3    2    3 ar
   4    2    7 ar
   5    3    4 ar
   6    3   33 1
   7    4    5 ar
   8    4   34 1
   9    5    6 ar
  10    5   15 1
  11    6    7 ar
  12    6   10 1
  13    7    8 1
  14    8    9 1
  15    9   10 1
  16    9   20 1
  17    9   35 1
  18   10   11 1
  19   10   16 1
  20   11   12 1
  21   11   36 1
  22   11   37 1
  23   12   13 1
  24   12   38 1
  25   12   39 1
  26   13   14 1
  27   13   28 1
  28   14   15 1
  29   14   16 1
  30   14   40 1
  31   15   41 1
  32   15   42 1
  33   16   17 1
  34   16   18 1
  35   17   43 1
  36   18   19 1
  37   18   44 1
  38   18   45 1
  39   19   20 2
  40   19   23 1
  41   20   21 1
  42   21   22 1
  43   21   46 1
  44   22   23 ar
  45   22   27 ar
  46   23   24 ar
  47   24   25 ar
  48   24   47 1
  49   25   26 ar
  50   25   48 1
  51   26   27 ar
  52   26   49 1
  53   27   50 1
  54   28   29 1
  55   28   51 1
  56   28   52 1
  57   29   30 1
  58   29   31 1
  59   29   53 1
  60   30   31 1
  61   30   54 1
  62   30   55 1
  63   31   56 1
  64   31   57 1

#	End of record

