#	Name: ASD01230652
#	Creating user name:	WinNT
#	Creation time:	15. 06. 2019 19:14

#	Modifying user name:	WinNT
#	Modification time:	15. 06. 2019 19:14

#	Program:	/corina/corina34_cracker 3.40 0067  02.08.2006

@<TRIPOS>MOLECULE
ASD01230652
  46   49    0    0    0
SMALL
NO_CHARGES


@<TRIPOS>ATOM
   1 C1            -0.0144     1.2113     0.0087 C.2     
   2 O2             0.1993     0.1310     0.5232 O.2     
   3 C3             1.1144     2.0497    -0.4450 C.ar    
   4 C4             2.3868     1.8691     0.1022 C.ar    
   5 C5             3.4361     2.6549    -0.3263 C.ar    
   6 C6             3.2306     3.6205    -1.2962 C.ar    
   7 C7             1.9726     3.8049    -1.8427 C.ar    
   8 C8             0.9153     3.0226    -1.4273 C.ar    
   9 C9            -1.4032     1.6834    -0.1685 C.ar    
  10 C10           -2.4570     0.7672    -0.2006 C.ar    
  11 C11           -3.7509     1.2149    -0.3664 C.ar    
  12 C12           -4.0064     2.5684    -0.5006 C.ar    
  13 C13           -2.9671     3.4817    -0.4701 C.ar    
  14 C14           -1.6689     3.0485    -0.2988 C.ar    
  15 S15           -5.5456     4.8503     2.8838 S.o2    
  16 N16           -5.2000     3.9116     1.5748 N.am    
  17 C17           -5.7987     3.9886     0.4537 C.2     
  18 N18           -6.7895     4.8924     0.1653 N.pl3   
  19 C19           -6.9245     6.1404     0.9081 C.3     
  20 C20           -6.9889     5.8358     2.4061 C.3     
  21 C21           -5.4229     3.0500    -0.6814 C.3     
  22 C22           -5.5411     3.8422    -1.9858 C.3     
  23 C23           -6.9709     4.3116    -2.2188 C.3     
  24 C24           -7.7218     4.5540    -0.9152 C.3     
  25 O25           -5.8959     3.9172     3.8967 O.2     
  26 O26           -4.4023     5.6822     3.0254 O.2     
  27 H27            2.5485     1.1161     0.8594 H       
  28 H28            4.4204     2.5167     0.0962 H       
  29 H29            4.0557     4.2334    -1.6278 H       
  30 H30            1.8192     4.5605    -2.5989 H       
  31 H31           -0.0649     3.1644    -1.8578 H       
  32 H32           -2.2590    -0.2894    -0.0963 H       
  33 H33           -4.5667     0.5076    -0.3918 H       
  34 H34           -3.1735     4.5365    -0.5759 H       
  35 H35           -0.8593     3.7627    -0.2700 H       
  36 H36           -6.0657     6.7798     0.7037 H       
  37 H37           -7.8382     6.6493     0.6010 H       
  38 H38           -7.8989     5.2771     2.6246 H       
  39 H39           -6.9926     6.7703     2.9672 H       
  40 H40           -6.1040     2.1992    -0.6999 H       
  41 H41           -4.8837     4.7103    -1.9372 H       
  42 H42           -5.2332     3.2086    -2.8176 H       
  43 H43           -6.9492     5.2388    -2.7915 H       
  44 H44           -7.5013     3.5545    -2.7963 H       
  45 H45           -8.2725     3.6529    -0.6452 H       
  46 H46           -8.4248     5.3756    -1.0532 H       
@<TRIPOS>BOND
   1    1    2 2
   2    1    3 1
   3    1    9 1
   4    3    4 ar
   5    3    8 ar
   6    4    5 ar
   7    4   27 1
   8    5    6 ar
   9    5   28 1
  10    6    7 ar
  11    6   29 1
  12    7    8 ar
  13    7   30 1
  14    8   31 1
  15    9   10 ar
  16    9   14 ar
  17   10   11 ar
  18   10   32 1
  19   11   12 ar
  20   11   33 1
  21   12   13 ar
  22   12   21 1
  23   13   14 ar
  24   13   34 1
  25   14   35 1
  26   15   16 am
  27   15   20 1
  28   15   25 2
  29   15   26 2
  30   16   17 2
  31   17   18 1
  32   17   21 1
  33   18   19 1
  34   18   24 1
  35   19   20 1
  36   19   36 1
  37   19   37 1
  38   20   38 1
  39   20   39 1
  40   21   22 1
  41   21   40 1
  42   22   23 1
  43   22   41 1
  44   22   42 1
  45   23   24 1
  46   23   43 1
  47   23   44 1
  48   24   45 1
  49   24   46 1

#	End of record

