#	Name: ASD05730069
#	Creating user name:	WinNT
#	Creation time:	15. 06. 2019 21:02

#	Modifying user name:	WinNT
#	Modification time:	15. 06. 2019 21:02

#	Program:	/corina/corina34_cracker 3.40 0067  02.08.2006

@<TRIPOS>MOLECULE
ASD05730069
  73   77    0    0    0
SMALL
NO_CHARGES


@<TRIPOS>ATOM
   1 N1            -0.2226     1.9401    -0.3643 N.3     
   2 C2            -0.2588     0.6363     0.3129 C.3     
   3 C3            -1.7024     0.1305     0.3631 C.3     
   4 N4            -2.2298     0.0252    -1.0045 N.3     
   5 C5            -2.1935     1.3289    -1.6817 C.3     
   6 C6            -0.7499     1.8347    -1.7320 C.3     
   7 C7            -3.5255    -0.5034    -1.0031 C.ar    
   8 C8            -4.2032    -0.6836    -2.2018 C.ar    
   9 C9            -5.4815    -1.2056    -2.2004 C.ar    
  10 C10           -6.0894    -1.5503    -1.0004 C.ar    
  11 C11           -5.4117    -1.3701     0.1983 C.ar    
  12 C12           -4.1315    -0.8531     0.1966 C.ar    
  13 N13           -7.3863    -2.0794    -0.9990 N.pl3   
  14 C14           -7.7405    -3.0370    -0.0688 C.ar    
  15 N15           -9.0013    -3.4389    -0.0155 N.ar    
  16 C16           -9.3797    -4.3583     0.8653 C.ar    
  17 C17           -8.4124    -4.8968     1.7413 C.ar    
  18 C18           -7.0900    -4.4378     1.6450 C.ar    
  19 N19           -6.8028    -3.5250     0.7361 N.ar    
  20 N20          -10.6838    -4.7802     0.9278 N.am    
  21 C21          -11.0622    -5.7122     1.8235 C.2     
  22 C22          -10.0839    -6.2912     2.7467 C.2     
  23 C23           -8.7799    -5.8772     2.6908 C.2     
  24 C24          -11.6748    -4.2109     0.0112 C.3     
  25 C25          -11.7297    -5.0510    -1.2663 C.3     
  26 O26          -12.2242    -6.0751     1.8662 O.2     
  27 C27          -10.5012    -7.3160     3.7319 C.ar    
  28 C28          -10.6391    -6.9782     5.0775 C.ar    
  29 C29          -11.0281    -7.9371     5.9907 C.ar    
  30 C30          -11.2808    -9.2317     5.5740 C.ar    
  31 C31          -11.1460    -9.5741     4.2404 C.ar    
  32 C32          -10.7635    -8.6223     3.3159 C.ar    
  33 Cl33         -10.5947    -9.0530     1.6427 Cl      
  34 S34          -11.7759   -10.4499     6.7468 S.o2    
  35 C35          -13.5867   -10.3451     6.7713 C.3     
  36 O36          -11.3553   -11.6800     6.1731 O.2     
  37 C37            1.1376     2.4949    -0.3658 C.3     
  38 C38            1.1603     3.7873    -1.1844 C.3     
  39 C39            1.5679     2.7941     1.0716 C.3     
  40 O40          -11.2332    -9.9922     7.9778 O.2     
  41 H41            0.3571    -0.0759    -0.2362 H       
  42 H42            0.1247     0.7428     1.3276 H       
  43 H43           -1.7280    -0.8497     0.8392 H       
  44 H44           -2.3128     0.8291     0.9354 H       
  45 H45           -2.5771     1.2224    -2.6964 H       
  46 H46           -2.8095     2.0411    -1.1327 H       
  47 H47           -0.7244     2.8149    -2.2081 H       
  48 H48           -0.1395     1.1362    -2.3043 H       
  49 H49           -3.7306    -0.4152    -3.1351 H       
  50 H50           -6.0087    -1.3454    -3.1326 H       
  51 H51           -5.8846    -1.6382     1.1315 H       
  52 H52           -3.6044    -0.7129     1.1288 H       
  53 H53           -8.0357    -1.7733    -1.6513 H       
  54 H54           -6.3226    -4.8262     2.2981 H       
  55 H55           -8.0437    -6.2926     3.3630 H       
  56 H56          -12.6544    -4.2119     0.4891 H       
  57 H57          -11.3933    -3.1879    -0.2385 H       
  58 H58          -12.4671    -4.6274    -1.9483 H       
  59 H59          -10.7501    -5.0501    -1.7442 H       
  60 H60          -12.0112    -6.0740    -1.0166 H       
  61 H61          -10.4415    -5.9681     5.4047 H       
  62 H62          -11.1351    -7.6762     7.0333 H       
  63 H63          -11.3447   -10.5864     3.9211 H       
  64 H64          -13.9764   -10.5568     5.7756 H       
  65 H65          -13.9832   -11.0732     7.4790 H       
  66 H66          -13.8885    -9.3425     7.0740 H       
  67 H67            1.8241     1.7728    -0.8078 H       
  68 H68            0.4738     4.5095    -0.7425 H       
  69 H69            2.1695     4.1990    -1.1855 H       
  70 H70            0.8537     3.5742    -2.2085 H       
  71 H71            2.5772     3.2058     1.0705 H       
  72 H72            0.8814     3.5162     1.5136 H       
  73 H73            1.5517     1.8734     1.6548 H       
@<TRIPOS>BOND
   1    1    2 1
   2    1   37 1
   3    1    6 1
   4    2    3 1
   5    2   41 1
   6    2   42 1
   7    3    4 1
   8    3   43 1
   9    3   44 1
  10    4    5 1
  11    4    7 1
  12    5    6 1
  13    5   45 1
  14    5   46 1
  15    6   47 1
  16    6   48 1
  17    7    8 ar
  18    7   12 ar
  19    8    9 ar
  20    8   49 1
  21    9   10 ar
  22    9   50 1
  23   10   11 ar
  24   10   13 1
  25   11   12 ar
  26   11   51 1
  27   12   52 1
  28   13   14 1
  29   13   53 1
  30   14   15 ar
  31   14   19 ar
  32   15   16 ar
  33   16   17 ar
  34   16   20 1
  35   17   18 ar
  36   17   23 1
  37   18   19 ar
  38   18   54 1
  39   20   21 am
  40   20   24 1
  41   21   22 1
  42   21   26 2
  43   22   23 2
  44   22   27 1
  45   23   55 1
  46   24   25 1
  47   24   56 1
  48   24   57 1
  49   25   58 1
  50   25   59 1
  51   25   60 1
  52   27   28 ar
  53   27   32 ar
  54   28   29 ar
  55   28   61 1
  56   29   30 ar
  57   29   62 1
  58   30   31 ar
  59   30   34 1
  60   31   32 ar
  61   31   63 1
  62   32   33 1
  63   34   35 1
  64   34   36 2
  65   34   40 2
  66   35   64 1
  67   35   65 1
  68   35   66 1
  69   37   38 1
  70   37   39 1
  71   37   67 1
  72   38   68 1
  73   38   69 1
  74   38   70 1
  75   39   71 1
  76   39   72 1
  77   39   73 1

#	End of record

