#	Name: ASD01912606
#	Creating user name:	WinNT
#	Creation time:	15. 06. 2019 20:00

#	Modifying user name:	WinNT
#	Modification time:	15. 06. 2019 20:00

#	Program:	/corina/corina34_cracker 3.40 0067  02.08.2006

@<TRIPOS>MOLECULE
ASD01912606
  59   63    0    0    0
SMALL
NO_CHARGES


@<TRIPOS>ATOM
   1 C1            -0.0001     1.4256     0.4067 C.ar    
   2 C2            -0.0834     0.0698     0.0903 C.ar    
   3 C3             1.2602     2.1663     0.1759 C.2     
   4 N4             2.5081     1.6242     0.0827 N.pl3   
   5 C5             1.3842     3.5148     0.0119 C.2     
   6 C6             2.7465     3.8001    -0.1805 C.2     
   7 N7             3.4163     2.6674    -0.1376 N.2     
   8 C8             3.3300     5.1473    -0.3993 C.ar    
   9 C9             4.7040     5.2935    -0.5775 C.ar    
  10 C10            2.5050     6.2694    -0.4329 C.ar    
  11 C11            3.0528     7.5198    -0.6367 C.ar    
  12 C12            4.4182     7.6598    -0.8078 C.ar    
  13 C13            5.2413     6.5485    -0.7806 C.ar    
  14 C14            2.8402     0.2017     0.1942 C.3     
  15 C15            2.8831    -0.4134    -1.1808 C.2     
  16 N16            3.1711    -1.7221    -1.3249 N.am    
  17 O17            2.6584     0.2692    -2.1578 O.2     
  18 C18            3.2182    -2.3424    -2.6577 C.3     
  19 C19            4.5444    -3.0975    -2.7966 C.3     
  20 N20            4.6931    -4.0304    -1.6716 N.3     
  21 C21            4.7639    -3.3141    -0.3911 C.3     
  22 C22            3.4527    -2.5665    -0.1540 C.3     
  23 C23            5.7982    -4.8453    -1.8458 C.ar    
  24 N24            6.0856    -5.7514    -0.9228 N.ar    
  25 C25            7.1344    -6.5458    -1.0587 C.ar    
  26 C26            7.9358    -6.4215    -2.1827 C.ar    
  27 C27            7.6064    -5.4634    -3.1286 C.ar    
  28 N28            6.5405    -4.7044    -2.9342 N.ar    
  29 C29           -1.2616    -0.6153     0.3074 C.ar    
  30 C30           -2.3583     0.0399     0.8376 C.ar    
  31 C31           -2.2819     1.3849     1.1536 C.ar    
  32 C32           -1.1114     2.0820     0.9363 C.ar    
  33 C33           -3.4815     2.0910     1.7309 C.3     
  34 H34            0.7721    -0.4428    -0.3241 H       
  35 H35            0.5791     4.2345     0.0266 H       
  36 H36            5.3475     4.4264    -0.5565 H       
  37 H37            1.4387     6.1611    -0.3001 H       
  38 H38            2.4142     8.3903    -0.6629 H       
  39 H39            4.8427     8.6400    -0.9677 H       
  40 H40            6.3068     6.6634    -0.9148 H       
  41 H41            3.8139     0.0923     0.6718 H       
  42 H42            2.0825    -0.3023     0.7943 H       
  43 H43            2.3870    -3.0391    -2.7669 H       
  44 H44            3.1550    -1.5696    -3.4237 H       
  45 H45            4.5496    -3.6541    -3.7338 H       
  46 H46            5.3703    -2.3862    -2.7909 H       
  47 H47            4.9283    -4.0277     0.4163 H       
  48 H48            5.5867    -2.5998    -0.4189 H       
  49 H49            3.5422    -1.9433     0.7358 H       
  50 H50            2.6414    -3.2826    -0.0229 H       
  51 H51            7.3638    -7.2823    -0.3027 H       
  52 H52            8.7983    -7.0571    -2.3185 H       
  53 H53            8.2103    -5.3406    -4.0155 H       
  54 H54           -1.3275    -1.6651     0.0624 H       
  55 H55           -3.2782    -0.5004     1.0054 H       
  56 H56           -1.0530     3.1318     1.1833 H       
  57 H57           -3.4561     2.0205     2.8184 H       
  58 H58           -3.4635     3.1397     1.4342 H       
  59 H59           -4.3927     1.6234     1.3578 H       
@<TRIPOS>BOND
   1    1    2 ar
   2    1    3 1
   3    1   32 ar
   4    2   29 ar
   5    2   34 1
   6    3    4 1
   7    3    5 2
   8    4   14 1
   9    4    7 1
  10    5    6 1
  11    5   35 1
  12    6    7 2
  13    6    8 1
  14    8    9 ar
  15    8   10 ar
  16    9   13 ar
  17    9   36 1
  18   10   11 ar
  19   10   37 1
  20   11   12 ar
  21   11   38 1
  22   12   13 ar
  23   12   39 1
  24   13   40 1
  25   14   15 1
  26   14   41 1
  27   14   42 1
  28   15   16 am
  29   15   17 2
  30   16   18 1
  31   16   22 1
  32   18   19 1
  33   18   43 1
  34   18   44 1
  35   19   20 1
  36   19   45 1
  37   19   46 1
  38   20   21 1
  39   20   23 1
  40   21   22 1
  41   21   47 1
  42   21   48 1
  43   22   49 1
  44   22   50 1
  45   23   24 ar
  46   23   28 ar
  47   24   25 ar
  48   25   26 ar
  49   25   51 1
  50   26   27 ar
  51   26   52 1
  52   27   28 ar
  53   27   53 1
  54   29   30 ar
  55   29   54 1
  56   30   31 ar
  57   30   55 1
  58   31   32 ar
  59   31   33 1
  60   32   56 1
  61   33   57 1
  62   33   58 1
  63   33   59 1

#	End of record

