#	Name: ASD00990007
#	Creating user name:	WinNT
#	Creation time:	15. 06. 2019 18:54

#	Modifying user name:	WinNT
#	Modification time:	15. 06. 2019 18:54

#	Program:	/corina/corina34_cracker 3.40 0067  02.08.2006

@<TRIPOS>MOLECULE
ASD00990007
  52   54    0    0    0
SMALL
NO_CHARGES


@<TRIPOS>ATOM
   1 C1            -0.0189     1.5396     0.0105 C.3     
   2 C2             0.0021    -0.0041     0.0020 C.3     
   3 N3            -1.1287    -0.3986     0.8810 N.3     
   4 C4            -1.0813     0.5796     1.9980 C.3     
   5 C5            -0.7316     1.9235     1.3236 C.3     
   6 C6            -2.4233     0.6664     2.6781 C.2     
   7 N7            -2.5185     1.1880     3.9172 N.am    
   8 C8            -3.8231     1.2723     4.5782 C.3     
   9 O9            -3.4178     0.2668     2.1103 O.2     
  10 C10           -4.1337    -0.0186     5.3032 C.2     
  11 N11           -3.9230     0.1298     6.6225 N.am    
  12 O12           -4.5177    -1.0388     4.7715 O.2     
  13 C13           -4.1351    -0.9246     7.6172 C.3     
  14 C14           -2.8634    -1.7142     7.7912 C.2     
  15 N15           -2.8222    -2.7421     8.6619 N.am    
  16 O16           -1.8770    -1.4247     7.1476 O.2     
  17 C17           -3.4527     1.4837     6.9382 C.3     
  18 C18           -3.7946     2.3385     5.6978 C.3     
  19 N19            1.3478     2.0670     0.0003 N.am    
  20 C20            1.9914     2.2486    -1.1699 C.2     
  21 C21            3.3692     2.7804    -1.1802 C.ar    
  22 C22            4.0217     2.9622    -2.4050 C.ar    
  23 C23            5.2909     3.4499    -2.4522 C.ar    
  24 C24            5.9736     3.7855    -1.1997 C.ar    
  25 C25            5.2588     3.5818     0.0632 C.ar    
  26 C26            3.9885     3.0955     0.0347 C.ar    
  27 O27            1.4377     1.9746    -2.2170 O.2     
  28 N28            7.2071     4.2611    -1.2089 N.2     
  29 N29            7.7190     4.5144    -0.2408 N.1     
  30 N30            8.2309     4.7677     0.7273 N.pl3   
  31 H31           -0.5754     1.9154    -0.8480 H       
  32 H32           -0.1529    -0.3808    -1.0090 H       
  33 H33            0.9445    -0.3737     0.4061 H       
  34 H34           -2.0071    -0.3418     0.3876 H       
  35 H35           -0.3084     0.3013     2.7145 H       
  36 H36           -0.0645     2.5045     1.9605 H       
  37 H37           -1.6395     2.4878     1.1106 H       
  38 H38           -1.7231     1.5075     4.3712 H       
  39 H39           -4.6037     1.4994     3.8521 H       
  40 H40           -4.4165    -0.4746     8.5693 H       
  41 H41           -4.9313    -1.5880     7.2794 H       
  42 H42           -3.6111    -2.9737     9.1766 H       
  43 H43           -2.0036    -3.2504     8.7739 H       
  44 H44           -3.9720     1.8682     7.8161 H       
  45 H45           -2.3760     1.4789     7.1080 H       
  46 H46           -3.0189     3.0809     5.5098 H       
  47 H47           -4.7691     2.8142     5.8084 H       
  48 H48            1.7896     2.2856     0.8357 H       
  49 H49            3.5117     2.7121    -3.3236 H       
  50 H50            5.7890     3.5876    -3.4005 H       
  51 H51            5.7327     3.8188     1.0043 H       
  52 H52            3.4548     2.9424     0.9611 H       
@<TRIPOS>BOND
   1    1    2 1
   2    1   19 1
   3    1    5 1
   4    1   31 1
   5    2    3 1
   6    2   32 1
   7    2   33 1
   8    3    4 1
   9    3   34 1
  10    4    5 1
  11    4    6 1
  12    4   35 1
  13    5   36 1
  14    5   37 1
  15    6    7 am
  16    6    9 2
  17    7    8 1
  18    7   38 1
  19    8   10 1
  20    8   18 1
  21    8   39 1
  22   10   11 am
  23   10   12 2
  24   11   13 1
  25   11   17 1
  26   13   14 1
  27   13   40 1
  28   13   41 1
  29   14   15 am
  30   14   16 2
  31   15   42 1
  32   15   43 1
  33   17   18 1
  34   17   44 1
  35   17   45 1
  36   18   46 1
  37   18   47 1
  38   19   20 am
  39   19   48 1
  40   20   21 1
  41   20   27 2
  42   21   22 ar
  43   21   26 ar
  44   22   23 ar
  45   22   49 1
  46   23   24 ar
  47   23   50 1
  48   24   25 ar
  49   24   28 1
  50   25   26 ar
  51   25   51 1
  52   26   52 1
  53   28   29 2
  54   29   30 2

#	End of record

