#	Name: ASD03330289
#	Creating user name:	WinNT
#	Creation time:	15. 06. 2019 20:37

#	Modifying user name:	WinNT
#	Modification time:	15. 06. 2019 20:37

#	Program:	/corina/corina34_cracker 3.40 0067  02.08.2006

@<TRIPOS>MOLECULE
ASD03330289
  56   59    0    0    0
SMALL
NO_CHARGES


@<TRIPOS>ATOM
   1 C1            -0.0179     1.4655     0.0101 C.3     
   2 N2             0.0021    -0.0041     0.0020 N.3     
   3 C3             0.4494    -0.5231    -1.3031 C.3     
   4 C4             1.7237     0.1898    -1.6760 C.2     
   5 N5             2.1519     1.3316    -1.0766 N.pl3   
   6 C6             1.4184     2.0045    -0.0007 C.3     
   7 C7             2.6412    -0.1377    -2.6198 C.2     
   8 N8             3.6164     0.7992    -2.5865 N.2     
   9 C9             3.3274     1.6849    -1.6595 C.2     
  10 C10            4.1446     2.8676    -1.3094 C.ar    
  11 C11            5.1552     3.2999    -2.1686 C.ar    
  12 C12            2.5858    -1.3038    -3.5191 C.2     
  13 O13            1.6513    -2.0793    -3.4524 O.2     
  14 C14            3.5154    -2.6701    -5.3097 C.3     
  15 N15            3.5706    -1.5109    -4.4156 N.am    
  16 C16            2.6696    -2.3273    -6.5377 C.3     
  17 C17           -1.3129    -0.5504     0.3632 C.3     
  18 C18            4.9109    -3.0343    -5.7466 C.2     
  19 O19            5.8583    -2.3891    -5.3503 O.2     
  20 N20            5.1062    -4.0770    -6.5779 N.am    
  21 C21            6.4629    -4.4311    -7.0027 C.3     
  22 C22           -2.3139    -0.1995    -0.7073 C.ar    
  23 C23           -2.5240    -1.0434    -1.7865 C.ar    
  24 C24           -3.0507     0.9720    -0.6333 C.ar    
  25 N25           -3.9209     1.2467    -1.5917 N.ar    
  26 C26           -4.0906     0.4226    -2.6061 C.ar    
  27 N27           -3.4115    -0.7025    -2.7069 N.ar    
  28 C28            5.9135     4.4038    -1.8366 C.ar    
  29 C29            5.6734     5.0815    -0.6547 C.ar    
  30 C30            4.6727     4.6578     0.2015 C.ar    
  31 C31            3.9040     3.5585    -0.1215 C.ar    
  32 H32           -0.5467     1.8255    -0.8724 H       
  33 H33           -0.5297     1.8160     0.9063 H       
  34 H34            0.6347    -1.5947    -1.2296 H       
  35 H35           -0.3141    -0.3315    -2.0571 H       
  36 H36            1.4064     3.0795    -0.1803 H       
  37 H37            1.8965     1.7963     0.9564 H       
  38 H38            5.3438     2.7714    -3.0914 H       
  39 H39            3.0676    -3.5134    -4.7840 H       
  40 H40            4.3159    -0.8923    -4.4688 H       
  41 H41            2.6286    -3.1898    -7.2029 H       
  42 H42            1.6603    -2.0638    -6.2216 H       
  43 H43            3.1175    -1.4840    -7.0634 H       
  44 H44           -1.2433    -1.6343     0.4544 H       
  45 H45           -1.6340    -0.1256     1.3143 H       
  46 H46            4.3485    -4.5931    -6.8949 H       
  47 H47            7.0654    -4.6753    -6.1278 H       
  48 H48            6.4218    -5.2936    -7.6679 H       
  49 H49            6.9107    -3.5878    -7.5284 H       
  50 H50           -1.9706    -1.9666    -1.8752 H       
  51 H51           -2.9168     1.6514     0.1955 H       
  52 H52           -4.8085     0.6737    -3.3729 H       
  53 H53            6.6963     4.7393    -2.5007 H       
  54 H54            6.2699     5.9449    -0.3992 H       
  55 H55            4.4902     5.1911     1.1228 H       
  56 H56            3.1231     3.2287     0.5477 H       
@<TRIPOS>BOND
   1    1    2 1
   2    1    6 1
   3    1   32 1
   4    1   33 1
   5    2    3 1
   6    2   17 1
   7    3    4 1
   8    3   34 1
   9    3   35 1
  10    4    5 1
  11    4    7 2
  12    5    6 1
  13    5    9 1
  14    6   36 1
  15    6   37 1
  16    7    8 1
  17    7   12 1
  18    8    9 2
  19    9   10 1
  20   10   11 ar
  21   10   31 ar
  22   11   28 ar
  23   11   38 1
  24   12   13 2
  25   12   15 am
  26   14   15 1
  27   14   16 1
  28   14   18 1
  29   14   39 1
  30   15   40 1
  31   16   41 1
  32   16   42 1
  33   16   43 1
  34   17   22 1
  35   17   44 1
  36   17   45 1
  37   18   19 2
  38   18   20 am
  39   20   21 1
  40   20   46 1
  41   21   47 1
  42   21   48 1
  43   21   49 1
  44   22   23 ar
  45   22   24 ar
  46   23   27 ar
  47   23   50 1
  48   24   25 ar
  49   24   51 1
  50   25   26 ar
  51   26   27 ar
  52   26   52 1
  53   28   29 ar
  54   28   53 1
  55   29   30 ar
  56   29   54 1
  57   30   31 ar
  58   30   55 1
  59   31   56 1

#	End of record

