#	Name: ASD03330492
#	Creating user name:	WinNT
#	Creation time:	15. 06. 2019 20:37

#	Modifying user name:	WinNT
#	Modification time:	15. 06. 2019 20:37

#	Program:	/corina/corina34_cracker 3.40 0067  02.08.2006

@<TRIPOS>MOLECULE
ASD03330492
  59   61    0    0    0
SMALL
NO_CHARGES


@<TRIPOS>ATOM
   1 C1            -0.0179     1.4655     0.0101 C.3     
   2 N2             0.0021    -0.0041     0.0020 N.3     
   3 C3             0.4496    -0.5231    -1.3030 C.3     
   4 C4             1.7240     0.1898    -1.6757 C.2     
   5 N5             2.1519     1.3314    -1.0764 N.pl3   
   6 C6             1.4184     2.0044    -0.0007 C.3     
   7 C7             2.6423    -0.1386    -2.6192 C.2     
   8 N8             3.6177     0.7969    -2.5864 N.2     
   9 C9             3.3290     1.6843    -1.6592 C.2     
  10 C10            4.1447     2.8637    -1.3103 C.2     
  11 C11            2.5867    -1.3057    -3.5175 C.2     
  12 O12            1.6520    -2.0809    -3.4502 O.2     
  13 C13            3.5165    -2.6740    -5.3065 C.3     
  14 N14            3.5717    -1.5139    -4.4135 N.am    
  15 C15           -1.3129    -0.5504     0.3630 C.3     
  16 C16            4.9333    -3.0445    -5.7494 C.3     
  17 C17            2.6838    -2.3373    -6.5165 C.2     
  18 O18            2.1855    -1.2367    -6.6226 O.2     
  19 N19            2.4927    -3.2593    -7.4809 N.am    
  20 C20            5.1404    -4.7991    -3.9828 C.3     
  21 C21            5.2718     3.0702    -1.9734 C.2     
  22 C22            5.7428    -3.5060    -4.5359 C.3     
  23 C23            7.1925    -3.7573    -4.9555 C.3     
  24 C24            1.6832    -2.9320    -8.6572 C.3     
  25 C25            6.1725     4.2399    -1.6829 C.3     
  26 C26            5.3956     5.2981    -0.8926 C.3     
  27 C27            4.6483     4.5935     0.2477 C.3     
  28 O28            3.7027     3.6874    -0.3304 O.3     
  29 H29           -0.5467     1.8256    -0.8724 H       
  30 H30           -0.5297     1.8160     0.9063 H       
  31 H31            0.6349    -1.5947    -1.2294 H       
  32 H32           -0.3138    -0.3315    -2.0571 H       
  33 H33            1.4065     3.0794    -0.1805 H       
  34 H34            1.8965     1.7964     0.9565 H       
  35 H35            3.0683    -3.5167    -4.7800 H       
  36 H36            4.3172    -0.8956    -4.4672 H       
  37 H37           -2.0699    -0.1513    -0.3121 H       
  38 H38           -1.2898    -1.6371     0.2812 H       
  39 H39           -1.5548    -0.2682     1.3877 H       
  40 H40            4.8859    -3.8500    -6.4822 H       
  41 H41            5.4134    -2.1742    -6.1968 H       
  42 H42            2.8913    -4.1395    -7.3960 H       
  43 H43            4.1076    -4.6200    -3.6839 H       
  44 H44            5.1674    -5.5706    -4.7523 H       
  45 H45            5.7171    -5.1279    -3.1183 H       
  46 H46            5.5547     2.3747    -2.7497 H       
  47 H47            5.7158    -2.7344    -3.7664 H       
  48 H48            7.6216    -2.8360    -5.3495 H       
  49 H49            7.7692    -4.0861    -4.0909 H       
  50 H50            7.2195    -4.5288    -5.7249 H       
  51 H51            0.6739    -2.6680    -8.3416 H       
  52 H52            2.1314    -2.0893    -9.1836 H       
  53 H53            1.6421    -3.7951    -9.3216 H       
  54 H54            7.0275     3.9033    -1.0965 H       
  55 H55            6.5223     4.6710    -2.6210 H       
  56 H56            6.0888     6.0312    -0.4801 H       
  57 H57            4.6810     5.7955    -1.5484 H       
  58 H58            5.3572     4.0442     0.8673 H       
  59 H59            4.1242     5.3317     0.8547 H       
@<TRIPOS>BOND
   1    1    2 1
   2    1    6 1
   3    1   29 1
   4    1   30 1
   5    2    3 1
   6    2   15 1
   7    3    4 1
   8    3   31 1
   9    3   32 1
  10    4    5 1
  11    4    7 2
  12    5    6 1
  13    5    9 1
  14    6   33 1
  15    6   34 1
  16    7    8 1
  17    7   11 1
  18    8    9 2
  19    9   10 1
  20   10   21 2
  21   10   28 1
  22   11   12 2
  23   11   14 am
  24   13   14 1
  25   13   16 1
  26   13   17 1
  27   13   35 1
  28   14   36 1
  29   15   37 1
  30   15   38 1
  31   15   39 1
  32   16   22 1
  33   16   40 1
  34   16   41 1
  35   17   18 2
  36   17   19 am
  37   19   24 1
  38   19   42 1
  39   20   22 1
  40   20   43 1
  41   20   44 1
  42   20   45 1
  43   21   25 1
  44   21   46 1
  45   22   23 1
  46   22   47 1
  47   23   48 1
  48   23   49 1
  49   23   50 1
  50   24   51 1
  51   24   52 1
  52   24   53 1
  53   25   26 1
  54   25   54 1
  55   25   55 1
  56   26   27 1
  57   26   56 1
  58   26   57 1
  59   27   28 1
  60   27   58 1
  61   27   59 1

#	End of record

