#	Name: ASD01883330
#	Creating user name:	WinNT
#	Creation time:	15. 06. 2019 19:46

#	Modifying user name:	WinNT
#	Modification time:	15. 06. 2019 19:46

#	Program:	/corina/corina34_cracker 3.40 0067  02.08.2006

@<TRIPOS>MOLECULE
ASD01883330
  46   47    0    0    0
SMALL
NO_CHARGES


@<TRIPOS>ATOM
   1 N1            -0.0162     1.3419     0.0115 N.am    
   2 C2            -0.0003    -0.0006    -0.0854 C.2     
   3 C3            -1.2183    -0.7226    -0.0812 C.2     
   4 C4            -2.4225    -0.0124     0.0251 C.2     
   5 C5            -2.3754     1.3878     0.1233 C.2     
   6 C6            -1.1834     2.0265     0.1199 C.2     
   7 O7             1.0610    -0.5939    -0.1771 O.2     
   8 C8            -1.2203    -2.1509    -0.1839 C.1     
   9 N9            -1.2218    -3.2840    -0.2654 N.1     
  10 O10           -3.6076    -0.6636     0.0325 O.3     
  11 C11           -4.3747    -0.6012     1.2366 C.3     
  12 C12            1.2506     2.0777     0.0060 C.3     
  13 C13            1.6256     2.4369    -1.4332 C.3     
  14 C14            2.9486     3.2053    -1.4390 C.3     
  15 C15            4.0714     2.2913    -0.9443 C.3     
  16 C16            3.2608     3.6724    -2.8620 C.3     
  17 C17           -5.6532    -1.3788     1.0585 C.ar    
  18 C18           -5.6928    -2.7239     1.3761 C.ar    
  19 C19           -6.8636    -3.4389     1.2138 C.ar    
  20 C20           -8.0003    -2.8062     0.7317 C.ar    
  21 C21           -7.9579    -1.4565     0.4139 C.ar    
  22 C22           -6.7862    -0.7446     0.5833 C.ar    
  23 O23           -9.1531    -3.5076     0.5708 O.3     
  24 C24          -10.2837    -2.7913     0.0701 C.3     
  25 F25          -10.5986    -1.7462     0.9452 F       
  26 F26           -9.9827    -2.2680    -1.1920 F       
  27 H27           -3.2912     1.9543     0.2057 H       
  28 H28           -1.1600     3.1036     0.1963 H       
  29 H29           -3.7993    -1.0308     2.0566 H       
  30 H30           -4.6104     0.4385     1.4637 H       
  31 H31            1.1432     2.9904     0.5921 H       
  32 H32            2.0335     1.4565     0.4412 H       
  33 H33            1.7330     1.5241    -2.0192 H       
  34 H34            0.8427     3.0580    -1.8684 H       
  35 H35            2.8687     4.0711    -0.7816 H       
  36 H36            5.0139     2.8388    -0.9484 H       
  37 H37            3.8489     1.9585     0.0696 H       
  38 H38            4.1513     1.4255    -1.6016 H       
  39 H39            2.4609     4.3236    -3.2145 H       
  40 H40            4.2034     4.2199    -2.8661 H       
  41 H41            3.3407     2.8066    -3.5193 H       
  42 H42           -4.8076    -3.2161     1.7509 H       
  43 H43           -6.8939    -4.4897     1.4616 H       
  44 H44           -8.8415    -0.9617     0.0385 H       
  45 H45           -6.7527     0.3062     0.3360 H       
  46 H46          -11.1353    -3.4669    -0.0104 H       
@<TRIPOS>BOND
   1    1    2 am
   2    1   12 1
   3    1    6 1
   4    2    3 1
   5    2    7 2
   6    3    4 2
   7    3    8 1
   8    4    5 1
   9    4   10 1
  10    5    6 2
  11    5   27 1
  12    6   28 1
  13    8    9 3
  14   10   11 1
  15   11   17 1
  16   11   29 1
  17   11   30 1
  18   12   13 1
  19   12   31 1
  20   12   32 1
  21   13   14 1
  22   13   33 1
  23   13   34 1
  24   14   15 1
  25   14   16 1
  26   14   35 1
  27   15   36 1
  28   15   37 1
  29   15   38 1
  30   16   39 1
  31   16   40 1
  32   16   41 1
  33   17   18 ar
  34   17   22 ar
  35   18   19 ar
  36   18   42 1
  37   19   20 ar
  38   19   43 1
  39   20   21 ar
  40   20   23 1
  41   21   22 ar
  42   21   44 1
  43   22   45 1
  44   23   24 1
  45   24   25 1
  46   24   26 1
  47   24   46 1

#	End of record

