#	Name: ASD07300840
#	Creating user name:	WinNT
#	Creation time:	15. 06. 2019 21:10

#	Modifying user name:	WinNT
#	Modification time:	15. 06. 2019 21:10

#	Program:	/corina/corina34_cracker 3.40 0067  02.08.2006

@<TRIPOS>MOLECULE
ASD07300840
  47   51    0    0    0
SMALL
NO_CHARGES


@<TRIPOS>ATOM
   1 N1             0.0899     1.3196    -0.0221 N.am    
   2 C2             0.0492    -0.0344    -0.1002 C.2     
   3 N3             1.1155    -0.7710    -0.2112 N.2     
   4 C4             2.3455    -0.2353    -0.2571 C.2     
   5 C5             2.4878     1.1593    -0.1834 C.2     
   6 C6             1.2765     1.9700    -0.0585 C.2     
   7 N7             3.5986    -0.7478    -0.3666 N.pl3   
   8 N8             4.5107     0.3151    -0.3612 N.2     
   9 C9             3.8644     1.4431    -0.2535 C.2     
  10 O10            1.3335     3.1850     0.0096 O.2     
  11 C11            3.9381    -2.1690    -0.4718 C.3     
  12 C12            4.5598    -2.4471    -1.8439 C.3     
  13 C13            4.9830    -3.9166    -1.9153 C.3     
  14 O14            5.8992    -4.1992    -0.8556 O.3     
  15 C15            5.3574    -4.0025     0.4520 C.3     
  16 C16            4.9492    -2.5364     0.6185 C.3     
  17 C17           -1.2939    -0.7166    -0.0559 C.3     
  18 C18           -1.3041    -2.1009    -0.7256 C.3     
  19 C19           -2.2031    -2.5672     0.4316 C.3     
  20 C20           -1.5722    -1.4433     1.2705 C.3     
  21 C21           -0.3235    -1.8642     2.0018 C.ar    
  22 C22            0.2955    -3.0536     1.6678 C.ar    
  23 C23            1.4439    -3.4317     2.3468 C.ar    
  24 C24            1.9284    -2.5953     3.3405 C.ar    
  25 C25            1.2554    -1.4206     3.6195 C.ar    
  26 N26            0.1688    -1.0904     2.9495 N.ar    
  27 H27           -0.7351     1.8239     0.0561 H       
  28 H28            4.3096     2.4266    -0.2233 H       
  29 H29            3.0362    -2.7692    -0.3518 H       
  30 H30            3.8273    -2.2407    -2.6243 H       
  31 H31            5.4326    -1.8095    -1.9843 H       
  32 H32            4.1039    -4.5533    -1.8153 H       
  33 H33            5.4649    -4.1100    -2.8737 H       
  34 H34            4.4833    -4.6403     0.5830 H       
  35 H35            6.1090    -4.2577     1.1990 H       
  36 H36            5.8299    -1.9006     0.5278 H       
  37 H37            4.4953    -2.3938     1.5992 H       
  38 H38           -2.1085    -0.0689    -0.3797 H       
  39 H39           -1.8002    -2.1128    -1.6961 H       
  40 H40           -0.3276    -2.5850    -0.7424 H       
  41 H41           -3.2671    -2.4259     0.2421 H       
  42 H42           -1.9657    -3.5677     0.7931 H       
  43 H43           -2.2848    -0.9243     1.9116 H       
  44 H44           -0.1103    -3.6810     0.8880 H       
  45 H45            1.9487    -4.3559     2.1074 H       
  46 H46            2.8202    -2.8583     3.8900 H       
  47 H47            1.6262    -0.7637     4.3925 H       
@<TRIPOS>BOND
   1    1    2 1
   2    1    6 am
   3    1   27 1
   4    2    3 2
   5    2   17 1
   6    3    4 1
   7    4    5 2
   8    4    7 1
   9    5    6 1
  10    5    9 1
  11    6   10 2
  12    7    8 1
  13    7   11 1
  14    8    9 2
  15    9   28 1
  16   11   12 1
  17   11   16 1
  18   11   29 1
  19   12   13 1
  20   12   30 1
  21   12   31 1
  22   13   14 1
  23   13   32 1
  24   13   33 1
  25   14   15 1
  26   15   16 1
  27   15   34 1
  28   15   35 1
  29   16   36 1
  30   16   37 1
  31   17   18 1
  32   17   20 1
  33   17   38 1
  34   18   19 1
  35   18   39 1
  36   18   40 1
  37   19   20 1
  38   19   41 1
  39   19   42 1
  40   20   21 1
  41   20   43 1
  42   21   22 ar
  43   21   26 ar
  44   22   23 ar
  45   22   44 1
  46   23   24 ar
  47   23   45 1
  48   24   25 ar
  49   24   46 1
  50   25   26 ar
  51   25   47 1

#	End of record

