#	Name: ASD05430181
#	Creating user name:	WinNT
#	Creation time:	15. 06. 2019 20:59

#	Modifying user name:	WinNT
#	Modification time:	15. 06. 2019 20:59

#	Program:	/corina/corina34_cracker 3.40 0067  02.08.2006

@<TRIPOS>MOLECULE
ASD05430181
  69   76    0    0    0
SMALL
NO_CHARGES


@<TRIPOS>ATOM
   1 C1             0.0068     1.8082    -0.3262 C.ar    
   2 C2            -0.0033     0.4226    -0.4561 C.ar    
   3 C3             1.1942    -0.2715    -0.5097 C.ar    
   4 C4             2.4012     0.4055    -0.4342 C.ar    
   5 C5             2.4265     1.7765    -0.3050 C.ar    
   6 C6             1.2285     2.4919    -0.2504 C.ar    
   7 C7             4.2128     1.0881     1.9402 C.3     
   8 C8             4.6751     2.1443     0.9286 C.3     
   9 C9             3.7443     2.5030    -0.2228 C.3     
  10 C10            5.3887     0.7289     2.8503 C.3     
  11 C11            5.8319     1.9341     3.6795 C.3     
  12 N12            6.0967     3.0657     2.7957 N.pl3   
  13 C13            5.5043     3.2433     1.5524 C.2     
  14 N14            5.7527     4.4114     1.0943 N.2     
  15 C15            8.4282     3.7929     2.6855 C.ar    
  16 C16            9.1300     4.4294     1.6788 C.ar    
  17 N17           -1.2217    -0.2686    -0.5321 N.pl3   
  18 C18            5.0166     1.6924    -0.4857 C.3     
  19 C19           -2.2786    -0.1366     0.3105 C.2     
  20 C20           -1.5726    -1.2003    -1.4744 C.2     
  21 C21           -2.8210    -1.6069    -1.1749 C.2     
  22 N22           -3.2271    -0.9426    -0.0828 N.2     
  23 C23           -3.6243    -2.6291    -1.9371 C.3     
  24 C24           10.4331     4.0602     1.4042 C.ar    
  25 C25           11.0358     3.0524     2.1379 C.ar    
  26 C26           10.3319     2.4157     3.1459 C.ar    
  27 C27            9.0306     2.7902     3.4222 C.ar    
  28 F28           12.3095     2.6904     1.8701 F       
  29 N29            0.9257     3.8130    -0.1301 N.2     
  30 C30           -0.3663     3.9483    -0.1315 C.2     
  31 O31           -0.9591     2.7503    -0.2527 O.3     
  32 C32            4.9807    -0.4233     3.7901 C.3     
  33 C33            5.4741    -1.6600     3.0028 C.3     
  34 C34            6.5800    -1.1227     2.1208 C.2     
  35 N35            6.5080     0.2190     2.0556 N.am    
  36 C36            7.4298     1.0608     1.2890 C.3     
  37 O37            7.4101    -1.8024     1.5553 O.2     
  38 C38            7.0074     4.1968     2.9843 C.3     
  39 O39            6.5352     5.1573     2.0160 O.3     
  40 C40            6.8923     4.7533     4.4048 C.3     
  41 H41            1.1872    -1.3468    -0.6105 H       
  42 H42            3.3287    -0.1462    -0.4766 H       
  43 H43            3.3960     1.4896     2.5400 H       
  44 H44            3.8757     0.1974     1.4100 H       
  45 H45            3.7304     3.5413    -0.5544 H       
  46 H46            5.0434     2.2002     4.3834 H       
  47 H47            6.7390     1.6828     4.2291 H       
  48 H48            8.6596     5.2153     1.1064 H       
  49 H49            5.8401     2.1975    -0.9906 H       
  50 H50            4.9003     0.6339    -0.7180 H       
  51 H51           -2.3262     0.5242     1.1634 H       
  52 H52           -0.9648    -1.5421    -2.2990 H       
  53 H53           -3.4328    -3.6208    -1.5274 H       
  54 H54           -4.6856    -2.3976    -1.8474 H       
  55 H55           -3.3354    -2.6082    -2.9879 H       
  56 H56           10.9811     4.5574     0.6175 H       
  57 H57           10.8010     1.6294     3.7188 H       
  58 H58            8.4814     2.2937     4.2084 H       
  59 H59           -0.8885     4.8901    -0.0491 H       
  60 H60            5.4905    -0.3429     4.7502 H       
  61 H61            3.8995    -0.4525     3.9253 H       
  62 H62            5.8635    -2.4159     3.6849 H       
  63 H63            4.6681    -2.0720     2.3956 H       
  64 H64            8.2247     0.4426     0.8717 H       
  65 H65            6.8875     1.5502     0.4799 H       
  66 H66            7.8630     1.8159     1.9448 H       
  67 H67            7.1465     3.9732     5.1224 H       
  68 H68            7.5774     5.5928     4.5228 H       
  69 H69            5.8708     5.0905     4.5813 H       
@<TRIPOS>BOND
   1    1    2 ar
   2    1    6 ar
   3    1   31 1
   4    2    3 ar
   5    2   17 1
   6    3    4 ar
   7    3   41 1
   8    4    5 ar
   9    4   42 1
  10    5    6 ar
  11    5    9 1
  12    6   29 1
  13    7    8 1
  14    7   10 1
  15    7   43 1
  16    7   44 1
  17    8    9 1
  18    8   18 1
  19    8   13 1
  20    9   18 1
  21    9   45 1
  22   10   11 1
  23   10   32 1
  24   10   35 1
  25   11   12 1
  26   11   46 1
  27   11   47 1
  28   12   13 1
  29   12   38 1
  30   13   14 2
  31   14   39 1
  32   15   16 ar
  33   15   38 1
  34   15   27 ar
  35   16   24 ar
  36   16   48 1
  37   17   19 1
  38   17   20 1
  39   18   49 1
  40   18   50 1
  41   19   22 2
  42   19   51 1
  43   20   21 2
  44   20   52 1
  45   21   22 1
  46   21   23 1
  47   23   53 1
  48   23   54 1
  49   23   55 1
  50   24   25 ar
  51   24   56 1
  52   25   26 ar
  53   25   28 1
  54   26   27 ar
  55   26   57 1
  56   27   58 1
  57   29   30 2
  58   30   31 1
  59   30   59 1
  60   32   33 1
  61   32   60 1
  62   32   61 1
  63   33   34 1
  64   33   62 1
  65   33   63 1
  66   34   35 am
  67   34   37 2
  68   35   36 1
  69   36   64 1
  70   36   65 1
  71   36   66 1
  72   38   39 1
  73   38   40 1
  74   40   67 1
  75   40   68 1
  76   40   69 1

#	End of record

