#	Name: ASD01881729
#	Creating user name:	WinNT
#	Creation time:	15. 06. 2019 19:43

#	Modifying user name:	WinNT
#	Modification time:	15. 06. 2019 19:43

#	Program:	/corina/corina34_cracker 3.40 0067  02.08.2006

@<TRIPOS>MOLECULE
ASD01881729
  56   59    0    0    0
SMALL
NO_CHARGES


@<TRIPOS>ATOM
   1 N1            -0.0131     1.1322    -0.2387 N.am    
   2 C2            -0.1176    -0.2770     0.1637 C.3     
   3 C3             0.8053    -0.5171     1.3626 C.3     
   4 C4             2.2246    -0.0687     1.0065 C.3     
   5 C5             2.2240     1.4285     0.6898 C.3     
   6 C6             1.3171     1.6908    -0.5167 C.3     
   7 C7            -1.1170     1.8965    -0.3561 C.2     
   8 O8            -2.2119     1.4214    -0.1282 O.2     
   9 O9            -1.0065     3.1864    -0.7257 O.3     
  10 O10            0.8123    -1.9086     1.6879 O.3     
  11 O11            3.0949    -0.3212     2.1115 O.3     
  12 N12            8.4545    -1.0556     1.2517 N.pl3   
  13 N13            8.7794    -1.3868     2.5755 N.2     
  14 N14            7.7156    -1.3558     3.2980 N.2     
  15 C15            6.6487    -1.0174     2.5468 C.ar    
  16 C16            7.0987    -0.8198     1.2298 C.ar    
  17 C17            5.2882    -0.8468     2.8380 C.ar    
  18 C18            4.4153    -0.4878     1.8319 C.ar    
  19 C19            4.8763    -0.2953     0.5318 C.ar    
  20 C20            6.1994    -0.4594     0.2327 C.ar    
  21 C21            9.3776    -0.9711     0.1172 C.3     
  22 C22            9.4672    -2.3351    -0.5700 C.3     
  23 C23           10.2943    -2.4263    -1.8540 C.3     
  24 C24           10.8228    -3.0444    -0.5581 C.3     
  25 Br25           4.6533    -1.1062     4.6002 Br      
  26 C26           -2.2373     3.9495    -0.8317 C.3     
  27 C27           -2.9433     3.9698     0.5256 C.3     
  28 C28           -1.9138     5.3823    -1.2597 C.3     
  29 C29           -3.1518     3.3004    -1.8725 C.3     
  30 H30           -1.1467    -0.5016     0.4440 H       
  31 H31            0.1856    -0.9170    -0.6649 H       
  32 H32            0.4468     0.0552     2.2181 H       
  33 H33            2.5732    -0.6240     0.1358 H       
  34 H34            1.8521     1.9826     1.5516 H       
  35 H35            3.2390     1.7520     0.4591 H       
  36 H36            1.7373     1.2112    -1.4008 H       
  37 H37            1.2346     2.7645    -0.6854 H       
  38 H38           -0.0568    -2.2622     1.9219 H       
  39 H39            4.1821    -0.0148    -0.2465 H       
  40 H40            6.5470    -0.3080    -0.7785 H       
  41 H41            9.0129    -0.2295    -0.5935 H       
  42 H42           10.3652    -0.6781     0.4734 H       
  43 H43            8.5736    -2.9555    -0.5019 H       
  44 H44            9.9449    -3.1069    -2.6304 H       
  45 H45           10.7745    -1.5145    -2.2091 H       
  46 H46           11.6508    -2.5393    -0.0606 H       
  47 H47           10.8212    -4.1318    -0.4819 H       
  48 H48           -2.2918     4.4322     1.2671 H       
  49 H49           -3.8672     4.5426     0.4461 H       
  50 H50           -3.1737     2.9490     0.8306 H       
  51 H51           -1.4109     5.3679    -2.2266 H       
  52 H52           -2.8377     5.9551    -1.3392 H       
  53 H53           -1.2623     5.8447    -0.5182 H       
  54 H54           -3.3823     2.2797    -1.5675 H       
  55 H55           -4.0757     3.8733    -1.9520 H       
  56 H56           -2.6489     3.2860    -2.8394 H       
@<TRIPOS>BOND
   1    1    2 1
   2    1    6 1
   3    1    7 am
   4    2    3 1
   5    2   30 1
   6    2   31 1
   7    3    4 1
   8    3   10 1
   9    3   32 1
  10    4    5 1
  11    4   11 1
  12    4   33 1
  13    5    6 1
  14    5   34 1
  15    5   35 1
  16    6   36 1
  17    6   37 1
  18    7    8 2
  19    7    9 1
  20    9   26 1
  21   10   38 1
  22   11   18 1
  23   12   13 1
  24   12   16 1
  25   12   21 1
  26   13   14 2
  27   14   15 1
  28   15   16 ar
  29   15   17 ar
  30   16   20 ar
  31   17   18 ar
  32   17   25 1
  33   18   19 ar
  34   19   20 ar
  35   19   39 1
  36   20   40 1
  37   21   22 1
  38   21   41 1
  39   21   42 1
  40   22   23 1
  41   22   24 1
  42   22   43 1
  43   23   24 1
  44   23   44 1
  45   23   45 1
  46   24   46 1
  47   24   47 1
  48   26   27 1
  49   26   29 1
  50   26   28 1
  51   27   48 1
  52   27   49 1
  53   27   50 1
  54   28   51 1
  55   28   52 1
  56   28   53 1
  57   29   54 1
  58   29   55 1
  59   29   56 1

#	End of record

