#	Name: ASD00071020
#	Creating user name:	WinNT
#	Creation time:	15. 06. 2019 18:30

#	Modifying user name:	WinNT
#	Modification time:	15. 06. 2019 18:30

#	Program:	/corina/corina34_cracker 3.40 0067  02.08.2006

@<TRIPOS>MOLECULE
ASD00071020
  36   38    0    0    0
SMALL
NO_CHARGES


@<TRIPOS>ATOM
   1 N1             1.8360     1.2409    -1.2024 N.ar    
   2 C2             1.6415    -0.0616    -1.1897 C.ar    
   3 C3             1.3756    -0.7523     0.0017 C.ar    
   4 C4             1.3144    -0.0730     1.1807 C.ar    
   5 C5             1.5240     1.3214     1.1603 C.ar    
   6 C6             1.4746     2.0821     2.3382 C.ar    
   7 C7             1.6817     3.4284     2.2805 C.ar    
   8 C8             1.9421     4.0592     1.0655 C.ar    
   9 C9             1.9969     3.3502    -0.0956 C.ar    
  10 C10            1.7880     1.9609    -0.0754 C.ar    
  11 N11            1.7007    -0.7669    -2.3825 N.pl3   
  12 C12            1.1574    -2.2432    -0.0227 C.3     
  13 C13            1.0272    -2.7550     1.3888 C.ar    
  14 C14           -0.2223    -2.8655     1.9732 C.ar    
  15 C15           -0.3410    -3.3353     3.2703 C.ar    
  16 C16            0.7877    -3.6946     3.9833 C.ar    
  17 C17            2.0366    -3.5861     3.4033 C.ar    
  18 C18            2.1590    -3.1210     2.1016 C.ar    
  19 O19            3.3868    -3.0188     1.5282 O.3     
  20 C20            4.5081    -3.4137     2.3212 C.3     
  21 F21           -1.3264    -2.5145     1.2782 F       
  22 Cl22           1.6198     4.3686     3.7385 Cl      
  23 H23            1.1104    -0.5889     2.1073 H       
  24 H24            1.2732     1.6038     3.2854 H       
  25 H25            2.1027     5.1270     1.0445 H       
  26 H26            2.2001     3.8540    -1.0290 H       
  27 H27            1.8023    -0.2920    -3.2222 H       
  28 H28            1.6404    -1.7350    -2.3771 H       
  29 H29            0.2457    -2.4680    -0.5762 H       
  30 H30            2.0054    -2.7266    -0.5077 H       
  31 H31           -1.3166    -3.4210     3.7258 H       
  32 H32            0.6928    -4.0601     4.9951 H       
  33 H33            2.9175    -3.8667     3.9616 H       
  34 H34            4.5523    -2.7983     3.2198 H       
  35 H35            4.4028    -4.4614     2.6031 H       
  36 H36            5.4244    -3.2827     1.7456 H       
@<TRIPOS>BOND
   1    1    2 ar
   2    1   10 ar
   3    2    3 ar
   4    2   11 1
   5    3    4 ar
   6    3   12 1
   7    4    5 ar
   8    4   23 1
   9    5    6 ar
  10    5   10 ar
  11    6    7 ar
  12    6   24 1
  13    7    8 ar
  14    7   22 1
  15    8    9 ar
  16    8   25 1
  17    9   10 ar
  18    9   26 1
  19   11   27 1
  20   11   28 1
  21   12   13 1
  22   12   29 1
  23   12   30 1
  24   13   14 ar
  25   13   18 ar
  26   14   15 ar
  27   14   21 1
  28   15   16 ar
  29   15   31 1
  30   16   17 ar
  31   16   32 1
  32   17   18 ar
  33   17   33 1
  34   18   19 1
  35   19   20 1
  36   20   34 1
  37   20   35 1
  38   20   36 1

#	End of record

