#	Name: ASD04880347
#	Creating user name:	WinNT
#	Creation time:	15. 06. 2019 20:53

#	Modifying user name:	WinNT
#	Modification time:	15. 06. 2019 20:53

#	Program:	/corina/corina34_cracker 3.40 0067  02.08.2006

@<TRIPOS>MOLECULE
ASD04880347
  51   53    0    0    0
SMALL
NO_CHARGES


@<TRIPOS>ATOM
   1 C1            -0.0055     1.3700     0.3026 C.ar    
   2 C2             0.0099    -0.0227     0.2688 C.ar    
   3 C3            -1.1790    -0.7263     0.2203 C.ar    
   4 C4            -2.3945    -0.0373     0.2057 C.ar    
   5 C5            -2.4023     1.3596     0.2403 C.ar    
   6 C6            -1.2123     2.0543     0.2939 C.ar    
   7 O7             1.1648     2.0599     0.3498 O.3     
   8 C8             1.1359    -2.1174     0.2465 C.3     
   9 O9             1.1948    -0.6901     0.2831 O.3     
  10 C10            1.0763     3.4858     0.3826 C.3     
  11 C11           -3.6655    -0.7822     0.1535 C.2     
  12 N12           -3.7743    -2.0657     0.1187 N.2     
  13 N13           -5.0892    -2.5244     0.0725 N.am    
  14 C14           -5.9975    -1.3667     0.0772 C.3     
  15 C15           -5.0426    -0.1581     0.1391 C.3     
  16 C16           -5.2862     0.6535     1.4130 C.3     
  17 C17           -5.2109     0.7228    -1.1005 C.3     
  18 C18           -5.4673    -3.8174     0.0297 C.2     
  19 O19           -6.6460    -4.1086     0.0955 O.2     
  20 C20           -4.4492    -4.8813    -0.0973 C.ar    
  21 C21           -3.1105    -4.5468    -0.3173 C.ar    
  22 C22           -4.8212    -6.2198     0.0077 C.ar    
  23 C23           -3.8551    -7.2165    -0.1133 C.ar    
  24 C24           -2.5215    -6.8683    -0.3388 C.ar    
  25 C25           -2.1584    -5.5394    -0.4362 C.ar    
  26 C26           -4.2409    -8.6396    -0.0026 C.2     
  27 O27           -5.4018    -8.9411     0.1940 O.2     
  28 N28           -3.3051    -9.6025    -0.1199 N.am    
  29 H29           -1.1683    -1.8059     0.1933 H       
  30 H30           -3.3402     1.8949     0.2291 H       
  31 H31           -1.2196     3.1339     0.3206 H       
  32 H32            2.1473    -2.5233     0.2627 H       
  33 H33            0.5847    -2.4807     1.1138 H       
  34 H34            0.6307    -2.4370    -0.6650 H       
  35 H35            0.5642     3.8387    -0.5126 H       
  36 H36            0.5181     3.7950     1.2663 H       
  37 H37            2.0792     3.9113     0.4190 H       
  38 H38           -6.5936    -1.3431    -0.8351 H       
  39 H39           -6.6411    -1.3877     0.9567 H       
  40 H40           -5.1143     0.0220     2.2846 H       
  41 H41           -4.6030     1.5025     1.4391 H       
  42 H42           -6.3147     1.0144     1.4229 H       
  43 H43           -6.2375     1.0854    -1.1519 H       
  44 H44           -4.5288     1.5708    -1.0389 H       
  45 H45           -4.9862     0.1399    -1.9937 H       
  46 H46           -2.8200    -3.5095    -0.3949 H       
  47 H47           -5.8538    -6.4837     0.1825 H       
  48 H48           -1.7716    -7.6399    -0.4324 H       
  49 H49           -1.1258    -5.2757    -0.6107 H       
  50 H50           -2.3786    -9.3619    -0.2769 H       
  51 H51           -3.5582   -10.5361    -0.0474 H       
@<TRIPOS>BOND
   1    1    2 ar
   2    1    7 1
   3    1    6 ar
   4    2    3 ar
   5    2    9 1
   6    3    4 ar
   7    3   29 1
   8    4    5 ar
   9    4   11 1
  10    5    6 ar
  11    5   30 1
  12    6   31 1
  13    7   10 1
  14    8    9 1
  15    8   32 1
  16    8   33 1
  17    8   34 1
  18   10   35 1
  19   10   36 1
  20   10   37 1
  21   11   12 2
  22   11   15 1
  23   12   13 1
  24   13   14 1
  25   13   18 am
  26   14   15 1
  27   14   38 1
  28   14   39 1
  29   15   16 1
  30   15   17 1
  31   16   40 1
  32   16   41 1
  33   16   42 1
  34   17   43 1
  35   17   44 1
  36   17   45 1
  37   18   19 2
  38   18   20 1
  39   20   21 ar
  40   20   22 ar
  41   21   25 ar
  42   21   46 1
  43   22   23 ar
  44   22   47 1
  45   23   24 ar
  46   23   26 1
  47   24   25 ar
  48   24   48 1
  49   25   49 1
  50   26   27 2
  51   26   28 am
  52   28   50 1
  53   28   51 1

#	End of record

