#	Name: ASD01000008
#	Creating user name:	WinNT
#	Creation time:	15. 06. 2019 18:54

#	Modifying user name:	WinNT
#	Modification time:	15. 06. 2019 18:54

#	Program:	/corina/corina34_cracker 3.40 0067  02.08.2006

@<TRIPOS>MOLECULE
ASD01000008
  35   37    0    0    0
SMALL
NO_CHARGES


@<TRIPOS>ATOM
   1 C1            -0.0167     1.3829     0.0096 C.ar    
   2 C2             0.0021    -0.0041     0.0020 C.ar    
   3 C3            -1.1856    -0.7100     0.0095 C.ar    
   4 C4            -2.3921    -0.0351     0.0246 C.ar    
   5 C5            -2.4135     1.3476     0.0318 C.ar    
   6 C6            -1.2289     2.0578     0.0306 C.ar    
   7 C7            -1.1659    -2.2168     0.0007 C.3     
   8 N8            -2.2408    -2.6756    -0.8911 N.am    
   9 C9            -1.1988    -2.6906     1.4437 C.2     
  10 C10           -2.1752    -3.4863     1.8173 C.2     
  11 N11           -3.1575    -3.8706     0.9040 N.am    
  12 C12           -3.1862    -3.4866    -0.3746 C.2     
  13 C13           -0.1117    -2.2100     2.3646 C.3     
  14 C14           -0.0357    -3.0820     3.6165 C.3     
  15 C15           -2.2903    -4.0324     3.2185 C.3     
  16 O16            1.1413    -2.2607     1.6796 O.3     
  17 S17           -4.4552    -4.0374    -1.3832 S.2     
  18 O18            1.1501     2.0795     0.0022 O.3     
  19 C19           -1.4518    -3.2092     4.1929 C.3     
  20 H20            0.9443    -0.5317    -0.0101 H       
  21 H21           -3.3194    -0.5887     0.0305 H       
  22 H22           -3.3573     1.8725     0.0429 H       
  23 H23           -1.2461     3.1377     0.0366 H       
  24 H24           -0.2163    -2.5319    -0.4317 H       
  25 H25           -2.2692    -2.4033    -1.8217 H       
  26 H26           -3.8652    -4.4549     1.2181 H       
  27 H27           -0.3184    -1.1804     2.6568 H       
  28 H28            0.3457    -4.0691     3.3552 H       
  29 H29            0.6206    -2.6154     4.3512 H       
  30 H30           -3.3344    -4.0027     3.5302 H       
  31 H31           -1.9427    -5.0654     3.2304 H       
  32 H32            1.8927    -1.9647     2.2115 H       
  33 H33            1.4794     2.2858    -0.8832 H       
  34 H34           -1.4118    -3.7117     5.1594 H       
  35 H35           -1.8913    -2.2187     4.3106 H       
@<TRIPOS>BOND
   1    1    2 ar
   2    1   18 1
   3    1    6 ar
   4    2    3 ar
   5    2   20 1
   6    3    4 ar
   7    3    7 1
   8    4    5 ar
   9    4   21 1
  10    5    6 ar
  11    5   22 1
  12    6   23 1
  13    7    8 1
  14    7    9 1
  15    7   24 1
  16    8   12 am
  17    8   25 1
  18    9   10 2
  19    9   13 1
  20   10   11 1
  21   10   15 1
  22   11   12 am
  23   11   26 1
  24   12   17 2
  25   13   14 1
  26   13   16 1
  27   13   27 1
  28   14   19 1
  29   14   28 1
  30   14   29 1
  31   15   19 1
  32   15   30 1
  33   15   31 1
  34   16   32 1
  35   18   33 1
  36   19   34 1
  37   19   35 1

#	End of record

