#	Name: ASD04590083
#	Creating user name:	WinNT
#	Creation time:	15. 06. 2019 20:50

#	Modifying user name:	WinNT
#	Modification time:	15. 06. 2019 20:50

#	Program:	/corina/corina34_cracker 3.40 0067  02.08.2006

@<TRIPOS>MOLECULE
ASD04590083
  33   34    0    0    0
SMALL
NO_CHARGES


@<TRIPOS>ATOM
   1 N1             0.3080     1.4706    -0.2527 N.3     
   2 C2             0.3279     0.0018    -0.2608 C.3     
   3 C3            -1.0428    -0.5292     0.1637 C.3     
   4 C4            -1.0220    -2.0590     0.1553 C.3     
   5 C5            -0.6964    -2.5569    -1.2543 C.3     
   6 C6             0.6743    -2.0259    -1.6789 C.3     
   7 C7             0.6535    -0.4961    -1.6704 C.3     
   8 N8            -0.6765    -4.0257    -1.2624 N.3     
   9 C9            -2.0303    -4.5698    -1.1332 C.3     
  10 C10           -2.0470    -6.0357    -1.5796 C.3     
  11 S11           -0.9490    -6.9855    -0.4837 S.3     
  12 C12            0.5823    -6.0057    -0.5456 C.3     
  13 C13            0.2371    -4.5439    -0.2416 C.3     
  14 H14            1.2027     1.8459    -0.5298 H       
  15 H15           -0.4309     1.8255    -0.8412 H       
  16 H16            1.0872    -0.3551     0.4350 H       
  17 H17           -1.2747    -0.1745     1.1679 H       
  18 H18           -1.8021    -0.1723    -0.5321 H       
  19 H19           -0.2627    -2.4159     0.8511 H       
  20 H20           -1.9985    -2.4373     0.4577 H       
  21 H21           -1.4557    -2.2000    -1.9501 H       
  22 H22            1.4336    -2.3828    -0.9830 H       
  23 H23            0.9062    -2.3806    -2.6831 H       
  24 H24           -0.1058    -0.1392    -2.3662 H       
  25 H25            1.6300    -0.1178    -1.9729 H       
  26 H26           -2.3492    -4.5043    -0.0930 H       
  27 H27           -2.7133    -3.9934    -1.7572 H       
  28 H28           -3.0617    -6.4279    -1.5107 H       
  29 H29           -1.6918    -6.1096    -2.6074 H       
  30 H30            1.2858    -6.3784     0.1990 H       
  31 H31            1.0238    -6.0787    -1.5395 H       
  32 H32            1.1506    -3.9493    -0.2377 H       
  33 H33           -0.2393    -4.4802     0.7367 H       
@<TRIPOS>BOND
   1    1    2 1
   2    1   14 1
   3    1   15 1
   4    2    3 1
   5    2    7 1
   6    2   16 1
   7    3    4 1
   8    3   17 1
   9    3   18 1
  10    4    5 1
  11    4   19 1
  12    4   20 1
  13    5    6 1
  14    5    8 1
  15    5   21 1
  16    6    7 1
  17    6   22 1
  18    6   23 1
  19    7   24 1
  20    7   25 1
  21    8    9 1
  22    8   13 1
  23    9   10 1
  24    9   26 1
  25    9   27 1
  26   10   11 1
  27   10   28 1
  28   10   29 1
  29   11   12 1
  30   12   13 1
  31   12   30 1
  32   12   31 1
  33   13   32 1
  34   13   33 1

#	End of record

