#	Name: ASD00241023
#	Creating user name:	WinNT
#	Creation time:	15. 06. 2019 18:33

#	Modifying user name:	WinNT
#	Modification time:	15. 06. 2019 18:33

#	Program:	/corina/corina34_cracker 3.40 0067  02.08.2006

@<TRIPOS>MOLECULE
ASD00241023
  48   50    0    0    0
SMALL
NO_CHARGES


@<TRIPOS>ATOM
   1 C1             0.1003     1.6053    -0.2257 C.3     
   2 C2             3.5712    -0.3973     1.5243 C.3     
   3 C3             4.9224    -0.2734     0.7789 C.3     
   4 C4             4.5255    -0.1539    -0.7053 C.3     
   5 O5             3.0933    -0.2554    -0.7741 O.3     
   6 C6             2.5770     0.1988     0.4954 C.3     
   7 C7             6.1987     1.4375    -1.7421 C.ar    
   8 C8             6.1484     2.7885    -2.1243 C.ar    
   9 N9             7.3272     0.7577    -1.9189 N.ar    
  10 C10            8.3849     1.3386    -2.4443 C.ar    
  11 N11            8.3858     2.6053    -2.8182 N.ar    
  12 C12            7.3035     3.3640    -2.6810 C.ar    
  13 N13            4.9026     3.2379    -1.8394 N.2     
  14 C14            4.2022     2.2722    -1.3194 C.2     
  15 N15            4.9590     1.1417    -1.2341 N.pl3   
  16 C16            1.1671    -0.3469     0.7300 C.3     
  17 N17            0.2688     0.1491    -0.3212 N.3     
  18 C18           -1.0299    -0.5356    -0.2703 C.3     
  19 C19           -1.8305    -0.1860    -1.4982 C.2     
  20 C20           -2.3449    -1.1374    -2.2375 C.2     
  21 O21            3.2631    -1.7657     1.7974 O.3     
  22 O22            5.6232     0.8968     1.2050 O.3     
  23 N23            7.3139     4.6902    -3.0760 N.pl3   
  24 C24           -2.0813    -2.5817    -1.8975 C.3     
  25 N25           -3.3567    -3.3059    -1.8150 N.3     
  26 H26            1.0697     2.0913    -0.3364 H       
  27 H27           -0.5692     1.9462    -1.0155 H       
  28 H28           -0.3246     1.8590     0.7454 H       
  29 H29            3.5788     0.1887     2.4433 H       
  30 H30            5.5304    -1.1635     0.9408 H       
  31 H31            4.9823    -0.9615    -1.2773 H       
  32 H32            2.5813     1.2878     0.5440 H       
  33 H33            9.2861     0.7577    -2.5743 H       
  34 H34            3.1740     2.3552    -0.9992 H       
  35 H35            1.1901    -1.4363     0.7039 H       
  36 H36            0.8060    -0.0143     1.7032 H       
  37 H37           -0.8712    -1.6134    -0.2346 H       
  38 H38           -1.5730    -0.2186     0.6200 H       
  39 H39           -1.9803     0.8487    -1.7687 H       
  40 H40           -2.9578    -0.8866    -3.0906 H       
  41 H41            3.9082    -2.2082     2.3658 H       
  42 H42            5.8465     0.9007     2.1459 H       
  43 H43            8.1175     5.0762    -3.4582 H       
  44 H44            6.5175     5.2339    -2.9707 H       
  45 H45           -1.4586    -3.0295    -2.6720 H       
  46 H46           -1.5670    -2.6411    -0.9383 H       
  47 H47           -3.8822    -3.2116    -2.6711 H       
  48 H48           -3.2067    -4.2775    -1.5879 H       
@<TRIPOS>BOND
   1    1   17 1
   2    1   26 1
   3    1   27 1
   4    1   28 1
   5    2    3 1
   6    2   21 1
   7    2    6 1
   8    2   29 1
   9    3    4 1
  10    3   22 1
  11    3   30 1
  12    4    5 1
  13    4   15 1
  14    4   31 1
  15    5    6 1
  16    6   16 1
  17    6   32 1
  18    7    8 ar
  19    7    9 ar
  20    7   15 1
  21    8   13 1
  22    8   12 ar
  23    9   10 ar
  24   10   11 ar
  25   10   33 1
  26   11   12 ar
  27   12   23 1
  28   13   14 2
  29   14   15 1
  30   14   34 1
  31   16   17 1
  32   16   35 1
  33   16   36 1
  34   17   18 1
  35   18   19 1
  36   18   37 1
  37   18   38 1
  38   19   20 2
  39   19   39 1
  40   20   24 1
  41   20   40 1
  42   21   41 1
  43   22   42 1
  44   23   43 1
  45   23   44 1
  46   24   25 1
  47   24   45 1
  48   24   46 1
  49   25   47 1
  50   25   48 1

#	End of record

