#	Name: ASD03430178
#	Creating user name:	WinNT
#	Creation time:	15. 06. 2019 20:40

#	Modifying user name:	WinNT
#	Modification time:	15. 06. 2019 20:40

#	Program:	/corina/corina34_cracker 3.40 0067  02.08.2006

@<TRIPOS>MOLECULE
ASD03430178
  57   62    0    0    0
SMALL
NO_CHARGES


@<TRIPOS>ATOM
   1 C1            -0.0064     1.3656     0.0205 C.ar    
   2 C2             0.0088    -0.0116     0.0137 C.ar    
   3 C3             1.2091    -0.6908     0.0138 C.ar    
   4 C4             2.4131     0.0087     0.0295 C.ar    
   5 C5             2.3892     1.3983     0.0256 C.ar    
   6 C6             1.1820     2.0866     0.0180 C.ar    
   7 O7             3.4768    -0.8435     0.0604 O.3     
   8 C8             1.5613    -2.1533    -0.0131 C.3     
   9 C9             3.0533    -2.1493    -0.3751 C.3     
  10 C10            0.4289    -3.8731     1.0266 C.ar    
  11 C11            1.3075    -2.8283     1.3023 C.ar    
  12 C12            0.7468    -2.9180    -1.0163 C.2     
  13 N13            0.1217    -3.8995    -0.3356 N.am    
  14 O14            0.6668    -2.6961    -2.2060 O.2     
  15 C15            1.7515    -2.6072     2.5865 C.ar    
  16 C16            1.3264    -3.4259     3.6179 C.ar    
  17 C17            0.4539    -4.4660     3.3559 C.ar    
  18 C18            0.0057    -4.6916     2.0709 C.ar    
  19 C19           -0.7749    -4.8800    -0.9529 C.3     
  20 C20           -1.1386     2.3735     0.0405 C.3     
  21 C21           -0.4026     3.6739     0.4413 C.3     
  22 O22            0.9426     3.4275    -0.0024 O.3     
  23 C23           -2.1864    -4.3526    -0.9324 C.2     
  24 N24           -3.1888    -5.0897    -1.4505 N.am    
  25 O25           -2.4205    -3.2649    -0.4496 O.2     
  26 C26           -4.5125    -4.6521    -1.3321 C.ar    
  27 C27           -5.4209    -4.8986    -2.3532 C.ar    
  28 C28           -6.7269    -4.4658    -2.2331 C.ar    
  29 C29           -7.1303    -3.7871    -1.0977 C.ar    
  30 C30           -6.2282    -3.5401    -0.0792 C.ar    
  31 C31           -4.9222    -3.9753    -0.1907 C.ar    
  32 C32           -8.5559    -3.3154    -0.9704 C.3     
  33 C33           -9.3971    -4.4074    -0.3066 C.3     
  34 H34           -0.9212    -0.5608     0.0087 H       
  35 H35            3.3184     1.9489     0.0292 H       
  36 H36            3.1911    -2.2623    -1.4504 H       
  37 H37            3.5855    -2.9300     0.1685 H       
  38 H38            2.4327    -1.7940     2.7891 H       
  39 H39            1.6757    -3.2531     4.6252 H       
  40 H40            0.1220    -5.1049     4.1609 H       
  41 H41           -0.6756    -5.5062     1.8739 H       
  42 H42           -0.4673    -5.0549    -1.9839 H       
  43 H43           -0.7285    -5.8159    -0.3961 H       
  44 H44           -1.5913     2.4705    -0.9463 H       
  45 H45           -1.8869     2.1040     0.7859 H       
  46 H46           -0.8284     4.5338    -0.0759 H       
  47 H47           -0.4328     3.8177     1.5213 H       
  48 H48           -2.9925    -5.9236    -1.9055 H       
  49 H49           -5.1063    -5.4280    -3.2404 H       
  50 H50           -7.4338    -4.6572    -3.0268 H       
  51 H51           -6.5463    -3.0098     0.8062 H       
  52 H52           -4.2182    -3.7821     0.6051 H       
  53 H53           -8.5866    -2.4122    -0.3610 H       
  54 H54           -8.9569    -3.0994    -1.9607 H       
  55 H55           -9.3663    -5.3106    -0.9160 H       
  56 H56           -8.9961    -4.6234     0.6836 H       
  57 H57          -10.4282    -4.0662    -0.2145 H       
@<TRIPOS>BOND
   1    1    2 ar
   2    1    6 ar
   3    1   20 1
   4    2    3 ar
   5    2   34 1
   6    3    4 ar
   7    3    8 1
   8    4    5 ar
   9    4    7 1
  10    5    6 ar
  11    5   35 1
  12    6   22 1
  13    7    9 1
  14    8    9 1
  15    8   11 1
  16    8   12 1
  17    9   36 1
  18    9   37 1
  19   10   11 ar
  20   10   13 1
  21   10   18 ar
  22   11   15 ar
  23   12   13 am
  24   12   14 2
  25   13   19 1
  26   15   16 ar
  27   15   38 1
  28   16   17 ar
  29   16   39 1
  30   17   18 ar
  31   17   40 1
  32   18   41 1
  33   19   23 1
  34   19   42 1
  35   19   43 1
  36   20   21 1
  37   20   44 1
  38   20   45 1
  39   21   22 1
  40   21   46 1
  41   21   47 1
  42   23   24 am
  43   23   25 2
  44   24   26 1
  45   24   48 1
  46   26   27 ar
  47   26   31 ar
  48   27   28 ar
  49   27   49 1
  50   28   29 ar
  51   28   50 1
  52   29   30 ar
  53   29   32 1
  54   30   31 ar
  55   30   51 1
  56   31   52 1
  57   32   33 1
  58   32   53 1
  59   32   54 1
  60   33   55 1
  61   33   56 1
  62   33   57 1

#	End of record

