#	Name: ASD01908384
#	Creating user name:	WinNT
#	Creation time:	15. 06. 2019 19:55

#	Modifying user name:	WinNT
#	Modification time:	15. 06. 2019 19:55

#	Program:	/corina/corina34_cracker 3.40 0067  02.08.2006

@<TRIPOS>MOLECULE
ASD01908384
  39   42    0    0    0
SMALL
NO_CHARGES


@<TRIPOS>ATOM
   1 C1            -0.0145     1.4088     0.0533 C.ar    
   2 C2             0.0002     0.0269     0.0470 C.ar    
   3 C3             1.2045    -0.6457     0.0276 C.ar    
   4 C4             2.4044     0.0555     0.0142 C.ar    
   5 C5             2.3898     1.4318     0.0205 C.ar    
   6 C6             1.1752     2.1071     0.0401 C.ar    
   7 S7             4.0586    -0.5562    -0.0117 S.o2    
   8 N8             5.0536     0.7721    -0.0198 N.am    
   9 S9             4.0305     2.0788     0.0003 S.o2    
  10 C10            6.4525     0.7870    -0.0387 C.ar    
  11 C11            7.1341     1.9972    -0.0431 C.ar    
  12 C12            7.1597    -0.4083    -0.0474 C.ar    
  13 C13            8.5401    -0.3934    -0.0661 C.ar    
  14 C14            9.2215     0.8166    -0.0758 C.ar    
  15 C15            8.5145     2.0118    -0.0618 C.ar    
  16 N16           10.6219     0.8316    -0.0938 N.am    
  17 C17           11.2769     1.7969    -0.7688 C.2     
  18 O18           10.6549     2.5980    -1.4420 O.2     
  19 O19            4.1900     2.7351    -1.2499 O.2     
  20 O20            4.2251     2.7242     1.2512 O.2     
  21 O21            4.2669    -1.2086     1.2334 O.2     
  22 O22            4.2318    -1.1977    -1.2677 O.2     
  23 C23           12.7377     1.8822    -0.6923 C.2     
  24 C24           13.5219     2.8061    -1.3231 C.2     
  25 C25           14.8488     2.5167    -0.9718 C.2     
  26 C26           14.8181     1.4411    -0.1514 C.2     
  27 O27           13.5435     1.0653     0.0183 O.3     
  28 Br28          16.3252     0.6095     0.6315 Br      
  29 H29           -0.9545     1.9405     0.0640 H       
  30 H30           -0.9282    -0.5248     0.0577 H       
  31 H31            1.2150    -1.7257     0.0231 H       
  32 H32            1.1626     3.1871     0.0446 H       
  33 H33            6.5842     2.9267    -0.0323 H       
  34 H34            6.6298    -1.3493    -0.0391 H       
  35 H35            9.0901    -1.3229    -0.0728 H       
  36 H36            9.0444     2.9528    -0.0698 H       
  37 H37           11.1204     0.1472     0.3795 H       
  38 H38           13.1854     3.6046    -1.9677 H       
  39 H39           15.7294     3.0515    -1.2957 H       
@<TRIPOS>BOND
   1    1    2 ar
   2    1    6 ar
   3    1   29 1
   4    2    3 ar
   5    2   30 1
   6    3    4 ar
   7    3   31 1
   8    4    5 ar
   9    4    7 1
  10    5    6 ar
  11    5    9 1
  12    6   32 1
  13    7    8 am
  14    7   21 2
  15    7   22 2
  16    8    9 am
  17    8   10 1
  18    9   19 2
  19    9   20 2
  20   10   11 ar
  21   10   12 ar
  22   11   15 ar
  23   11   33 1
  24   12   13 ar
  25   12   34 1
  26   13   14 ar
  27   13   35 1
  28   14   15 ar
  29   14   16 1
  30   15   36 1
  31   16   17 am
  32   16   37 1
  33   17   18 2
  34   17   23 1
  35   23   24 2
  36   23   27 1
  37   24   25 1
  38   24   38 1
  39   25   26 2
  40   25   39 1
  41   26   27 1
  42   26   28 1

#	End of record

