#	Name: ASD01816344
#	Creating user name:	WinNT
#	Creation time:	15. 06. 2019 19:35

#	Modifying user name:	WinNT
#	Modification time:	15. 06. 2019 19:35

#	Program:	/corina/corina34_cracker 3.40 0067  02.08.2006

@<TRIPOS>MOLECULE
ASD01816344
  55   61    0    0    0
SMALL
NO_CHARGES


@<TRIPOS>ATOM
   1 C1            -0.0166     1.3813     0.0215 C.ar    
   2 C2             0.0022    -0.0041     0.0116 C.ar    
   3 C3             1.1983    -0.6909    -0.0080 C.ar    
   4 C4             2.4015     0.0059    -0.0181 C.ar    
   5 C5             2.3791     1.4106    -0.0080 C.ar    
   6 C6             1.1663     2.0916     0.0119 C.ar    
   7 N7             3.6051    -0.6771    -0.0373 N.pl3   
   8 C8             4.7969    -0.0584    -0.0473 C.2     
   9 C9             4.8998     1.3104    -0.0394 C.2     
  10 C10            3.6670     2.1302    -0.0190 C.2     
  11 C11            5.9970     2.2732    -0.0464 C.2     
  12 N12            5.4244     3.4963    -0.0317 N.am    
  13 N13            4.0322     3.3800    -0.0154 N.2     
  14 O14            7.1907     2.0234    -0.0617 O.2     
  15 C15            3.5777    -2.1418    -0.0467 C.3     
  16 C16            3.5510    -2.6346    -1.4706 C.ar    
  17 C17            4.7368    -2.8825    -2.1373 C.ar    
  18 C18            4.7155    -3.3338    -3.4425 C.ar    
  19 C19            3.5019    -3.5389    -4.0849 C.ar    
  20 C20            2.3130    -3.2895    -3.4127 C.ar    
  21 C21            2.3407    -2.8433    -2.1059 C.ar    
  22 N22            3.4771    -3.9964    -5.4098 N.pl3   
  23 C23            2.3700    -4.2362    -6.1483 C.2     
  24 C24            2.7729    -4.6632    -7.3675 C.2     
  25 C25            4.1719    -4.6855    -7.3755 C.2     
  26 N26            4.5948    -4.2804    -6.2050 N.2     
  27 C27            6.1188     4.6957    -0.0322 C.ar    
  28 N28            6.5354     5.2407    -1.1663 N.ar    
  29 C29            7.1994     6.3855    -1.1807 C.ar    
  30 N30            7.4907     7.0555    -0.0911 N.ar    
  31 C31            7.1162     6.5937     1.1108 C.ar    
  32 C32            6.3973     5.3748     1.1777 C.ar    
  33 C33            7.4094     7.2828     2.2957 C.ar    
  34 C34            7.0045     6.7683     3.4912 C.ar    
  35 C35            6.3034     5.5670     3.5552 C.ar    
  36 C36            5.9963     4.8739     2.4216 C.ar    
  37 H37           -0.9600     1.9068     0.0324 H       
  38 H38           -0.9287    -0.5516     0.0196 H       
  39 H39            1.2003    -1.7709    -0.0153 H       
  40 H40            1.1507     3.1715     0.0196 H       
  41 H41            5.6981    -0.6533    -0.0615 H       
  42 H42            4.4670    -2.5250     0.4538 H       
  43 H43            2.6874    -2.4919     0.4757 H       
  44 H44            5.6805    -2.7228    -1.6370 H       
  45 H45            5.6420    -3.5266    -3.9629 H       
  46 H46            1.3674    -3.4477    -3.9100 H       
  47 H47            1.4161    -2.6491    -1.5825 H       
  48 H48            1.3478    -4.1102    -5.8233 H       
  49 H49            2.1284    -4.9382    -8.1893 H       
  50 H50            4.7955    -4.9816    -8.2060 H       
  51 H51            7.5161     6.7860    -2.1323 H       
  52 H52            7.9531     8.2154     2.2617 H       
  53 H53            7.2313     7.3006     4.4031 H       
  54 H54            5.9948     5.1810     4.5155 H       
  55 H55            5.4521     3.9431     2.4836 H       
@<TRIPOS>BOND
   1    1    2 ar
   2    1    6 ar
   3    1   37 1
   4    2    3 ar
   5    2   38 1
   6    3    4 ar
   7    3   39 1
   8    4    5 ar
   9    4    7 1
  10    5    6 ar
  11    5   10 1
  12    6   40 1
  13    7    8 1
  14    7   15 1
  15    8    9 2
  16    8   41 1
  17    9   10 1
  18    9   11 1
  19   10   13 2
  20   11   12 am
  21   11   14 2
  22   12   13 1
  23   12   27 1
  24   15   16 1
  25   15   42 1
  26   15   43 1
  27   16   17 ar
  28   16   21 ar
  29   17   18 ar
  30   17   44 1
  31   18   19 ar
  32   18   45 1
  33   19   20 ar
  34   19   22 1
  35   20   21 ar
  36   20   46 1
  37   21   47 1
  38   22   23 1
  39   22   26 1
  40   23   24 2
  41   23   48 1
  42   24   25 1
  43   24   49 1
  44   25   26 2
  45   25   50 1
  46   27   28 ar
  47   27   32 ar
  48   28   29 ar
  49   29   30 ar
  50   29   51 1
  51   30   31 ar
  52   31   32 ar
  53   31   33 ar
  54   32   36 ar
  55   33   34 ar
  56   33   52 1
  57   34   35 ar
  58   34   53 1
  59   35   36 ar
  60   35   54 1
  61   36   55 1

#	End of record

