#	Name: ASD01812128
#	Creating user name:	WinNT
#	Creation time:	15. 06. 2019 19:28

#	Modifying user name:	WinNT
#	Modification time:	15. 06. 2019 19:28

#	Program:	/corina/corina34_cracker 3.40 0067  02.08.2006

@<TRIPOS>MOLECULE
ASD01812128
  54   59    0    0    0
SMALL
NO_CHARGES


@<TRIPOS>ATOM
   1 C1            -0.2336     1.0854     0.6093 C.ar    
   2 C2            -0.1076    -0.2997     0.5791 C.ar    
   3 C3             1.1046    -0.8897     0.3777 C.ar    
   4 C4             2.2456    -0.0929     0.1976 C.ar    
   5 C5             2.1135     1.3168     0.2289 C.ar    
   6 C6             0.8550     1.8899     0.4378 C.ar    
   7 C7             3.5131    -0.6752    -0.0132 C.ar    
   8 C8             4.6159     0.0915    -0.1878 C.ar    
   9 C9             4.5397     1.4928    -0.1657 C.ar    
  10 C10            3.3063     2.1372     0.0405 C.ar    
  11 C11            5.7286     2.3340    -0.3548 C.2     
  12 N12            5.5554     3.6757    -0.3181 N.am    
  13 C13            4.3237     4.2055    -0.1130 C.2     
  14 N14            3.2571     3.4798     0.0565 N.2     
  15 O15            6.8280     1.8431    -0.5373 O.2     
  16 C16            3.6424    -2.1763    -0.0442 C.3     
  17 C17            3.3865    -2.6737    -1.4435 C.2     
  18 C18            2.1522    -3.0975    -1.7871 C.2     
  19 C19            1.8995    -3.5642    -3.0877 C.2     
  20 C20            2.9059    -3.5873    -4.0026 C.2     
  21 C21            4.1893    -3.1410    -3.6285 C.2     
  22 N22            4.4039    -2.6863    -2.3532 N.pl3   
  23 C23            6.7070     4.5626    -0.5009 C.3     
  24 C24            6.8805     5.4393     0.7431 C.3     
  25 C25            8.0379     6.4150     0.5093 C.3     
  26 C26            7.7531     7.2405    -0.7481 C.3     
  27 O27            7.5717     6.3631    -1.8614 O.3     
  28 C28            6.4736     5.4596    -1.7193 C.3     
  29 O29            7.1717     4.6140     1.8727 O.3     
  30 N30            5.3323    -3.0517    -4.2938 N.2     
  31 C31            6.2731    -2.5594    -3.4844 C.2     
  32 C32            5.7192    -2.3172    -2.2761 C.2     
  33 H33           -1.2056     1.5293     0.7660 H       
  34 H34           -0.9831    -0.9167     0.7177 H       
  35 H35            1.1866    -1.9664     0.3572 H       
  36 H36            0.7452     2.9640     0.4628 H       
  37 H37            5.5722    -0.3845    -0.3467 H       
  38 H38            4.2235     5.2806    -0.0891 H       
  39 H39            4.6484    -2.4607     0.2642 H       
  40 H40            2.9151    -2.6178     0.6371 H       
  41 H41            1.3550    -3.0781    -1.0587 H       
  42 H42            0.9110    -3.9034    -3.3599 H       
  43 H43            2.7233    -3.9443    -5.0054 H       
  44 H44            7.6064     3.9663    -0.6546 H       
  45 H45            5.9631     5.9989     0.9256 H       
  46 H46            8.1329     7.0799     1.3678 H       
  47 H47            8.9642     5.8561     0.3761 H       
  48 H48            6.8486     7.8300    -0.5988 H       
  49 H49            8.5933     7.9068    -0.9436 H       
  50 H50            6.3921     4.8430    -2.6144 H       
  51 H51            5.5523     6.0259    -1.5827 H       
  52 H52            7.2941     5.1045     2.6971 H       
  53 H53            7.3031    -2.3769    -3.7533 H       
  54 H54            6.2227    -1.9163    -1.4088 H       
@<TRIPOS>BOND
   1    1    2 ar
   2    1    6 ar
   3    1   33 1
   4    2    3 ar
   5    2   34 1
   6    3    4 ar
   7    3   35 1
   8    4    5 ar
   9    4    7 ar
  10    5    6 ar
  11    5   10 ar
  12    6   36 1
  13    7    8 ar
  14    7   16 1
  15    8    9 ar
  16    8   37 1
  17    9   10 ar
  18    9   11 1
  19   10   14 1
  20   11   12 am
  21   11   15 2
  22   12   13 1
  23   12   23 1
  24   13   14 2
  25   13   38 1
  26   16   17 1
  27   16   39 1
  28   16   40 1
  29   17   18 2
  30   17   22 1
  31   18   19 1
  32   18   41 1
  33   19   20 2
  34   19   42 1
  35   20   21 1
  36   20   43 1
  37   21   30 2
  38   21   22 1
  39   22   32 1
  40   23   24 1
  41   23   28 1
  42   23   44 1
  43   24   25 1
  44   24   29 1
  45   24   45 1
  46   25   26 1
  47   25   46 1
  48   25   47 1
  49   26   27 1
  50   26   48 1
  51   26   49 1
  52   27   28 1
  53   28   50 1
  54   28   51 1
  55   29   52 1
  56   30   31 1
  57   31   32 2
  58   31   53 1
  59   32   54 1

#	End of record

