#	Name: ASD04590366
#	Creating user name:	WinNT
#	Creation time:	15. 06. 2019 20:50

#	Modifying user name:	WinNT
#	Modification time:	15. 06. 2019 20:50

#	Program:	/corina/corina34_cracker 3.40 0067  02.08.2006

@<TRIPOS>MOLECULE
ASD04590366
  38   41    0    0    0
SMALL
NO_CHARGES


@<TRIPOS>ATOM
   1 C1            -0.0167     1.3834     0.0096 C.ar    
   2 C2             0.0021    -0.0041     0.0020 C.ar    
   3 C3             1.1863    -0.6848    -0.0125 C.ar    
   4 C4             2.3948     0.0191    -0.0202 C.ar    
   5 C5             2.3756     1.4250    -0.0129 C.ar    
   6 C6             1.1624     2.0987     0.0022 C.ar    
   7 N7             3.6952    -0.3636    -0.0350 N.2     
   8 C8             4.4665     0.6967    -0.0373 C.2     
   9 N9             3.6970     1.8290    -0.0240 N.pl3   
  10 C10            5.9437     0.6731    -0.0521 C.2     
  11 C11            6.7565    -0.4839    -0.0664 C.2     
  12 C12            8.0503    -0.0800    -0.0778 C.2     
  13 N13            8.0626     1.2789    -0.0710 N.pl3   
  14 N14            6.7358     1.7273    -0.0599 N.2     
  15 N15            6.3042    -1.8136    -0.0678 N.am    
  16 C16            7.1921    -2.8274    -0.0823 C.2     
  17 C17            6.7174    -4.2228    -0.0837 C.2     
  18 O18            8.3851    -2.5909    -0.0942 O.2     
  19 C19            6.4533    -5.0386     0.9894 C.2     
  20 O20            6.0498    -6.2062     0.4833 O.3     
  21 N21            6.0303    -6.2190    -0.7231 N.2     
  22 C22            6.4033    -5.0834    -1.2347 C.2     
  23 C23            6.5029    -4.7280    -2.6958 C.3     
  24 C24            6.5920    -4.6859     2.4480 C.3     
  25 H25           -0.9614     1.9069     0.0169 H       
  26 H26           -0.9290    -0.5513     0.0080 H       
  27 H27            1.1893    -1.7648    -0.0176 H       
  28 H28            1.1417     3.1785     0.0075 H       
  29 H29            4.0192     2.7439    -0.0229 H       
  30 H30            8.9174    -0.7238    -0.0898 H       
  31 H31            8.8532     1.8409    -0.0761 H       
  32 H32            5.3527    -2.0022    -0.0583 H       
  33 H33            5.5523    -4.3168    -3.0353 H       
  34 H34            7.2902    -3.9874    -2.8367 H       
  35 H35            6.7384    -5.6227    -3.2721 H       
  36 H36            5.6527    -4.2696     2.8120 H       
  37 H37            6.8367    -5.5828     3.0170 H       
  38 H38            7.3869    -3.9501     2.5698 H       
@<TRIPOS>BOND
   1    1    2 ar
   2    1    6 ar
   3    1   25 1
   4    2    3 ar
   5    2   26 1
   6    3    4 ar
   7    3   27 1
   8    4    5 ar
   9    4    7 1
  10    5    6 ar
  11    5    9 1
  12    6   28 1
  13    7    8 2
  14    8    9 1
  15    8   10 1
  16    9   29 1
  17   10   11 1
  18   10   14 2
  19   11   12 2
  20   11   15 1
  21   12   13 1
  22   12   30 1
  23   13   14 1
  24   13   31 1
  25   15   16 am
  26   15   32 1
  27   16   17 1
  28   16   18 2
  29   17   19 2
  30   17   22 1
  31   19   20 1
  32   19   24 1
  33   20   21 1
  34   21   22 2
  35   22   23 1
  36   23   33 1
  37   23   34 1
  38   23   35 1
  39   24   36 1
  40   24   37 1
  41   24   38 1

#	End of record

