#	Name: ASD01880929
#	Creating user name:	WinNT
#	Creation time:	15. 06. 2019 19:41

#	Modifying user name:	WinNT
#	Modification time:	15. 06. 2019 19:41

#	Program:	/corina/corina34_cracker 3.40 0067  02.08.2006

@<TRIPOS>MOLECULE
ASD01880929
  42   44    0    0    0
SMALL
NO_CHARGES


@<TRIPOS>ATOM
   1 N1            -0.0158     1.3135     0.0093 N.ar    
   2 C2             0.0021    -0.0041     0.0020 C.ar    
   3 N3             1.1312    -0.6835    -0.0120 N.ar    
   4 C4             2.3010    -0.0614    -0.0198 C.ar    
   5 C5             2.3294     1.3206    -0.0131 C.ar    
   6 C6             1.1167     2.0074     0.0022 C.ar    
   7 C7             3.6391     2.0661    -0.0211 C.3     
   8 O8             4.7194     1.1309    -0.0355 O.3     
   9 C9             5.9766     1.6419    -0.0442 C.ar    
  10 C10            7.0745     0.7865    -0.0584 C.ar    
  11 C11            8.3458     1.3035    -0.0677 C.ar    
  12 C12            8.5472     2.6881    -0.0630 C.ar    
  13 C13            7.4407     3.5439    -0.0487 C.ar    
  14 C14            6.1660     3.0180    -0.0448 C.ar    
  15 C15            9.7167     0.6743    -0.0838 C.3     
  16 N16           10.6766     1.7841    -0.0876 N.am    
  17 C17            9.9972     2.9437    -0.0756 C.2     
  18 O18           10.5076     4.0473    -0.0755 O.2     
  19 Cl19           7.6719     5.2644    -0.0422 Cl      
  20 O20            1.0934     3.3624     0.0092 O.3     
  21 C21           -0.1907     3.9891     0.0249 C.3     
  22 C22           12.6290     1.6108    -1.5503 C.3     
  23 C23           12.1353     1.6502    -0.1026 C.3     
  24 C24           -0.0164     5.5091     0.0309 C.3     
  25 F25            0.6808     5.9030    -1.1163 F       
  26 F26           -1.2735     6.1226     0.0462 F       
  27 F27            0.7031     5.8915     1.1682 F       
  28 H28           -0.9344    -0.5420     0.0081 H       
  29 H29            3.2210    -0.6271    -0.0309 H       
  30 H30            3.6927     2.6969    -0.9084 H       
  31 H31            3.7086     2.6879     0.8714 H       
  32 H32            6.9261    -0.2832    -0.0617 H       
  33 H33            5.3116     3.6786    -0.0342 H       
  34 H34            9.8575     0.0601     0.8056 H       
  35 H35            9.8404     0.0686    -0.9815 H       
  36 H36           -0.7513     3.6911    -0.8612 H       
  37 H37           -0.7339     3.6821     0.9187 H       
  38 H38           12.1808     0.7603    -2.0640 H       
  39 H39           12.3436     2.5328    -2.0567 H       
  40 H40           13.7144     1.5111    -1.5614 H       
  41 H41           12.5836     2.5006     0.4111 H       
  42 H42           12.4208     0.7281     0.4038 H       
@<TRIPOS>BOND
   1    1    2 ar
   2    1    6 ar
   3    2    3 ar
   4    2   28 1
   5    3    4 ar
   6    4    5 ar
   7    4   29 1
   8    5    6 ar
   9    5    7 1
  10    6   20 1
  11    7    8 1
  12    7   30 1
  13    7   31 1
  14    8    9 1
  15    9   10 ar
  16    9   14 ar
  17   10   11 ar
  18   10   32 1
  19   11   12 ar
  20   11   15 1
  21   12   13 ar
  22   12   17 1
  23   13   14 ar
  24   13   19 1
  25   14   33 1
  26   15   16 1
  27   15   34 1
  28   15   35 1
  29   16   17 am
  30   16   23 1
  31   17   18 2
  32   20   21 1
  33   21   24 1
  34   21   36 1
  35   21   37 1
  36   22   23 1
  37   22   38 1
  38   22   39 1
  39   22   40 1
  40   23   41 1
  41   23   42 1
  42   24   25 1
  43   24   26 1
  44   24   27 1

#	End of record

