#	Name: ASD03330543
#	Creating user name:	WinNT
#	Creation time:	15. 06. 2019 20:37

#	Modifying user name:	WinNT
#	Modification time:	15. 06. 2019 20:37

#	Program:	/corina/corina34_cracker 3.40 0067  02.08.2006

@<TRIPOS>MOLECULE
ASD03330543
  60   62    0    0    0
SMALL
NO_CHARGES


@<TRIPOS>ATOM
   1 C1             0.2075     2.0620    -1.0797 C.2     
   2 N2             0.2815     0.7923    -1.5436 N.pl3   
   3 C3             1.4601     2.4175    -0.6792 C.2     
   4 N4             2.2810     1.3719    -0.9189 N.2     
   5 C5             1.5822     0.3930    -1.4437 C.2     
   6 C6             2.1156    -0.9237    -1.8573 C.ar    
   7 C7             1.8498     3.7112    -0.0908 C.2     
   8 O8             1.0149     4.5797     0.0756 O.2     
   9 C9             3.5189     5.2179     0.8479 C.3     
  10 N10            3.1315     3.9318     0.2629 N.am    
  11 C11            3.2612     5.1906     2.3558 C.3     
  12 C12            4.0118     4.0127     2.9803 C.3     
  13 C13            3.7527     6.4977     2.9809 C.3     
  14 C14            1.7612     5.0342     2.6140 C.3     
  15 C15            4.9836     5.4648     0.5930 C.2     
  16 N16            5.4773     6.7171     0.6592 N.am    
  17 O17            5.7179     4.5366     0.3283 O.2     
  18 C18            6.8765     6.9723     0.3079 C.3     
  19 C19           -0.8472     0.0029    -2.0444 C.3     
  20 C20           -1.6633     0.8554    -3.0209 C.3     
  21 C21           -2.7114     1.6558    -2.2542 C.3     
  22 N22           -2.2138     2.0425    -0.9324 N.3     
  23 C23           -1.0346     2.9142    -1.0399 C.3     
  24 C24           -3.2711     2.6826    -0.1384 C.3     
  25 C25            1.3047    -2.0571    -1.7983 C.ar    
  26 C26            1.8077    -3.2847    -2.1863 C.ar    
  27 C27            3.1147    -3.3905    -2.6331 C.ar    
  28 C28            3.9243    -2.2681    -2.6931 C.ar    
  29 C29            3.4293    -1.0349    -2.3129 C.ar    
  30 F30            5.1981    -2.3781    -3.1294 F       
  31 F31            1.0235    -4.3833    -2.1293 F       
  32 H32            2.9315     6.0155     0.3932 H       
  33 H33            3.7974     3.2391     0.1302 H       
  34 H34            5.0803     4.1241     2.7963 H       
  35 H35            3.8281     3.9933     4.0545 H       
  36 H36            3.6616     3.0815     2.5349 H       
  37 H37            3.2358     7.3386     2.5184 H       
  38 H38            3.5465     6.4887     4.0512 H       
  39 H39            4.8259     6.5971     2.8185 H       
  40 H40            1.4111     4.1030     2.1686 H       
  41 H41            1.5776     5.0148     3.6882 H       
  42 H42            1.2265     5.8733     2.1691 H       
  43 H43            4.9063     7.4494     0.9395 H       
  44 H44            7.0916     8.0348     0.4214 H       
  45 H45            7.5273     6.3975     0.9669 H       
  46 H46            7.0517     6.6745    -0.7259 H       
  47 H47           -0.4729    -0.8823    -2.5586 H       
  48 H48           -1.4789    -0.2997    -1.2092 H       
  49 H49           -0.9984     1.5397    -3.5478 H       
  50 H50           -2.1593     0.2058    -3.7421 H       
  51 H51           -2.9601     2.5538    -2.8198 H       
  52 H52           -3.6089     1.0488    -2.1353 H       
  53 H53           -0.9929     3.5788    -0.1769 H       
  54 H54           -1.1004     3.5052    -1.9533 H       
  55 H55           -4.1005     1.9872    -0.0099 H       
  56 H56           -2.8746     2.9597     0.8384 H       
  57 H57           -3.6226     3.5760    -0.6546 H       
  58 H58            0.2858    -1.9757    -1.4498 H       
  59 H59            3.5039    -4.3515    -2.9353 H       
  60 H60            4.0611    -0.1603    -2.3604 H       
@<TRIPOS>BOND
   1    1    2 1
   2    1    3 2
   3    1   23 1
   4    2   19 1
   5    2    5 1
   6    3    4 1
   7    3    7 1
   8    4    5 2
   9    5    6 1
  10    6   25 ar
  11    6   29 ar
  12    7    8 2
  13    7   10 am
  14    9   10 1
  15    9   11 1
  16    9   15 1
  17    9   32 1
  18   10   33 1
  19   11   12 1
  20   11   13 1
  21   11   14 1
  22   12   34 1
  23   12   35 1
  24   12   36 1
  25   13   37 1
  26   13   38 1
  27   13   39 1
  28   14   40 1
  29   14   41 1
  30   14   42 1
  31   15   16 am
  32   15   17 2
  33   16   18 1
  34   16   43 1
  35   18   44 1
  36   18   45 1
  37   18   46 1
  38   19   20 1
  39   19   47 1
  40   19   48 1
  41   20   21 1
  42   20   49 1
  43   20   50 1
  44   21   22 1
  45   21   51 1
  46   21   52 1
  47   22   23 1
  48   22   24 1
  49   23   53 1
  50   23   54 1
  51   24   55 1
  52   24   56 1
  53   24   57 1
  54   25   26 ar
  55   25   58 1
  56   26   27 ar
  57   26   31 1
  58   27   28 ar
  59   27   59 1
  60   28   29 ar
  61   28   30 1
  62   29   60 1

#	End of record

