#	Name: ASD02560380
#	Creating user name:	WinNT
#	Creation time:	15. 06. 2019 20:25

#	Modifying user name:	WinNT
#	Modification time:	15. 06. 2019 20:25

#	Program:	/corina/corina34_cracker 3.40 0067  02.08.2006

@<TRIPOS>MOLECULE
ASD02560380
  40   43    0    0    0
SMALL
NO_CHARGES


@<TRIPOS>ATOM
   1 C1             1.2307     2.3142    -1.7454 C.2     
   2 C2             1.1871     1.0024    -2.2484 C.2     
   3 C3             1.9498     0.0348    -1.6966 C.2     
   4 N4             2.7750     0.3158    -0.6408 N.pl3   
   5 C5             2.8382     1.5913    -0.1276 C.2     
   6 C6             2.0453     2.6098    -0.6977 C.2     
   7 C7             3.6336    -0.4597     0.0893 C.2     
   8 C8             4.2055     0.3620     1.0372 C.2     
   9 N9             3.6998     1.5991     0.8762 N.2     
  10 C10            5.2019    -0.0455     2.0552 C.ar    
  11 N11            3.8822    -1.8209    -0.0904 N.3     
  12 C12            5.1881    -2.0379    -0.7271 C.3     
  13 C13            7.2731     0.3383     3.2110 C.ar    
  14 C14            6.3488     0.7234     2.2604 C.ar    
  15 C15            4.9952    -1.1952     2.8162 C.ar    
  16 C16            5.9267    -1.5695     3.7634 C.ar    
  17 C17            7.0640    -0.8068     3.9589 C.ar    
  18 C18            5.8606    -3.2899    -0.1372 C.3     
  19 C19            6.0605    -4.2754    -1.3071 C.3     
  20 C20            6.0764    -3.3728    -2.5657 C.3     
  21 C21            5.0029    -2.3063    -2.2349 C.3     
  22 Cl22           6.6125     2.1600     1.3221 Cl      
  23 Cl23           1.8832    -1.5799    -2.3307 Cl      
  24 H24            0.6222     3.0863    -2.1927 H       
  25 H25            0.5398     0.7674    -3.0804 H       
  26 H26            2.0852     3.6152    -0.3053 H       
  27 H27            3.8196    -2.3187     0.7850 H       
  28 H28            5.8255    -1.1664    -0.5778 H       
  29 H29            8.1610     0.9320     3.3710 H       
  30 H30            4.1076    -1.7917     2.6651 H       
  31 H31            5.7671    -2.4598     4.3535 H       
  32 H32            7.7897    -1.1041     4.7014 H       
  33 H33            6.8247    -3.0261     0.2976 H       
  34 H34            5.2180    -3.7365     0.6215 H       
  35 H35            7.0089    -4.8027    -1.2039 H       
  36 H36            5.2328    -4.9830    -1.3555 H       
  37 H37            7.0541    -2.9091    -2.6962 H       
  38 H38            5.7958    -3.9413    -3.4523 H       
  39 H39            4.0043    -2.6959    -2.4332 H       
  40 H40            5.1793    -1.3966    -2.8089 H       
@<TRIPOS>BOND
   1    1    2 1
   2    1    6 2
   3    1   24 1
   4    2    3 2
   5    2   25 1
   6    3    4 1
   7    3   23 1
   8    4    5 1
   9    4    7 1
  10    5    6 1
  11    5    9 2
  12    6   26 1
  13    7    8 2
  14    7   11 1
  15    8    9 1
  16    8   10 1
  17   10   15 ar
  18   10   14 ar
  19   11   12 1
  20   11   27 1
  21   12   18 1
  22   12   21 1
  23   12   28 1
  24   13   14 ar
  25   13   17 ar
  26   13   29 1
  27   14   22 1
  28   15   16 ar
  29   15   30 1
  30   16   17 ar
  31   16   31 1
  32   17   32 1
  33   18   19 1
  34   18   33 1
  35   18   34 1
  36   19   20 1
  37   19   35 1
  38   19   36 1
  39   20   21 1
  40   20   37 1
  41   20   38 1
  42   21   39 1
  43   21   40 1

#	End of record

