#	Name: ASD03730464
#	Creating user name:	WinNT
#	Creation time:	15. 06. 2019 20:44

#	Modifying user name:	WinNT
#	Modification time:	15. 06. 2019 20:44

#	Program:	/corina/corina34_cracker 3.40 0067  02.08.2006

@<TRIPOS>MOLECULE
ASD03730464
  49   54    0    0    0
SMALL
NO_CHARGES


@<TRIPOS>ATOM
   1 C1            -0.0465     1.4850     0.2240 C.2     
   2 C2            -0.0457    -0.0219     0.2060 C.3     
   3 O3             0.9868     2.0897     0.4177 O.2     
   4 N4            -1.1946     2.1607     0.0195 N.am    
   5 O5             5.7359     2.7526     3.4566 O.3     
   6 C6             7.0878     2.6734     3.9456 C.3     
   7 O7             7.1832     1.3371     4.4731 O.3     
   8 C8             6.2767     0.5994     3.7669 C.ar    
   9 C9             5.3864     1.4703     3.1428 C.ar    
  10 C10            6.1375    -0.7670     3.6024 C.ar    
  11 C11            5.1103    -1.2817     2.8172 C.ar    
  12 C12            4.2222    -0.4021     2.2056 C.ar    
  13 C13            4.3620     0.9611     2.3626 C.ar    
  14 O14            4.8095    -2.5772     2.5148 O.3     
  15 C15            3.2244    -1.2484     1.4613 C.3     
  16 C16            3.4510    -2.6513     2.0410 C.3     
  17 N17            1.3139    -0.5124     0.4452 N.am    
  18 C18            1.8136    -0.7781     1.6687 C.2     
  19 C19            3.4410    -1.2144    -0.0225 C.ar    
  20 C20            4.5085    -1.5240    -0.8355 C.ar    
  21 C21            4.3973    -1.3861    -2.2076 C.ar    
  22 C22            3.2121    -0.9361    -2.7604 C.ar    
  23 C23            2.1404    -0.6238    -1.9502 C.ar    
  24 C24            2.2432    -0.7600    -0.5680 C.ar    
  25 O25            1.2366    -0.6606     2.7290 O.2     
  26 C26           -1.2153     3.5552     0.1328 C.ar    
  27 C27           -0.1180     4.3027    -0.2744 C.ar    
  28 C28           -0.1418     5.6799    -0.1611 C.ar    
  29 C29           -1.2578     6.3135     0.3576 C.ar    
  30 C30           -2.3511     5.5712     0.7635 C.ar    
  31 C31           -2.3353     4.1948     0.6473 C.ar    
  32 Cl32           1.2293     6.6158    -0.6691 Cl      
  33 H33           -0.7091    -0.3950     0.9862 H       
  34 H34           -0.3932    -0.3738    -0.7654 H       
  35 H35           -2.0065     1.6803    -0.2063 H       
  36 H36            7.7985     2.8153     3.1314 H       
  37 H37            7.2540     3.4087     4.7328 H       
  38 H38            6.8306    -1.4389     4.0868 H       
  39 H39            3.6706     1.6330     1.8760 H       
  40 H40            3.3522    -3.4111     1.2658 H       
  41 H41            2.7638    -2.8455     2.8646 H       
  42 H42            5.4331    -1.8751    -0.4017 H       
  43 H43            5.2340    -1.6297    -2.8456 H       
  44 H44            3.1254    -0.8284    -3.8315 H       
  45 H45            1.2184    -0.2725    -2.3893 H       
  46 H46            0.7529     3.8084    -0.6788 H       
  47 H47           -1.2744     7.3897     0.4457 H       
  48 H48           -3.2203     6.0683     1.1681 H       
  49 H49           -3.1918     3.6162     0.9605 H       
@<TRIPOS>BOND
   1    1    2 1
   2    1    3 2
   3    1    4 am
   4    2   17 1
   5    2   33 1
   6    2   34 1
   7    4   26 1
   8    4   35 1
   9    5    6 1
  10    5    9 1
  11    6    7 1
  12    6   36 1
  13    6   37 1
  14    7    8 1
  15    8    9 ar
  16    8   10 ar
  17    9   13 ar
  18   10   11 ar
  19   10   38 1
  20   11   12 ar
  21   11   14 1
  22   12   13 ar
  23   12   15 1
  24   13   39 1
  25   14   16 1
  26   15   16 1
  27   15   18 1
  28   15   19 1
  29   16   40 1
  30   16   41 1
  31   17   18 am
  32   17   24 1
  33   18   25 2
  34   19   20 ar
  35   19   24 ar
  36   20   21 ar
  37   20   42 1
  38   21   22 ar
  39   21   43 1
  40   22   23 ar
  41   22   44 1
  42   23   24 ar
  43   23   45 1
  44   26   27 ar
  45   26   31 ar
  46   27   28 ar
  47   27   46 1
  48   28   29 ar
  49   28   32 1
  50   29   30 ar
  51   29   47 1
  52   30   31 ar
  53   30   48 1
  54   31   49 1

#	End of record

