#	Name: ASD03540064
#	Creating user name:	WinNT
#	Creation time:	15. 06. 2019 20:42

#	Modifying user name:	WinNT
#	Modification time:	15. 06. 2019 20:42

#	Program:	/corina/corina34_cracker 3.40 0067  02.08.2006

@<TRIPOS>MOLECULE
ASD03540064
  53   57    0    0    0
SMALL
NO_CHARGES


@<TRIPOS>ATOM
   1 C1            -0.0164     1.3579     0.0095 C.2     
   2 N2             0.0021    -0.0041     0.0020 N.am    
   3 C3             1.2284    -0.6238    -0.0131 C.2     
   4 C4             2.3974     0.1025    -0.0208 C.2     
   5 C5             2.3228     1.5016    -0.0130 C.2     
   6 N6             1.1082     2.0844     0.0027 N.am    
   7 S7             0.9036    -2.3626    -0.0187 S.3     
   8 C8            -1.0724    -0.8452     0.0083 C.2     
   9 C9            -0.8584    -2.1683    -0.0005 C.2     
  10 C10           -1.8701    -3.2326     0.0040 C.2     
  11 O11           -3.0529    -2.9475     0.0165 O.2     
  12 N12           -1.4886    -4.5252    -0.0058 N.am    
  13 C13           -2.4979    -5.5869    -0.0013 C.3     
  14 C14           -1.8144    -6.9299    -0.0142 C.ar    
  15 C15           -1.4898    -7.5512     1.1774 C.ar    
  16 C16           -0.8633    -8.7829     1.1668 C.ar    
  17 C17           -0.5608    -9.3949    -0.0378 C.ar    
  18 C18           -0.8864    -8.7717    -1.2306 C.ar    
  19 C19           -1.5176    -7.5423    -1.2175 C.ar    
  20 F20            0.0520   -10.5988    -0.0493 F       
  21 C21            1.0159     3.5465     0.0110 C.3     
  22 C22           -0.1724     5.5518     6.0050 C.2     
  23 C23           -1.4212     5.2635     5.4130 C.2     
  24 C24           -1.4736     4.8160     4.1329 C.2     
  25 C25           -0.2113     4.6470     3.4064 C.ar    
  26 C26            0.9964     4.9533     4.0580 C.ar    
  27 O27            0.9789     5.3951     5.3336 O.3     
  28 C28            2.1963     4.7959     3.3767 C.ar    
  29 C29            2.1910     4.3422     2.0739 C.ar    
  30 C30            0.9975     4.0406     1.4345 C.ar    
  31 C31           -0.1951     4.1886     2.0859 C.ar    
  32 O32           -0.1394     5.9575     7.1527 O.2     
  33 O33            3.3377     2.1787    -0.0193 O.2     
  34 O34           -1.0879     1.9319     0.0177 O.2     
  35 C35            3.7334    -0.5944    -0.0369 C.3     
  36 H36           -2.0780    -0.4515     0.0204 H       
  37 H37           -0.5456    -4.7524    -0.0158 H       
  38 H38           -3.1122    -5.5005     0.8949 H       
  39 H39           -3.1291    -5.4920    -0.8850 H       
  40 H40           -1.7255    -7.0735     2.1169 H       
  41 H41           -0.6095    -9.2679     2.0978 H       
  42 H42           -0.6509    -9.2481    -2.1708 H       
  43 H43           -1.7753    -7.0580    -2.1478 H       
  44 H44            1.8764     3.9678    -0.5088 H       
  45 H45            0.1000     3.8556    -0.4928 H       
  46 H46           -2.3321     5.3986     5.9772 H       
  47 H47           -2.4191     4.5897     3.6625 H       
  48 H48            3.1310     5.0279     3.8655 H       
  49 H49            3.1255     4.2210     1.5463 H       
  50 H50           -1.1209     3.9521     1.5826 H       
  51 H51            4.0458    -0.7575    -1.0683 H       
  52 H52            4.4721     0.0243     0.4729 H       
  53 H53            3.6489    -1.5539     0.4733 H       
@<TRIPOS>BOND
   1    1    2 am
   2    1    6 am
   3    1   34 2
   4    2    3 1
   5    2    8 1
   6    3    4 2
   7    3    7 1
   8    4    5 1
   9    4   35 1
  10    5    6 am
  11    5   33 2
  12    6   21 1
  13    7    9 1
  14    8    9 2
  15    8   36 1
  16    9   10 1
  17   10   11 2
  18   10   12 am
  19   12   13 1
  20   12   37 1
  21   13   14 1
  22   13   38 1
  23   13   39 1
  24   14   15 ar
  25   14   19 ar
  26   15   16 ar
  27   15   40 1
  28   16   17 ar
  29   16   41 1
  30   17   18 ar
  31   17   20 1
  32   18   19 ar
  33   18   42 1
  34   19   43 1
  35   21   30 1
  36   21   44 1
  37   21   45 1
  38   22   23 1
  39   22   27 1
  40   22   32 2
  41   23   24 2
  42   23   46 1
  43   24   25 1
  44   24   47 1
  45   25   26 ar
  46   25   31 ar
  47   26   27 1
  48   26   28 ar
  49   28   29 ar
  50   28   48 1
  51   29   30 ar
  52   29   49 1
  53   30   31 ar
  54   31   50 1
  55   35   51 1
  56   35   52 1
  57   35   53 1

#	End of record

