#	Name: ASD01903300
#	Creating user name:	WinNT
#	Creation time:	15. 06. 2019 19:54

#	Modifying user name:	WinNT
#	Modification time:	15. 06. 2019 19:54

#	Program:	/corina/corina34_cracker 3.40 0067  02.08.2006

@<TRIPOS>MOLECULE
ASD01903300
  54   58    0    0    0
SMALL
NO_CHARGES


@<TRIPOS>ATOM
   1 C1             0.1192     1.1154    -1.1554 C.ar    
   2 C2             0.0573    -0.1122    -0.5152 C.ar    
   3 C3             1.2027    -0.6346     0.0646 C.ar    
   4 N4             2.3429     0.0186     0.0151 N.ar    
   5 C5             2.4449     1.1968    -0.5881 C.ar    
   6 C6             1.3344     1.7813    -1.1925 C.ar    
   7 C7             3.7505     1.8957    -0.6186 C.2     
   8 O8             3.8496     2.9746    -1.1693 O.2     
   9 N9             4.8287     1.3353    -0.0355 N.am    
  10 C10            6.0793     1.9558    -0.1340 C.ar    
  11 C11            6.1558     3.3267    -0.3301 C.ar    
  12 C12            7.3897     3.9387    -0.4264 C.ar    
  13 C13            8.5460     3.1804    -0.3290 C.ar    
  14 C14            8.4713     1.8026    -0.1344 C.ar    
  15 C15            7.2413     1.1940    -0.0287 C.ar    
  16 N16            9.7989     3.8031    -0.4323 N.am    
  17 C17           10.4925     4.2952     0.6100 C.2     
  18 C18           11.7571     4.8700     0.1050 C.ar    
  19 C19           11.7395     4.6738    -1.2909 C.ar    
  20 C20           10.4674     3.9814    -1.5859 C.2     
  21 O21           10.1387     4.2713     1.7716 O.2     
  22 O22           10.0859     3.6380    -2.6866 O.2     
  23 C23            9.7556     1.0206    -0.0462 C.3     
  24 N24            9.5165    -0.2934     0.5589 N.3     
  25 C25            8.4280    -0.9888    -0.1462 C.3     
  26 C26            7.1094    -0.2907     0.1945 C.3     
  27 C27           12.8395     5.4991     0.6988 C.ar    
  28 C28           13.8980     5.9313    -0.0850 C.ar    
  29 C29           13.8807     5.7389    -1.4537 C.ar    
  30 C30           12.8045     5.1115    -2.0617 C.ar    
  31 C31           12.8656     5.7130     2.1903 C.3     
  32 C32           10.7427    -1.1023     0.5624 C.3     
  33 H33           -0.7585     1.5415    -1.6186 H       
  34 H34           -0.8744    -0.6564    -0.4683 H       
  35 H35            1.1580    -1.5910     0.5643 H       
  36 H36            1.4188     2.7399    -1.6828 H       
  37 H37            4.7379     0.5018     0.4524 H       
  38 H38            5.2527     3.9138    -0.4076 H       
  39 H39            7.4538     5.0061    -0.5777 H       
  40 H40           10.1645     0.8865    -1.0476 H       
  41 H41           10.4715     1.5723     0.5631 H       
  42 H42            8.6020    -0.9460    -1.2214 H       
  43 H43            8.3858    -2.0281     0.1797 H       
  44 H44            6.8582    -0.4810     1.2379 H       
  45 H45            6.3173    -0.6818    -0.4440 H       
  46 H46           14.7419     6.4221     0.3769 H       
  47 H47           14.7114     6.0801    -2.0537 H       
  48 H48           12.7966     4.9636    -3.1315 H       
  49 H49           13.3336     4.8547     2.6723 H       
  50 H50           13.4360     6.6134     2.4183 H       
  51 H51           11.8461     5.8256     2.5591 H       
  52 H52           11.5149    -0.5890     1.1354 H       
  53 H53           10.5372    -2.0717     1.0166 H       
  54 H54           11.0858    -1.2465    -0.4621 H       
@<TRIPOS>BOND
   1    1    2 ar
   2    1    6 ar
   3    1   33 1
   4    2    3 ar
   5    2   34 1
   6    3    4 ar
   7    3   35 1
   8    4    5 ar
   9    5    6 ar
  10    5    7 1
  11    6   36 1
  12    7    8 2
  13    7    9 am
  14    9   10 1
  15    9   37 1
  16   10   11 ar
  17   10   15 ar
  18   11   12 ar
  19   11   38 1
  20   12   13 ar
  21   12   39 1
  22   13   14 ar
  23   13   16 1
  24   14   15 ar
  25   14   23 1
  26   15   26 1
  27   16   17 am
  28   16   20 am
  29   17   18 1
  30   17   21 2
  31   18   19 ar
  32   18   27 ar
  33   19   20 1
  34   19   30 ar
  35   20   22 2
  36   23   24 1
  37   23   40 1
  38   23   41 1
  39   24   25 1
  40   24   32 1
  41   25   26 1
  42   25   42 1
  43   25   43 1
  44   26   44 1
  45   26   45 1
  46   27   28 ar
  47   27   31 1
  48   28   29 ar
  49   28   46 1
  50   29   30 ar
  51   29   47 1
  52   30   48 1
  53   31   49 1
  54   31   50 1
  55   31   51 1
  56   32   52 1
  57   32   53 1
  58   32   54 1

#	End of record

