#	Name: ASD04880146
#	Creating user name:	WinNT
#	Creation time:	15. 06. 2019 20:52

#	Modifying user name:	WinNT
#	Modification time:	15. 06. 2019 20:52

#	Program:	/corina/corina34_cracker 3.40 0067  02.08.2006

@<TRIPOS>MOLECULE
ASD04880146
  36   38    0    0    0
SMALL
NO_CHARGES


@<TRIPOS>ATOM
   1 C1            -0.0144     1.2117     0.0087 C.2     
   2 O2             0.0478    -0.0024     0.0311 O.2     
   3 N3             1.1160     1.9435    -0.0478 N.am    
   4 N4             1.1788     3.3281    -0.1900 N.2     
   5 C5             2.3770     3.8005    -0.2185 C.2     
   6 C6             3.3698     2.6680    -0.0844 C.3     
   7 C7             2.4853     1.4113     0.0370 C.3     
   8 C8             4.0636     5.6310    -0.3805 C.ar    
   9 C9             2.7265     5.2263    -0.3609 C.ar    
  10 C10            1.7240     6.1962    -0.4791 C.ar    
  11 C11            2.1071     7.5242    -0.6112 C.ar    
  12 C12            3.4586     7.8416    -0.6214 C.ar    
  13 N13            4.3784     6.9030    -0.5079 N.ar    
  14 O14            1.1703     8.5018    -0.7295 O.3     
  15 C15            1.6453     9.8430    -0.8614 C.3     
  16 C16           -1.3298     1.8849     0.0373 C.ar    
  17 C17           -1.4039     3.2738     0.1560 C.ar    
  18 C18           -2.6370     3.8965     0.1816 C.ar    
  19 C19           -3.7974     3.1442     0.0901 C.ar    
  20 C20           -3.7287     1.7678    -0.0273 C.ar    
  21 C21           -2.5031     1.1349    -0.0602 C.ar    
  22 F22           -2.7117     5.2405     0.2965 F       
  23 H23            4.0046     2.6093    -0.9685 H       
  24 H24            3.9743     2.7938     0.8138 H       
  25 H25            2.6463     0.9177     0.9954 H       
  26 H26            2.6819     0.7251    -0.7868 H       
  27 H27            4.8468     4.8934    -0.2857 H       
  28 H28            0.6802     5.9188    -0.4682 H       
  29 H29            3.7617     8.8731    -0.7243 H       
  30 H30            0.7970    10.5221    -0.9471 H       
  31 H31            2.2352    10.1075     0.0161 H       
  32 H32            2.2659     9.9226    -1.7540 H       
  33 H33           -0.4997     3.8600     0.2281 H       
  34 H34           -4.7594     3.6348     0.1108 H       
  35 H35           -4.6367     1.1873    -0.0978 H       
  36 H36           -2.4517     0.0605    -0.1567 H       
@<TRIPOS>BOND
   1    1    2 2
   2    1    3 am
   3    1   16 1
   4    3    4 1
   5    3    7 1
   6    4    5 2
   7    5    6 1
   8    5    9 1
   9    6    7 1
  10    6   23 1
  11    6   24 1
  12    7   25 1
  13    7   26 1
  14    8    9 ar
  15    8   13 ar
  16    8   27 1
  17    9   10 ar
  18   10   11 ar
  19   10   28 1
  20   11   12 ar
  21   11   14 1
  22   12   13 ar
  23   12   29 1
  24   14   15 1
  25   15   30 1
  26   15   31 1
  27   15   32 1
  28   16   17 ar
  29   16   21 ar
  30   17   18 ar
  31   17   33 1
  32   18   19 ar
  33   18   22 1
  34   19   20 ar
  35   19   34 1
  36   20   21 ar
  37   20   35 1
  38   21   36 1

#	End of record

