#	Name: ASD00311026
#	Creating user name:	WinNT
#	Creation time:	15. 06. 2019 18:34

#	Modifying user name:	WinNT
#	Modification time:	15. 06. 2019 18:34

#	Program:	/corina/corina34_cracker 3.40 0067  02.08.2006

@<TRIPOS>MOLECULE
ASD00311026
  34   36    0    0    0
SMALL
NO_CHARGES


@<TRIPOS>ATOM
   1 C1            -0.0167     1.3817     0.0096 C.ar    
   2 C2             0.0021    -0.0041     0.0020 C.ar    
   3 C3             1.2023    -0.6865    -0.0131 C.ar    
   4 C4             2.3998     0.0129    -0.0207 C.ar    
   5 C5             2.3852     1.4152    -0.0131 C.ar    
   6 C6             1.1630     2.0930     0.0022 C.ar    
   7 C7             3.6325     3.6368    -0.0130 C.2     
   8 C8             3.6528     2.1706    -0.0211 C.2     
   9 C9             5.9875     6.5051    -0.0201 C.ar    
  10 C10            4.7702     5.8001    -0.0123 C.ar    
  11 C11            4.7905     4.3270    -0.0204 C.2     
  12 C12            5.9811     7.8681    -0.0127 C.ar    
  13 C13            4.7375     8.5304     0.0027 C.ar    
  14 C14            3.5441     7.7622     0.0104 C.ar    
  15 N15            3.6085     6.4305     0.0026 N.ar    
  16 O16            4.7151     1.5767    -0.0344 O.2     
  17 C17            2.3033     8.4268     0.0259 C.ar    
  18 C18            2.2662     9.7869     0.0331 C.ar    
  19 C19            3.4399    10.5383     0.0254 C.ar    
  20 C20            4.6592     9.9313     0.0114 C.ar    
  21 O21            3.5797    -0.6562    -0.0351 O.3     
  22 H22           -0.9607     1.9063     0.0169 H       
  23 H23           -0.9277    -0.5535     0.0083 H       
  24 H24            1.2085    -1.7665    -0.0186 H       
  25 H25            1.1434     3.1728     0.0078 H       
  26 H26            2.6899     4.1638    -0.0012 H       
  27 H27            6.9244     5.9679    -0.0274 H       
  28 H28            5.7332     3.8000    -0.0322 H       
  29 H29            6.9057     8.4263    -0.0182 H       
  30 H30            1.3844     7.8594     0.0316 H       
  31 H31            1.3119    10.2923     0.0446 H       
  32 H32            3.3819    11.6167     0.0314 H       
  33 H33            5.5612    10.5253     0.0059 H       
  34 H34            3.9136    -0.8458    -0.9227 H       
@<TRIPOS>BOND
   1    1    2 ar
   2    1    6 ar
   3    1   22 1
   4    2    3 ar
   5    2   23 1
   6    3    4 ar
   7    3   24 1
   8    4    5 ar
   9    4   21 1
  10    5    6 ar
  11    5    8 1
  12    6   25 1
  13    7    8 1
  14    7   11 2
  15    7   26 1
  16    8   16 2
  17    9   10 ar
  18    9   12 ar
  19    9   27 1
  20   10   11 1
  21   10   15 ar
  22   11   28 1
  23   12   13 ar
  24   12   29 1
  25   13   14 ar
  26   13   20 ar
  27   14   15 ar
  28   14   17 ar
  29   17   18 ar
  30   17   30 1
  31   18   19 ar
  32   18   31 1
  33   19   20 ar
  34   19   32 1
  35   20   33 1
  36   21   34 1

#	End of record

