#	Name: ASD01208711
#	Creating user name:	WinNT
#	Creation time:	15. 06. 2019 19:10

#	Modifying user name:	WinNT
#	Modification time:	15. 06. 2019 19:10

#	Program:	/corina/corina34_cracker 3.40 0067  02.08.2006

@<TRIPOS>MOLECULE
ASD01208711
  55   58    0    0    0
SMALL
NO_CHARGES


@<TRIPOS>ATOM
   1 C1             0.4566     0.5755    -1.2720 C.2     
   2 C2             0.1980    -0.7231    -0.6222 C.ar    
   3 C3             1.2302    -1.6622    -0.4889 C.ar    
   4 C4             0.9786    -2.8806     0.1232 C.ar    
   5 C5            -0.2844    -3.1692     0.6004 C.ar    
   6 C6            -1.3119    -2.2430     0.4716 C.ar    
   7 C7            -1.0753    -1.0212    -0.1313 C.ar    
   8 O8             1.5675     0.8337    -1.6937 O.2     
   9 N9            -0.5397     1.4736    -1.4033 N.am    
  10 S10           -1.4625     3.9246    -2.2478 S.3     
  11 C11           -0.2961     2.6965    -2.0152 C.2     
  12 N12            0.8489     3.0730    -2.4925 N.2     
  13 C13            0.9021     4.2722    -3.0416 C.2     
  14 C14           -0.2528     4.9405    -3.0277 C.2     
  15 O15            2.4719    -1.3797    -0.9580 O.3     
  16 C16            3.4311    -2.3337    -0.8381 C.ar    
  17 C17            3.4520    -3.4094    -1.7169 C.ar    
  18 C18            4.4237    -4.3795    -1.5984 C.ar    
  19 C19            5.3879    -4.2801    -0.5934 C.ar    
  20 C20            5.3636    -3.1974     0.2880 C.ar    
  21 C21            4.3921    -2.2284     0.1595 C.ar    
  22 O22            7.4181    -5.3493     0.4552 O.3     
  23 C23            6.4312    -5.3184    -0.4627 C.2     
  24 N24            6.5694    -6.3830    -1.2182 N.2     
  25 N25            7.5847    -7.0617    -0.8132 N.2     
  26 C26            8.1303    -6.4626     0.2079 C.2     
  27 C27            9.3409    -6.9326     0.9725 C.3     
  28 O28           -2.5525    -2.5366     0.9448 O.3     
  29 C29           -4.6190    -1.7465     1.9174 C.3     
  30 C30           -3.5398    -1.5070     0.8596 C.3     
  31 C31           -4.1763    -1.5246    -0.5315 C.3     
  32 O32           -5.3128    -2.9607     1.6236 O.3     
  33 C33           -6.3475    -3.2791     2.5563 C.3     
  34 H34            1.7724    -3.6056     0.2266 H       
  35 H35           -0.4747    -4.1200     1.0760 H       
  36 H36           -1.8743    -0.3008    -0.2262 H       
  37 H37           -1.4268     1.2659    -1.0704 H       
  38 H38            1.8071     4.6794    -3.4677 H       
  39 H39           -0.4172     5.9311    -3.4253 H       
  40 H40            2.7057    -3.4857    -2.4938 H       
  41 H41            4.4391    -5.2156    -2.2818 H       
  42 H42            6.1075    -3.1174     1.0667 H       
  43 H43            4.3752    -1.3884     0.8381 H       
  44 H44            9.0248    -7.5761     1.7935 H       
  45 H45            9.9978    -7.4908     0.3054 H       
  46 H46            9.8757    -6.0707     1.3716 H       
  47 H47           -4.1539    -1.8224     2.9003 H       
  48 H48           -5.3237    -0.9149     1.9122 H       
  49 H49           -3.0704    -0.5384     1.0322 H       
  50 H50           -3.4075    -1.3540    -1.2851 H       
  51 H51           -4.6457    -2.4932    -0.7041 H       
  52 H52           -4.9294    -0.7393    -0.5965 H       
  53 H53           -5.9183    -3.3869     3.5524 H       
  54 H54           -7.0881    -2.4794     2.5644 H       
  55 H55           -6.8255    -4.2140     2.2636 H       
@<TRIPOS>BOND
   1    1    2 1
   2    1    8 2
   3    1    9 am
   4    2    3 ar
   5    2    7 ar
   6    3    4 ar
   7    3   15 1
   8    4    5 ar
   9    4   34 1
  10    5    6 ar
  11    5   35 1
  12    6    7 ar
  13    6   28 1
  14    7   36 1
  15    9   11 1
  16    9   37 1
  17   10   11 1
  18   10   14 1
  19   11   12 2
  20   12   13 1
  21   13   14 2
  22   13   38 1
  23   14   39 1
  24   15   16 1
  25   16   17 ar
  26   16   21 ar
  27   17   18 ar
  28   17   40 1
  29   18   19 ar
  30   18   41 1
  31   19   20 ar
  32   19   23 1
  33   20   21 ar
  34   20   42 1
  35   21   43 1
  36   22   23 1
  37   22   26 1
  38   23   24 2
  39   24   25 1
  40   25   26 2
  41   26   27 1
  42   27   44 1
  43   27   45 1
  44   27   46 1
  45   28   30 1
  46   29   30 1
  47   29   32 1
  48   29   47 1
  49   29   48 1
  50   30   31 1
  51   30   49 1
  52   31   50 1
  53   31   51 1
  54   31   52 1
  55   32   33 1
  56   33   53 1
  57   33   54 1
  58   33   55 1

#	End of record

