#	Name: ASD01940168
#	Creating user name:	WinNT
#	Creation time:	15. 06. 2019 20:11

#	Modifying user name:	WinNT
#	Modification time:	15. 06. 2019 20:11

#	Program:	/corina/corina34_cracker 3.40 0067  02.08.2006

@<TRIPOS>MOLECULE
ASD01940168
  42   43    0    0    0
SMALL
NO_CHARGES


@<TRIPOS>ATOM
   1 Br1            2.0335    -4.0544    -1.9493 Br      
   2 F2             2.0305     2.2240     1.9686 F       
   3 C3             1.1320     2.7324     1.0971 C.ar    
   4 C4             1.3174     2.5650    -0.2689 C.ar    
   5 C5             0.3874     3.0909    -1.1641 C.ar    
   6 C6            -0.7184     3.7787    -0.6870 C.ar    
   7 C7            -0.8975     3.9427     0.6743 C.ar    
   8 C8             0.0217     3.4164     1.5657 C.ar    
   9 N9             2.4368     1.8695    -0.7461 N.pl3   
  10 N10            0.5696     2.9254    -2.5436 N.am    
  11 C11            2.3443     0.5020    -1.0241 C.ar    
  12 C12            1.1852    -0.1947    -0.7107 C.ar    
  13 C13            1.0963    -1.5458    -0.9864 C.ar    
  14 C14            2.1606    -2.2054    -1.5742 C.ar    
  15 C15            3.3185    -1.5151    -1.8881 C.ar    
  16 C16            3.4116    -0.1621    -1.6207 C.ar    
  17 F17            4.5416     0.5120    -1.9274 F       
  18 F18           -0.1614     3.5743     2.8949 F       
  19 S19            0.1611     4.1464    -3.5851 S.o2    
  20 O20            0.5823     3.6766    -4.8584 O.2     
  21 O21           -1.2114     4.3946    -3.3131 O.2     
  22 C22            1.3946     6.7736    -5.1074 C.3     
  23 C23            0.4214     7.4578    -6.0696 C.3     
  24 C24            2.6983     7.5721    -5.0472 C.3     
  25 C25            1.1790     5.5518    -3.0566 C.3     
  26 O26            0.8123     6.7133    -3.8038 O.3     
  27 H27           -1.4399     4.1868    -1.3792 H       
  28 H28           -1.7591     4.4793     1.0433 H       
  29 H29            3.2757     2.3367    -0.8836 H       
  30 H30            0.9350     2.0957    -2.8885 H       
  31 H31            0.3535     0.3189    -0.2514 H       
  32 H32            0.1946    -2.0877    -0.7422 H       
  33 H33            4.1479    -2.0329    -2.3467 H       
  34 H34            1.6033     5.7632    -5.4592 H       
  35 H35            0.2127     8.4681    -5.7178 H       
  36 H36            0.8656     7.5038    -7.0639 H       
  37 H37           -0.5073     6.8889    -6.1125 H       
  38 H38            3.4222     7.0399    -4.4300 H       
  39 H39            3.0978     7.6919    -6.0542 H       
  40 H40            2.5037     8.5534    -4.6144 H       
  41 H41            1.0187     5.7374    -1.9945 H       
  42 H42            2.2307     5.3246    -3.2310 H       
@<TRIPOS>BOND
   1    1   14 1
   2    2    3 1
   3    3    4 ar
   4    3    8 ar
   5    4    5 ar
   6    4    9 1
   7    5    6 ar
   8    5   10 1
   9    6    7 ar
  10    6   27 1
  11    7    8 ar
  12    7   28 1
  13    8   18 1
  14    9   11 1
  15    9   29 1
  16   10   19 am
  17   10   30 1
  18   11   12 ar
  19   11   16 ar
  20   12   13 ar
  21   12   31 1
  22   13   14 ar
  23   13   32 1
  24   14   15 ar
  25   15   16 ar
  26   15   33 1
  27   16   17 1
  28   19   20 2
  29   19   21 2
  30   19   25 1
  31   22   23 1
  32   22   26 1
  33   22   24 1
  34   22   34 1
  35   23   35 1
  36   23   36 1
  37   23   37 1
  38   24   38 1
  39   24   39 1
  40   24   40 1
  41   25   26 1
  42   25   41 1
  43   25   42 1

#	End of record

