#	Name: ASD00960055
#	Creating user name:	WinNT
#	Creation time:	15. 06. 2019 18:53

#	Modifying user name:	WinNT
#	Modification time:	15. 06. 2019 18:53

#	Program:	/corina/corina34_cracker 3.40 0067  02.08.2006

@<TRIPOS>MOLECULE
ASD00960055
  36   38    0    0    0
SMALL
NO_CHARGES


@<TRIPOS>ATOM
   1 F1             1.3189    -0.4764    -0.0131 F       
   2 C2            -0.0189     1.5409     0.0105 C.3     
   3 C3             0.0021    -0.0041     0.0020 C.3     
   4 C4            -0.6985    -0.3962     1.3218 C.3     
   5 O5            -1.5292     0.7387     1.6500 O.3     
   6 C6            -0.7297     1.8993     1.3344 C.3     
   7 C7            -1.6237     3.1262     1.1437 C.3     
   8 C8            -1.5461    -1.6259     1.1205 C.2     
   9 C9            -1.1006    -2.9004     1.1910 C.2     
  10 N10           -2.8743    -1.6244     0.8465 N.pl3   
  11 C11           -3.3049    -2.9233     0.7303 C.2     
  12 C12           -2.1989    -3.7544     0.9443 C.2     
  13 N13           -3.8121    -0.5955     0.6748 N.2     
  14 C14           -5.0587    -0.8838     0.4116 C.2     
  15 N15           -5.4868    -2.1376     0.2972 N.2     
  16 C16           -4.6652    -3.1643     0.4446 C.2     
  17 O17           -2.2379     3.4662     2.3884 O.3     
  18 N18           -5.1344    -4.4576     0.3206 N.pl3   
  19 C19           -0.7736    -0.5441    -1.2011 C.3     
  20 O20            1.3126     2.0597     0.0006 O.3     
  21 *21            1.4358     3.3108    -0.6380 Du      
  22 C22           -2.1838    -5.1861     0.9188 C.1     
  23 N23           -2.1718    -6.3219     0.8985 N.1     
  24 H24           -0.5818     1.9199    -0.8424 H       
  25 H25            0.0385    -0.5666     2.1065 H       
  26 H26            0.0026     2.0810     2.1211 H       
  27 H27           -1.0207     3.9646     0.7951 H       
  28 H28           -2.3953     2.9025     0.4070 H       
  29 H29           -0.0870    -3.2102     1.3987 H       
  30 H30           -5.7652    -0.0772     0.2828 H       
  31 H31           -2.8202     4.2368     2.3421 H       
  32 H32           -6.0708    -4.6171     0.1243 H       
  33 H33           -4.5274    -5.2063     0.4297 H       
  34 H34           -0.3020    -0.2000    -2.1216 H       
  35 H35           -0.7699    -1.6338    -1.1764 H       
  36 H36           -1.8014    -0.1833    -1.1625 H       
@<TRIPOS>BOND
   1    1    3 1
   2    2    3 1
   3    2   20 1
   4    2    6 1
   5    2   24 1
   6    3   19 1
   7    3    4 1
   8    4    5 1
   9    4    8 1
  10    4   25 1
  11    5    6 1
  12    6    7 1
  13    6   26 1
  14    7   17 1
  15    7   27 1
  16    7   28 1
  17    8    9 2
  18    8   10 1
  19    9   12 1
  20    9   29 1
  21   10   11 1
  22   10   13 1
  23   11   12 2
  24   11   16 1
  25   12   22 1
  26   13   14 2
  27   14   15 1
  28   14   30 1
  29   15   16 2
  30   16   18 1
  31   17   31 1
  32   18   32 1
  33   18   33 1
  34   19   34 1
  35   19   35 1
  36   19   36 1
  37   20   21 1
  38   22   23 3

#	End of record

