#	Name: ASD00241009
#	Creating user name:	WinNT
#	Creation time:	15. 06. 2019 18:33

#	Modifying user name:	WinNT
#	Modification time:	15. 06. 2019 18:33

#	Program:	/corina/corina34_cracker 3.40 0067  02.08.2006

@<TRIPOS>MOLECULE
ASD00241009
  51   53    0    0    0
SMALL
NO_CHARGES


@<TRIPOS>ATOM
   1 C1            -0.6737     0.5587     0.2148 C.3     
   2 C2            -0.8864    -0.9672     0.3320 C.3     
   3 C3            -1.5777    -1.1456     1.7019 C.3     
   4 O4            -2.2120     0.1252     1.9635 O.3     
   5 C5            -1.2617     1.1216     1.5277 C.3     
   6 C6            -2.3514    -3.5538     1.7982 C.ar    
   7 C7            -3.5992    -4.1814     1.6465 C.ar    
   8 N8            -1.2791    -4.2994     2.0455 N.ar    
   9 C9            -1.3807    -5.6076     2.1475 C.ar    
  10 N10           -2.5312    -6.2421     2.0123 N.ar    
  11 C11           -3.6568    -5.5807     1.7645 C.ar    
  12 N12           -4.5092    -3.2074     1.4048 N.2     
  13 C13           -3.9138    -2.0502     1.3987 C.2     
  14 N14           -2.5806    -2.2113     1.6321 N.pl3   
  15 C15           -1.9682     2.4535     1.2669 C.3     
  16 N16           -2.5896     2.9297     2.5099 N.3     
  17 C17           -1.5818     3.4848     3.4232 C.3     
  18 C18           -2.2085     3.7346     4.7708 C.2     
  19 C19           -1.6554     3.2428     5.8517 C.2     
  20 O20            0.7189     0.8641     0.1183 O.3     
  21 O21            0.3683    -1.6507     0.3116 O.3     
  22 N22           -4.8576    -6.2542     1.6247 N.pl3   
  23 C23           -0.3049     2.5789     5.7717 C.3     
  24 N24            0.5981     3.1853     6.7591 N.3     
  25 C25           -0.1377    -6.4119     2.4288 C.3     
  26 C26           -3.6435     3.9135     2.2282 C.3     
  27 H27           -1.2110     0.9541    -0.6472 H       
  28 H28           -1.5309    -1.3258    -0.4706 H       
  29 H29           -0.8401    -1.3675     2.4732 H       
  30 H30           -0.4756     1.2475     2.2722 H       
  31 H31           -4.4033    -1.1024     1.2299 H       
  32 H32           -1.2419     3.1881     0.9192 H       
  33 H33           -2.7367     2.3143     0.5066 H       
  34 H34           -0.7596     2.7772     3.5304 H       
  35 H35           -1.2029     4.4235     3.0190 H       
  36 H36           -3.1135     4.3192     4.8454 H       
  37 H37           -2.1673     3.3130     6.8000 H       
  38 H38            1.1523     0.4833    -0.6577 H       
  39 H39            0.8726    -1.5228    -0.5036 H       
  40 H40           -4.8843    -7.2203     1.7075 H       
  41 H41           -5.6725    -5.7602     1.4439 H       
  42 H42           -0.4103     1.5144     5.9813 H       
  43 H43            0.1074     2.7132     4.7717 H       
  44 H44            0.2073     3.1310     7.6878 H       
  45 H45            1.5110     2.7570     6.7253 H       
  46 H46           -0.0069    -6.5139     3.5061 H       
  47 H47           -0.2349    -7.4001     1.9793 H       
  48 H48            0.7279    -5.9033     2.0043 H       
  49 H49           -4.3594     3.4878     1.5250 H       
  50 H50           -4.1552     4.1732     3.1550 H       
  51 H51           -3.1981     4.8093     1.7957 H       
@<TRIPOS>BOND
   1    1    2 1
   2    1   20 1
   3    1    5 1
   4    1   27 1
   5    2    3 1
   6    2   21 1
   7    2   28 1
   8    3    4 1
   9    3   14 1
  10    3   29 1
  11    4    5 1
  12    5   15 1
  13    5   30 1
  14    6    7 ar
  15    6    8 ar
  16    6   14 1
  17    7   12 1
  18    7   11 ar
  19    8    9 ar
  20    9   10 ar
  21    9   25 1
  22   10   11 ar
  23   11   22 1
  24   12   13 2
  25   13   14 1
  26   13   31 1
  27   15   16 1
  28   15   32 1
  29   15   33 1
  30   16   17 1
  31   16   26 1
  32   17   18 1
  33   17   34 1
  34   17   35 1
  35   18   19 2
  36   18   36 1
  37   19   23 1
  38   19   37 1
  39   20   38 1
  40   21   39 1
  41   22   40 1
  42   22   41 1
  43   23   24 1
  44   23   42 1
  45   23   43 1
  46   24   44 1
  47   24   45 1
  48   25   46 1
  49   25   47 1
  50   25   48 1
  51   26   49 1
  52   26   50 1
  53   26   51 1

#	End of record

