#	Name: ASD01940225
#	Creating user name:	WinNT
#	Creation time:	15. 06. 2019 20:12

#	Modifying user name:	WinNT
#	Modification time:	15. 06. 2019 20:12

#	Program:	/corina/corina34_cracker 3.40 0067  02.08.2006

@<TRIPOS>MOLECULE
ASD01940225
  39   41    0    0    0
SMALL
NO_CHARGES


@<TRIPOS>ATOM
   1 C1            -0.5510    -3.0314     1.7531 C.3     
   2 C2             6.0868     0.2372     7.7877 C.2     
   3 F3             1.7765     2.4920     3.0057 F       
   4 C4             0.8548     1.5551     3.3187 C.ar    
   5 C5             1.2413     0.2341     3.5025 C.ar    
   6 C6             0.2867    -0.7288     3.8258 C.ar    
   7 C7            -1.0442    -0.3635     3.9625 C.ar    
   8 C8            -1.4233     0.9534     3.7779 C.ar    
   9 C9            -0.4764     1.9126     3.4619 C.ar    
  10 N10            2.5875    -0.1300     3.3629 N.pl3   
  11 N11            0.6709    -2.0635     4.0119 N.am    
  12 C12            3.4528    -0.0392     4.4562 C.ar    
  13 C13            2.9642     0.3485     5.6975 C.ar    
  14 C14            3.8165     0.4384     6.7784 C.ar    
  15 C15            5.1690     0.1402     6.6257 C.ar    
  16 C16            5.6593    -0.2489     5.3797 C.ar    
  17 C17            4.8030    -0.3430     4.3016 C.ar    
  18 F18            5.2764    -0.7203     3.0939 F       
  19 F19           -0.8515     3.1988     3.2881 F       
  20 S20           -0.3358    -3.2890     3.5357 S.o2    
  21 O21           -1.5508    -3.0330     4.2268 O.2     
  22 O22            0.4116    -4.4722     3.7819 O.2     
  23 N23            5.7529     0.5906     9.0109 N.2     
  24 N24            6.9064     0.5550     9.8046 N.pl3   
  25 C25            7.9408     0.1710     9.0261 C.2     
  26 C26            7.4681    -0.0387     7.7781 C.2     
  27 H27            0.4188    -3.0860     1.2584 H       
  28 H28           -1.2078    -3.8028     1.3511 H       
  29 H29           -0.9931    -2.0505     1.5785 H       
  30 H30           -1.7852    -1.1082     4.2129 H       
  31 H31           -2.4605     1.2351     3.8842 H       
  32 H32            2.9184    -0.4452     2.5072 H       
  33 H33            1.5266    -2.2695     4.4196 H       
  34 H34            1.9160     0.5801     5.8163 H       
  35 H35            3.4356     0.7403     7.7428 H       
  36 H36            6.7073    -0.4801     5.2594 H       
  37 H37            6.9541     0.7692    10.7495 H       
  38 H38            8.9650     0.0485     9.3460 H       
  39 H39            8.0476    -0.3543     6.9232 H       
@<TRIPOS>BOND
   1    1   20 1
   2    1   27 1
   3    1   28 1
   4    1   29 1
   5    2   23 2
   6    2   15 1
   7    2   26 1
   8    3    4 1
   9    4    5 ar
  10    4    9 ar
  11    5    6 ar
  12    5   10 1
  13    6    7 ar
  14    6   11 1
  15    7    8 ar
  16    7   30 1
  17    8    9 ar
  18    8   31 1
  19    9   19 1
  20   10   12 1
  21   10   32 1
  22   11   20 am
  23   11   33 1
  24   12   13 ar
  25   12   17 ar
  26   13   14 ar
  27   13   34 1
  28   14   15 ar
  29   14   35 1
  30   15   16 ar
  31   16   17 ar
  32   16   36 1
  33   17   18 1
  34   20   21 2
  35   20   22 2
  36   23   24 1
  37   24   25 1
  38   24   37 1
  39   25   26 2
  40   25   38 1
  41   26   39 1

#	End of record

