#	Name: ASD02770065
#	Creating user name:	WinNT
#	Creation time:	15. 06. 2019 20:26

#	Modifying user name:	WinNT
#	Modification time:	15. 06. 2019 20:26

#	Program:	/corina/corina34_cracker 3.40 0067  02.08.2006

@<TRIPOS>MOLECULE
ASD02770065
  43   43    0    0    0
SMALL
NO_CHARGES


@<TRIPOS>ATOM
   1 C1            -0.0184     1.5028     0.0103 C.2     
   2 C2             0.0021    -0.0041     0.0020 C.3     
   3 O3             1.0236     2.1234     0.0037 O.2     
   4 N4            -1.1946     2.1607     0.0195 N.am    
   5 O5             1.3556    -0.4620    -0.0134 O.3     
   6 C6             1.5521    -1.8078    -0.0225 C.ar    
   7 C7             1.6410    -2.4889    -1.2268 C.ar    
   8 C8             1.8413    -3.8574    -1.2338 C.ar    
   9 C9             1.9527    -4.5488    -0.0418 C.ar    
  10 C10            1.8649    -3.8754     1.1623 C.ar    
  11 C11            1.6701    -2.5033     1.1766 C.ar    
  12 C12            2.1699    -6.0400    -0.0550 C.3     
  13 N13            3.6109    -6.3248    -0.0716 N.3     
  14 C14            3.8614    -7.7722    -0.0849 C.3     
  15 C15            7.4200    -8.3840     1.0267 C.ar    
  16 C16            6.0585    -8.1527     1.0814 C.ar    
  17 C17            5.3469    -8.0249    -0.1017 C.ar    
  18 C18            6.0345    -8.1355    -1.3006 C.ar    
  19 C19            7.3967    -8.3678    -1.2767 C.ar    
  20 N20            8.0413    -8.4836    -0.1322 N.ar    
  21 O21            1.5891    -1.8389     2.3605 O.3     
  22 C22            1.7191    -2.6176     3.5516 C.3     
  23 Br23           1.4879    -1.5471    -2.8594 Br      
  24 H24           -0.4983    -0.3791     0.8948 H       
  25 H25           -0.5153    -0.3696    -0.8850 H       
  26 H26           -2.0280     1.6644     0.0207 H       
  27 H27           -1.2077     3.1306     0.0248 H       
  28 H28            1.9104    -4.3871    -2.1725 H       
  29 H29            1.9523    -4.4180     2.0919 H       
  30 H30            1.7228    -6.4802     0.8363 H       
  31 H31            1.7049    -6.4670    -0.9436 H       
  32 H32            4.0598    -5.8730    -0.8542 H       
  33 H33            3.4259    -8.2245     0.8062 H       
  34 H34            3.4081    -8.2113    -0.9736 H       
  35 H35            7.9823    -8.4803     1.9438 H       
  36 H36            5.5553    -8.0725     2.0336 H       
  37 H37            5.5122    -8.0417    -2.2412 H       
  38 H38            7.9396    -8.4553    -2.2063 H       
  39 H39            0.9297    -3.3686     3.5827 H       
  40 H40            2.6908    -3.1113     3.5587 H       
  41 H41            1.6358    -1.9668     4.4220 H       
  42 Cl42          13.0413     8.1306     9.4220 Cl      
  43 H43           13.0413     9.5006     9.4220 H       
@<TRIPOS>BOND
   1    1    2 1
   2    1    3 2
   3    1    4 am
   4    2    5 1
   5    2   24 1
   6    2   25 1
   7    4   26 1
   8    4   27 1
   9    5    6 1
  10    6    7 ar
  11    6   11 ar
  12    7    8 ar
  13    7   23 1
  14    8    9 ar
  15    8   28 1
  16    9   10 ar
  17    9   12 1
  18   10   11 ar
  19   10   29 1
  20   11   21 1
  21   12   13 1
  22   12   30 1
  23   12   31 1
  24   13   14 1
  25   13   32 1
  26   14   17 1
  27   14   33 1
  28   14   34 1
  29   15   16 ar
  30   15   20 ar
  31   15   35 1
  32   16   17 ar
  33   16   36 1
  34   17   18 ar
  35   18   19 ar
  36   18   37 1
  37   19   20 ar
  38   19   38 1
  39   21   22 1
  40   22   39 1
  41   22   40 1
  42   22   41 1
  43   42   43 1

#	End of record

