#	Name: ASD03430887
#	Creating user name:	WinNT
#	Creation time:	15. 06. 2019 20:41

#	Modifying user name:	WinNT
#	Modification time:	15. 06. 2019 20:41

#	Program:	/corina/corina34_cracker 3.40 0067  02.08.2006

@<TRIPOS>MOLECULE
ASD03430887
  34   37    0    0    0
SMALL
NO_CHARGES


@<TRIPOS>ATOM
   1 O1            -0.0175     1.4358     0.0099 O.3     
   2 C2             0.0021    -0.0041     0.0020 C.3     
   3 C3             1.3426    -0.3166    -0.6771 C.3     
   4 C4             2.1586     0.9208    -0.4141 C.ar    
   5 C5             1.2605     1.9064     0.0003 C.ar    
   6 C6             1.7429     3.1699     0.3319 C.ar    
   7 C7             3.0926     3.4507     0.2431 C.ar    
   8 C8             3.9884     2.4589    -0.1850 C.ar    
   9 C9             3.5018     1.1893    -0.5115 C.ar    
  10 N10            2.1467    -2.4055    -1.1401 N.am    
  11 C11            1.9811    -1.5518    -0.1101 C.2     
  12 C12            1.1773    -0.5911    -2.1423 C.ar    
  13 C13            0.6647     0.1348    -3.1943 C.ar    
  14 C14            0.6496    -0.4064    -4.4674 C.ar    
  15 C15            1.1509    -1.6775    -4.6810 C.ar    
  16 C16            1.6657    -2.4085    -3.6307 C.ar    
  17 C17            1.6852    -1.8716    -2.3457 C.ar    
  18 O18            2.2883    -1.7435     1.0474 O.2     
  19 C19            5.3879     2.7445    -0.2869 C.1     
  20 N20            6.4981     2.9711    -0.3678 N.1     
  21 O21            3.5520     4.6853     0.5693 O.3     
  22 C22            2.5840     5.6457     0.9965 C.3     
  23 H23           -0.0174    -0.3968     1.0186 H       
  24 H24           -0.8290    -0.3990    -0.5824 H       
  25 H25            1.0566     3.9362     0.6607 H       
  26 H26            4.1833     0.4188    -0.8405 H       
  27 H27            2.5406    -3.2877    -1.0542 H       
  28 H28            0.2738     1.1273    -3.0252 H       
  29 H29            0.2469     0.1624    -5.2925 H       
  30 H30            1.1388    -2.1000    -5.6749 H       
  31 H31            2.0554    -3.4005    -3.8055 H       
  32 H32            1.8550     5.8049     0.2020 H       
  33 H33            2.0756     5.2775     1.8876 H       
  34 H34            3.0830     6.5872     1.2258 H       
@<TRIPOS>BOND
   1    1    2 1
   2    1    5 1
   3    2    3 1
   4    2   23 1
   5    2   24 1
   6    3    4 1
   7    3   11 1
   8    3   12 1
   9    4    5 ar
  10    4    9 ar
  11    5    6 ar
  12    6    7 ar
  13    6   25 1
  14    7    8 ar
  15    7   21 1
  16    8    9 ar
  17    8   19 1
  18    9   26 1
  19   10   11 am
  20   10   17 1
  21   10   27 1
  22   11   18 2
  23   12   13 ar
  24   12   17 ar
  25   13   14 ar
  26   13   28 1
  27   14   15 ar
  28   14   29 1
  29   15   16 ar
  30   15   30 1
  31   16   17 ar
  32   16   31 1
  33   19   20 3
  34   21   22 1
  35   22   32 1
  36   22   33 1
  37   22   34 1

#	End of record

