#	Name: ASD03730257
#	Creating user name:	WinNT
#	Creation time:	15. 06. 2019 20:44

#	Modifying user name:	WinNT
#	Modification time:	15. 06. 2019 20:44

#	Program:	/corina/corina34_cracker 3.40 0067  02.08.2006

@<TRIPOS>MOLECULE
ASD03730257
  65   70    0    0    0
SMALL
NO_CHARGES


@<TRIPOS>ATOM
   1 C1             1.2485    -3.0645    -0.8252 C.3     
   2 S2             0.3469    -1.5750    -0.3160 S.o2    
   3 O3            -1.0303    -1.6882    -0.6469 O.2     
   4 O4             0.7574    -1.1625     0.9804 O.2     
   5 N5             0.9121    -0.3862    -1.3208 N.am    
   6 C6             2.2613    -0.0305    -1.2912 C.ar    
   7 C7             2.9689     0.1078    -2.4798 C.ar    
   8 C8             4.3017     0.4591    -2.4527 C.ar    
   9 C9             4.9398     0.6756    -1.2324 C.ar    
  10 C10            4.2284     0.5364    -0.0416 C.ar    
  11 C11            2.8943     0.1905    -0.0733 C.ar    
  12 O12            3.5703     6.1252     0.9654 O.3     
  13 C13            2.1948     5.8918     1.3214 C.3     
  14 O14            1.5971     5.4318     0.0950 O.3     
  15 C15            2.6122     4.8519    -0.6109 C.ar    
  16 C16            3.8252     5.2810    -0.0771 C.ar    
  17 C17            2.5989     3.9764    -1.6818 C.ar    
  18 C18            3.7919     3.5224    -2.2361 C.ar    
  19 C19            4.9976     3.9683    -1.7029 C.ar    
  20 C20            5.0140     4.8347    -0.6298 C.ar    
  21 O21            3.9991     2.6545    -3.2676 O.3     
  22 C22            6.0894     3.3376    -2.5251 C.3     
  23 C23            5.3431     2.8150    -3.7605 C.3     
  24 N24            8.3205     3.8211    -2.4196 N.am    
  25 C25            7.1625     4.3209    -2.8955 C.2     
  26 C26            6.7954     2.2371    -1.7908 C.ar    
  27 C27            6.3741     1.0532    -1.2009 C.ar    
  28 C28            7.3032     0.2201    -0.5781 C.ar    
  29 C29            8.6361     0.5797    -0.5531 C.ar    
  30 C30            9.0542     1.7567    -1.1401 C.ar    
  31 C31            8.1376     2.5992    -1.7667 C.ar    
  32 C32            9.6194     4.4815    -2.5702 C.3     
  33 C33            9.8615     5.4086    -1.3774 C.3     
  34 C34           11.2181     6.0984    -1.5346 C.3     
  35 C35           11.4601     7.0255    -0.3418 C.3     
  36 C36           12.8168     7.7153    -0.4991 C.3     
  37 O37            7.0161     5.3599    -3.5037 O.2     
  38 H38            1.0770    -3.2482    -1.8858 H       
  39 H39            2.3146    -2.9220    -0.6488 H       
  40 H40            0.8955    -3.9184    -0.2469 H       
  41 H41            0.3054     0.0629    -1.9299 H       
  42 H42            2.4743    -0.0604    -3.4250 H       
  43 H43            4.8512     0.5661    -3.3763 H       
  44 H44            4.7209     0.7037     0.9048 H       
  45 H45            2.3416     0.0868     0.8487 H       
  46 H46            2.1237     5.1252     2.0931 H       
  47 H47            1.7231     6.8164     1.6541 H       
  48 H48            1.6565     3.6427    -2.0901 H       
  49 H49            5.9565     5.1663    -0.2197 H       
  50 H50            5.7534     1.8587    -4.0848 H       
  51 H51            5.3743     3.5451    -4.5692 H       
  52 H52            6.9815    -0.7021    -0.1171 H       
  53 H53            9.3564    -0.0644    -0.0706 H       
  54 H54           10.0995     2.0269    -1.1138 H       
  55 H55           10.4070     3.7291    -2.6112 H       
  56 H56            9.6259     5.0648    -3.4909 H       
  57 H57            9.0739     6.1611    -1.3364 H       
  58 H58            9.8550     4.8253    -0.4566 H       
  59 H59           12.0057     5.3460    -1.5756 H       
  60 H60           11.2246     6.6817    -2.4554 H       
  61 H61           10.6726     7.7780    -0.3008 H       
  62 H62           11.4537     6.4422     0.5789 H       
  63 H63           12.8232     8.2986    -1.4198 H       
  64 H64           12.9892     8.3758     0.3507 H       
  65 H65           13.6043     6.9629    -0.5401 H       
@<TRIPOS>BOND
   1    1    2 1
   2    1   38 1
   3    1   39 1
   4    1   40 1
   5    2    3 2
   6    2    4 2
   7    2    5 am
   8    5    6 1
   9    5   41 1
  10    6    7 ar
  11    6   11 ar
  12    7    8 ar
  13    7   42 1
  14    8    9 ar
  15    8   43 1
  16    9   10 ar
  17    9   27 1
  18   10   11 ar
  19   10   44 1
  20   11   45 1
  21   12   13 1
  22   12   16 1
  23   13   14 1
  24   13   46 1
  25   13   47 1
  26   14   15 1
  27   15   16 ar
  28   15   17 ar
  29   16   20 ar
  30   17   18 ar
  31   17   48 1
  32   18   19 ar
  33   18   21 1
  34   19   20 ar
  35   19   22 1
  36   20   49 1
  37   21   23 1
  38   22   23 1
  39   22   25 1
  40   22   26 1
  41   23   50 1
  42   23   51 1
  43   24   25 am
  44   24   31 1
  45   24   32 1
  46   25   37 2
  47   26   27 ar
  48   26   31 ar
  49   27   28 ar
  50   28   29 ar
  51   28   52 1
  52   29   30 ar
  53   29   53 1
  54   30   31 ar
  55   30   54 1
  56   32   33 1
  57   32   55 1
  58   32   56 1
  59   33   34 1
  60   33   57 1
  61   33   58 1
  62   34   35 1
  63   34   59 1
  64   34   60 1
  65   35   36 1
  66   35   61 1
  67   35   62 1
  68   36   63 1
  69   36   64 1
  70   36   65 1

#	End of record

