#	Name: ASD05380134
#	Creating user name:	WinNT
#	Creation time:	15. 06. 2019 20:59

#	Modifying user name:	WinNT
#	Modification time:	15. 06. 2019 20:59

#	Program:	/corina/corina34_cracker 3.40 0067  02.08.2006

@<TRIPOS>MOLECULE
ASD05380134
  46   50    0    0    0
SMALL
NO_CHARGES


@<TRIPOS>ATOM
   1 C1            -0.2260     1.5754    -0.3891 C.ar    
   2 C2            -0.0889     0.1880    -0.6183 C.ar    
   3 C3             0.7591     2.4567    -0.8293 C.ar    
   4 C4             1.8664     1.9636    -1.4891 C.ar    
   5 C5             2.0033     0.5987    -1.7162 C.ar    
   6 C6             1.0402    -0.2871    -1.2881 C.ar    
   7 N7            -1.0610    -0.6508    -0.1799 N.2     
   8 C8            -2.1109    -0.2096     0.4432 C.2     
   9 N9            -2.3254     1.1083     0.7064 N.am    
  10 C10           -1.4237     2.0425     0.3242 C.2     
  11 C11           -3.4866     1.5008     1.3840 C.ar    
  12 C12           -4.6408     1.7968     0.6713 C.ar    
  13 C13           -5.7832     2.2775     2.7240 C.ar    
  14 C14           -3.1448    -1.2073     0.8977 C.3     
  15 N15           -3.2468    -2.2876    -0.0865 N.pl3   
  16 C16           -4.4171    -3.0185    -0.1929 C.ar    
  17 N17           -5.4580    -2.7535     0.5899 N.ar    
  18 O18           -1.6025     3.2247     0.5530 O.2     
  19 C19           -4.5347    -4.0543    -1.1351 C.ar    
  20 C20           -5.7477    -4.7611    -1.1962 C.ar    
  21 N21           -6.7319    -4.4276    -0.3679 N.ar    
  22 C22           -6.5785    -3.4456     0.4954 C.ar    
  23 N23           -3.7146    -4.5870    -2.0726 N.2     
  24 C24           -4.3318    -5.5521    -2.6900 C.2     
  25 N25           -5.5897    -5.6985    -2.1854 N.pl3   
  26 C26           -5.7868     2.1843     1.3424 C.ar    
  27 C27           -4.6349     1.9767     3.4370 C.ar    
  28 C28           -3.4868     1.5888     2.7695 C.ar    
  29 C29           -2.7324    -1.7882     2.2517 C.3     
  30 F30           -6.9102     2.4724     0.6494 F       
  31 F31           -4.6337     2.0684     4.7849 F       
  32 F32            2.8248     2.8138    -1.9181 F       
  33 H33            0.6568     3.5178    -0.6558 H       
  34 H34            2.8755     0.2290    -2.2347 H       
  35 H35            1.1575    -1.3453    -1.4698 H       
  36 H36           -4.6438     1.7249    -0.4063 H       
  37 H37           -6.6784     2.5808     3.2464 H       
  38 H38           -4.1106    -0.7113     0.9941 H       
  39 H39           -2.4940    -2.4907    -0.6636 H       
  40 H40           -7.3998    -3.1972     1.1513 H       
  41 H41           -3.9098    -6.1490    -3.4850 H       
  42 H42           -6.2514    -6.3471    -2.4725 H       
  43 H43           -2.5914     1.3544     3.3260 H       
  44 H44           -3.5240    -2.4383     2.6245 H       
  45 H45           -1.8141    -2.3637     2.1357 H       
  46 H46           -2.5655    -0.9764     2.9597 H       
@<TRIPOS>BOND
   1    1    2 ar
   2    1    3 ar
   3    1   10 1
   4    2    7 1
   5    2    6 ar
   6    3    4 ar
   7    3   33 1
   8    4    5 ar
   9    4   32 1
  10    5    6 ar
  11    5   34 1
  12    6   35 1
  13    7    8 2
  14    8    9 1
  15    8   14 1
  16    9   10 am
  17    9   11 1
  18   10   18 2
  19   11   12 ar
  20   11   28 ar
  21   12   26 ar
  22   12   36 1
  23   13   26 ar
  24   13   27 ar
  25   13   37 1
  26   14   15 1
  27   14   29 1
  28   14   38 1
  29   15   16 1
  30   15   39 1
  31   16   17 ar
  32   16   19 ar
  33   17   22 ar
  34   19   20 ar
  35   19   23 1
  36   20   21 ar
  37   20   25 1
  38   21   22 ar
  39   22   40 1
  40   23   24 2
  41   24   25 1
  42   24   41 1
  43   25   42 1
  44   26   30 1
  45   27   31 1
  46   27   28 ar
  47   28   43 1
  48   29   44 1
  49   29   45 1
  50   29   46 1

#	End of record

