#	Name: ASD01900554
#	Creating user name:	WinNT
#	Creation time:	15. 06. 2019 19:52

#	Modifying user name:	WinNT
#	Modification time:	15. 06. 2019 19:52

#	Program:	/corina/corina34_cracker 3.40 0067  02.08.2006

@<TRIPOS>MOLECULE
ASD01900554
  41   44    0    0    0
SMALL
NO_CHARGES


@<TRIPOS>ATOM
   1 C1             0.9850     3.1569     0.7507 C.ar    
   2 C2             2.0487     3.6068     1.5302 C.ar    
   3 C3             3.2477     2.9129     1.4977 C.ar    
   4 C4             3.3417     1.7926     0.6865 C.ar    
   5 C5             2.2432     1.4021    -0.0622 C.ar    
   6 N6             1.1166     2.0791    -0.0127 N.ar    
   7 C7            -0.3053     3.8839     0.7789 C.2     
   8 O8            -0.4328     4.8684     1.4799 O.2     
   9 N9            -1.3378     3.4535     0.0271 N.am    
  10 C10           -2.5849     4.0804     0.1267 C.ar    
  11 C11           -2.6583     5.4515     0.3376 C.ar    
  12 C12           -3.8894     6.0698     0.4354 C.ar    
  13 C13           -5.0541     5.3200     0.3227 C.ar    
  14 C14           -4.9801     3.9503     0.1121 C.ar    
  15 C15           -3.7494     3.3328     0.0090 C.ar    
  16 C16           -9.5530     6.5848    -0.7171 C.3     
  17 C17          -10.0648     8.0135    -0.4573 C.3     
  18 C18           -8.5908     8.4579    -0.4325 C.3     
  19 C19           -8.2537     7.0201    -0.0416 C.3     
  20 N20           -8.1515     6.7495     1.3925 N.am    
  21 C21           -6.9738     6.1168     1.5711 C.2     
  22 N22           -6.3054     5.9481     0.4225 N.am    
  23 C23           -6.9853     6.4576    -0.6280 C.2     
  24 O24           -6.6475     6.4609    -1.7923 O.2     
  25 O25           -6.5648     5.7422     2.6525 O.2     
  26 Cl26          -3.9820     7.7831     0.6994 Cl      
  27 H27            1.9403     4.4842     2.1506 H       
  28 H28            4.0900     3.2376     2.0905 H       
  29 H29            4.2622     1.2299     0.6384 H       
  30 H30            2.3129     0.5298    -0.6952 H       
  31 H31           -1.2164     2.7092    -0.5830 H       
  32 H32           -1.7530     6.0337     0.4254 H       
  33 H33           -5.8853     3.3679     0.0246 H       
  34 H34           -3.6923     2.2675    -0.1593 H       
  35 H35          -10.0972     5.8181    -0.1657 H       
  36 H36           -9.4379     6.3469    -1.7746 H       
  37 H37          -10.6323     8.4314    -1.2888 H       
  38 H38          -10.5710     8.1279     0.5012 H       
  39 H39           -8.2047     8.7476    -1.4097 H       
  40 H40           -8.3668     9.1870     0.3463 H       
  41 H41           -8.7996     6.9790     2.0767 H       
@<TRIPOS>BOND
   1    1    2 ar
   2    1    6 ar
   3    1    7 1
   4    2    3 ar
   5    2   27 1
   6    3    4 ar
   7    3   28 1
   8    4    5 ar
   9    4   29 1
  10    5    6 ar
  11    5   30 1
  12    7    8 2
  13    7    9 am
  14    9   10 1
  15    9   31 1
  16   10   11 ar
  17   10   15 ar
  18   11   12 ar
  19   11   32 1
  20   12   13 ar
  21   12   26 1
  22   13   14 ar
  23   13   22 1
  24   14   15 ar
  25   14   33 1
  26   15   34 1
  27   16   17 1
  28   16   19 1
  29   16   35 1
  30   16   36 1
  31   17   18 1
  32   17   37 1
  33   17   38 1
  34   18   19 1
  35   18   39 1
  36   18   40 1
  37   19   20 1
  38   19   23 1
  39   20   21 am
  40   20   41 1
  41   21   22 am
  42   21   25 2
  43   22   23 am
  44   23   24 2

#	End of record

