#	Name: ASD01900183
#	Creating user name:	WinNT
#	Creation time:	15. 06. 2019 19:51

#	Modifying user name:	WinNT
#	Modification time:	15. 06. 2019 19:51

#	Program:	/corina/corina34_cracker 3.40 0067  02.08.2006

@<TRIPOS>MOLECULE
ASD01900183
  34   37    0    0    0
SMALL
NO_CHARGES


@<TRIPOS>ATOM
   1 N1            -0.0167     1.3820     0.0096 N.pl3   
   2 S2            -1.4216    -1.0418     0.0100 S.3     
   3 C3             0.0021    -0.0041     0.0020 C.2     
   4 N4             1.0720    -0.7403    -0.0126 N.2     
   5 C5             0.9027    -2.0507    -0.0342 C.2     
   6 C6             1.9501    -3.1132    -0.1982 C.2     
   7 C7             1.7129    -4.1944    -1.0714 C.2     
   8 C8             0.5057    -4.2795    -1.9549 C.3     
   9 C9            -0.7679    -4.6691    -1.1846 C.3     
  10 C10           -0.7896    -3.8983     0.1447 C.3     
  11 C11           -0.3877    -2.4618     0.0244 C.2     
  12 N12            2.7283    -5.0026    -0.9750 N.2     
  13 N13            3.6594    -4.4424    -0.0856 N.pl3   
  14 C14            3.1567    -3.2684     0.3711 C.2     
  15 N15            2.6703     3.7200    -0.0032 N.pl3   
  16 N16            1.3053     3.4056     0.0083 N.2     
  17 C17            1.1864     2.0986     0.0020 C.2     
  18 C18            2.4767     1.5444    -0.0138 C.2     
  19 C19            3.3658     2.5634    -0.0166 C.2     
  20 C20            3.2428     5.0685    -0.0064 C.3     
  21 H21           -0.8633     1.8555     0.0162 H       
  22 H22            0.3477    -3.3109    -2.4291 H       
  23 H23            0.6890    -5.0230    -2.7306 H       
  24 H24           -1.6467    -4.4074    -1.7740 H       
  25 H25           -0.7624    -5.7409    -0.9864 H       
  26 H26           -1.7983    -3.9432     0.5554 H       
  27 H27           -0.1123    -4.3908     0.8424 H       
  28 H28            4.5147    -4.8286     0.1600 H       
  29 H29            3.6351    -2.5884     1.0604 H       
  30 H30            2.7163     0.4914    -0.0222 H       
  31 H31            4.4416     2.4685    -0.0280 H       
  32 H32            3.3942     5.4014     1.0204 H       
  33 H33            4.1993     5.0559    -0.5291 H       
  34 H34            2.5609     5.7515    -0.5130 H       
@<TRIPOS>BOND
   1    1    3 1
   2    1   17 1
   3    1   21 1
   4    2    3 1
   5    2   11 1
   6    3    4 2
   7    4    5 1
   8    5    6 1
   9    5   11 2
  10    6    7 1
  11    6   14 2
  12    7    8 1
  13    7   12 2
  14    8    9 1
  15    8   22 1
  16    8   23 1
  17    9   10 1
  18    9   24 1
  19    9   25 1
  20   10   11 1
  21   10   26 1
  22   10   27 1
  23   12   13 1
  24   13   14 1
  25   13   28 1
  26   14   29 1
  27   15   16 1
  28   15   19 1
  29   15   20 1
  30   16   17 2
  31   17   18 1
  32   18   19 2
  33   18   30 1
  34   19   31 1
  35   20   32 1
  36   20   33 1
  37   20   34 1

#	End of record

