#	Name: ASD09740232
#	Creating user name:	WinNT
#	Creation time:	15. 06. 2019 21:23

#	Modifying user name:	WinNT
#	Modification time:	15. 06. 2019 21:23

#	Program:	/corina/corina34_cracker 3.40 0067  02.08.2006

@<TRIPOS>MOLECULE
ASD09740232
  46   48    0    0    0
SMALL
NO_CHARGES


@<TRIPOS>ATOM
   1 C1            -0.0161     1.3325     0.0094 C.2     
   2 O2             0.0021    -0.0041     0.0020 O.3     
   3 N3            -1.1317    -0.4347     0.0105 N.2     
   4 C4            -1.9876     0.5532     0.0240 C.2     
   5 N5            -1.2728     1.7008     0.0291 N.2     
   6 C6            -3.4680     0.4368     0.0375 C.ar    
   7 C7            -4.2775     1.5778     0.0508 C.ar    
   8 C8            -4.0870    -0.8120     0.0313 C.ar    
   9 C9            -5.4755    -0.8749     0.0439 C.ar    
  10 N10           -6.2021     0.2318     0.0611 N.ar    
  11 C11           -5.6481     1.4298     0.0626 C.ar    
  12 N12           -6.1080    -2.1129     0.0380 N.pl3   
  13 C13            1.1839     2.2441     0.0028 C.3     
  14 C14            2.0257     1.9753     1.2236 C.ar    
  15 C15            2.2611     2.9857     2.1370 C.ar    
  16 C16            2.5577     0.7167     1.4328 C.ar    
  17 C17            3.3299     0.4701     2.5525 C.ar    
  18 C18            3.5703     1.4822     3.4629 C.ar    
  19 C19            3.0333     2.7392     3.2568 C.ar    
  20 C20            2.0140     1.9854    -1.2561 C.3     
  21 C21            4.4117     1.2132     4.6839 C.3     
  22 C22            5.8803     1.4998     4.3645 C.3     
  23 C23            6.0569     2.9911     4.0718 C.3     
  24 C24            6.7483     1.1089     5.5623 C.3     
  25 H25           -3.8341     2.5626     0.0522 H       
  26 H26           -3.4971    -1.7165     0.0166 H       
  27 H27           -6.2778     2.3071     0.0773 H       
  28 H28           -5.5806    -2.9269     0.0251 H       
  29 H29           -7.0767    -2.1627     0.0467 H       
  30 H30            0.8517     3.2822     0.0120 H       
  31 H31            1.8420     3.9680     1.9756 H       
  32 H32            2.3699    -0.0741     0.7215 H       
  33 H33            3.7450    -0.5134     2.7164 H       
  34 H34            3.2211     3.5299     3.9680 H       
  35 H35            1.4052     2.1799    -2.1391 H       
  36 H36            2.8820     2.6448    -1.2609 H       
  37 H37            2.3463     0.9474    -1.2653 H       
  38 H38            4.0847     1.8580     5.4996 H       
  39 H39            4.3009     0.1697     4.9788 H       
  40 H40            6.1823     0.9200     3.4923 H       
  41 H41            5.4385     3.2696     3.2185 H       
  42 H42            5.7549     3.5709     4.9440 H       
  43 H43            7.1032     3.1953     3.8443 H       
  44 H44            6.6225     0.0464     5.7708 H       
  45 H45            7.7946     1.3131     5.3348 H       
  46 H46            6.4463     1.6886     6.4345 H       
@<TRIPOS>BOND
   1    1    2 1
   2    1   13 1
   3    1    5 2
   4    2    3 1
   5    3    4 2
   6    4    5 1
   7    4    6 1
   8    6    7 ar
   9    6    8 ar
  10    7   11 ar
  11    7   25 1
  12    8    9 ar
  13    8   26 1
  14    9   10 ar
  15    9   12 1
  16   10   11 ar
  17   11   27 1
  18   12   28 1
  19   12   29 1
  20   13   14 1
  21   13   20 1
  22   13   30 1
  23   14   15 ar
  24   14   16 ar
  25   15   19 ar
  26   15   31 1
  27   16   17 ar
  28   16   32 1
  29   17   18 ar
  30   17   33 1
  31   18   19 ar
  32   18   21 1
  33   19   34 1
  34   20   35 1
  35   20   36 1
  36   20   37 1
  37   21   22 1
  38   21   38 1
  39   21   39 1
  40   22   23 1
  41   22   24 1
  42   22   40 1
  43   23   41 1
  44   23   42 1
  45   23   43 1
  46   24   44 1
  47   24   45 1
  48   24   46 1

#	End of record

