#	Name: ASD07930505
#	Creating user name:	WinNT
#	Creation time:	15. 06. 2019 21:12

#	Modifying user name:	WinNT
#	Modification time:	15. 06. 2019 21:12

#	Program:	/corina/corina34_cracker 3.40 0067  02.08.2006

@<TRIPOS>MOLECULE
ASD07930505
  56   58    0    0    0
SMALL
NO_CHARGES


@<TRIPOS>ATOM
   1 C1            -0.0343     1.4581     0.0425 C.3     
   2 N2             0.7952    -0.4133    -2.1302 N.2     
   3 N3            -0.8904    -1.7835    -1.2685 N.pl3   
   4 C4            -0.9150    -2.8271    -0.2382 C.3     
   5 C5            -1.2300    -2.1885     1.1215 C.3     
   6 S6             0.0061    -0.8913     1.4435 S.o2    
   7 N7            -0.0141    -0.0067     0.0315 N.am    
   8 C8            -0.0113    -0.7259    -1.1551 C.2     
   9 C9             0.4500    -3.5153    -0.1755 C.3     
  10 C10           -1.9765    -3.8423    -0.5755 C.ar    
  11 C11           -2.8068    -3.6380    -1.6597 C.ar    
  12 C12           -3.7850    -4.5740    -1.9701 C.ar    
  13 C13           -3.9256    -5.7134    -1.1890 C.ar    
  14 C14           -3.0929    -5.9137    -0.1053 C.ar    
  15 C15           -2.1147    -4.9822     0.1989 C.ar    
  16 O16           -0.4576     0.0117     2.4378 O.2     
  17 O17            1.3140    -1.4440     1.5003 O.2     
  18 F18           -1.3010    -5.1802     1.2590 F       
  19 N19           -4.6278    -4.3688    -3.0681 N.am    
  20 C20           -5.0478    -5.4192    -3.8009 C.2     
  21 O21           -4.6184    -6.5326    -3.5690 O.2     
  22 C22           -6.0310    -5.2172    -4.8870 C.ar    
  23 N23           -6.4957    -3.9977    -5.1346 N.ar    
  24 C24           -6.4563    -6.3081    -5.6444 C.ar    
  25 C25           -7.3764    -6.1068    -6.6578 C.ar    
  26 C26           -7.8436    -4.8150    -6.8822 C.ar    
  27 C27           -7.3695    -3.7728    -6.0892 C.ar    
  28 O28           -8.7467    -4.5728    -7.8661 O.3     
  29 C29           -9.1771    -3.2205    -8.0332 C.3     
  30 C30          -10.1865    -3.1446    -9.1804 C.3     
  31 O31          -11.3632    -3.8751    -8.8287 O.3     
  32 C32          -12.3752    -3.8676    -9.8375 C.3     
  33 H33            0.9882     1.8357     0.0394 H       
  34 H34           -0.5582     1.8209    -0.8418 H       
  35 H35           -0.5480     1.8077     0.9380 H       
  36 H36            1.4070     0.3332    -2.0331 H       
  37 H37           -1.4884    -1.8387    -2.0302 H       
  38 H38           -2.2270    -1.7485     1.0987 H       
  39 H39           -1.1799    -2.9460     1.9037 H       
  40 H40            1.2165    -2.7804     0.0704 H       
  41 H41            0.4311    -4.2908     0.5903 H       
  42 H42            0.6749    -3.9651    -1.1426 H       
  43 H43           -2.6960    -2.7510    -2.2657 H       
  44 H44           -4.6858    -6.4422    -1.4284 H       
  45 H45           -3.2019    -6.7998     0.5025 H       
  46 H46           -4.9099    -3.4707    -3.3019 H       
  47 H47           -6.0722    -7.2972    -5.4427 H       
  48 H48           -7.7237    -6.9326    -7.2610 H       
  49 H49           -7.7284    -2.7682    -6.2580 H       
  50 H50           -9.6461    -2.8721    -7.1130 H       
  51 H51           -8.3173    -2.5914    -8.2635 H       
  52 H52          -10.4476    -2.1028    -9.3663 H       
  53 H53           -9.7469    -3.5751   -10.0802 H       
  54 H54          -13.2348    -4.4432    -9.4941 H       
  55 H55          -12.6818    -2.8408   -10.0371 H       
  56 H56          -11.9811    -4.3131   -10.7509 H       
@<TRIPOS>BOND
   1    1    7 1
   2    1   33 1
   3    1   34 1
   4    1   35 1
   5    2    8 2
   6    2   36 1
   7    3    4 1
   8    3    8 1
   9    3   37 1
  10    4    5 1
  11    4    9 1
  12    4   10 1
  13    5    6 1
  14    5   38 1
  15    5   39 1
  16    6    7 am
  17    6   16 2
  18    6   17 2
  19    7    8 1
  20    9   40 1
  21    9   41 1
  22    9   42 1
  23   10   11 ar
  24   10   15 ar
  25   11   12 ar
  26   11   43 1
  27   12   13 ar
  28   12   19 1
  29   13   14 ar
  30   13   44 1
  31   14   15 ar
  32   14   45 1
  33   15   18 1
  34   19   20 am
  35   19   46 1
  36   20   21 2
  37   20   22 1
  38   22   23 ar
  39   22   24 ar
  40   23   27 ar
  41   24   25 ar
  42   24   47 1
  43   25   26 ar
  44   25   48 1
  45   26   27 ar
  46   26   28 1
  47   27   49 1
  48   28   29 1
  49   29   30 1
  50   29   50 1
  51   29   51 1
  52   30   31 1
  53   30   52 1
  54   30   53 1
  55   31   32 1
  56   32   54 1
  57   32   55 1
  58   32   56 1

#	End of record

