#	Name: ASD02508463
#	Creating user name:	WinNT
#	Creation time:	15. 06. 2019 20:24

#	Modifying user name:	WinNT
#	Modification time:	15. 06. 2019 20:24

#	Program:	/corina/corina34_cracker 3.40 0067  02.08.2006

@<TRIPOS>MOLECULE
ASD02508463
  33   35    0    0    0
SMALL
NO_CHARGES


@<TRIPOS>ATOM
   1 C1             0.1556     1.1272    -0.7765 C.2     
   2 C2            -0.0842     0.1684     0.2293 C.2     
   3 C3             1.0713    -0.0147     0.8983 C.2     
   4 N4             2.0199     0.7975     0.3420 N.pl3   
   5 C5             1.4489     1.4951    -0.6857 C.2     
   6 C6             3.3485     0.8981     0.7545 C.ar    
   7 N7             4.0784    -0.1946     0.9503 N.ar    
   8 C8             3.9324     2.1466     0.9621 C.ar    
   9 C9             5.2527     2.1949     1.3704 C.ar    
  10 N10            5.9152     1.0621     1.5498 N.ar    
  11 C11            5.3350    -0.1041     1.3399 C.ar    
  12 S12            1.3169    -1.1111     2.2557 S.o2    
  13 N13            1.4519    -2.6396     1.6330 N.am    
  14 C14            2.5329    -2.9655     0.8082 C.ar    
  15 C15            3.2194    -4.1572     1.0003 C.ar    
  16 C16            4.2873    -4.4777     0.1845 C.ar    
  17 C17            4.6737    -3.6122    -0.8240 C.ar    
  18 C18            3.9907    -2.4218    -1.0177 C.ar    
  19 C19            2.9180    -2.1004    -0.2078 C.ar    
  20 O20            2.5863    -0.7889     2.8071 O.2     
  21 O21            0.1135    -1.0904     3.0110 O.2     
  22 Cl22           6.2482    -1.5590     1.5904 Cl      
  23 Cl23           4.4783    -1.3376    -2.2828 Cl      
  24 F24            5.7184    -3.9278    -1.6205 F       
  25 H25           -0.5645     1.4959    -1.4920 H       
  26 H26           -1.0225    -0.3283     0.4274 H       
  27 H27            1.9481     2.2160    -1.3163 H       
  28 H28            3.3676     3.0541     0.8075 H       
  29 H29            5.7378     3.1447     1.5405 H       
  30 H30            0.7811    -3.3088     1.8404 H       
  31 H31            2.9188    -4.8330     1.7873 H       
  32 H32            4.8214    -5.4044     0.3342 H       
  33 H33            2.3855    -1.1730    -0.3588 H       
@<TRIPOS>BOND
   1    1    2 1
   2    1    5 2
   3    1   25 1
   4    2    3 2
   5    2   26 1
   6    3    4 1
   7    3   12 1
   8    4    5 1
   9    4    6 1
  10    5   27 1
  11    6    7 ar
  12    6    8 ar
  13    7   11 ar
  14    8    9 ar
  15    8   28 1
  16    9   10 ar
  17    9   29 1
  18   10   11 ar
  19   11   22 1
  20   12   13 am
  21   12   20 2
  22   12   21 2
  23   13   14 1
  24   13   30 1
  25   14   15 ar
  26   14   19 ar
  27   15   16 ar
  28   15   31 1
  29   16   17 ar
  30   16   32 1
  31   17   18 ar
  32   17   24 1
  33   18   19 ar
  34   18   23 1
  35   19   33 1

#	End of record

