#	Name: ASD03330386
#	Creating user name:	WinNT
#	Creation time:	15. 06. 2019 20:37

#	Modifying user name:	WinNT
#	Modification time:	15. 06. 2019 20:37

#	Program:	/corina/corina34_cracker 3.40 0067  02.08.2006

@<TRIPOS>MOLECULE
ASD03330386
  59   61    0    0    0
SMALL
NO_CHARGES


@<TRIPOS>ATOM
   1 C1            -0.4934     2.3889    -1.4387 C.3     
   2 N2            -0.4304     0.9611    -1.0913 N.am    
   3 C3             0.2465     0.0484    -2.0323 C.3     
   4 C4             1.5071     0.7419    -2.4874 C.2     
   5 N5             1.7900     2.0455    -2.2394 N.pl3   
   6 C6             0.9277     2.9611    -1.4886 C.3     
   7 C7             2.5453     0.2275    -3.1945 C.2     
   8 N8             3.4467     1.2186    -3.3774 N.2     
   9 C9             2.9987     2.3140    -2.8081 C.2     
  10 C10            3.6907     3.6216    -2.7882 C.ar    
  11 C11            4.7567     3.8633    -3.6552 C.ar    
  12 C12            2.6681    -1.1601    -3.6752 C.2     
  13 O13            1.7848    -1.9638    -3.4450 O.2     
  14 C14            3.8814    -2.9180    -4.8477 C.3     
  15 N15            3.7593    -1.5385    -4.3698 N.am    
  16 C16           -0.9744     0.5005     0.0526 C.2     
  17 O17           -0.9119    -0.6806     0.3212 O.2     
  18 C18            5.3975     5.0850    -3.6321 C.ar    
  19 C19            4.9850     6.0692    -2.7517 C.ar    
  20 C20            3.9286     5.8358    -1.8895 C.ar    
  21 C21            3.2762     4.6202    -1.9065 C.ar    
  22 C22            4.7921    -2.9552    -6.0478 C.2     
  23 C23           -1.6601     1.4529     0.9979 C.3     
  24 N24            4.6487    -3.9248    -6.9728 N.am    
  25 C25            4.4658    -3.7927    -3.7367 C.3     
  26 C26            5.7893    -3.1926    -3.2580 C.3     
  27 C27            3.4819    -3.8563    -2.5668 C.3     
  28 C28            4.7107    -5.2041    -4.2743 C.3     
  29 O29            5.6542    -2.1126    -6.1812 O.2     
  30 C30            5.4593    -3.8990    -8.1928 C.3     
  31 H31           -0.9671     2.5056    -2.4135 H       
  32 H32           -1.0739     2.9215    -0.6854 H       
  33 H33            0.4966    -0.8859    -1.5295 H       
  34 H34           -0.3990    -0.1496    -2.8880 H       
  35 H35            0.9117     3.9330    -1.9817 H       
  36 H36            1.3110     3.0728    -0.4743 H       
  37 H37            5.0798     3.0956    -4.3427 H       
  38 H38            2.8972    -3.2944    -5.1266 H       
  39 H39            4.4638    -0.8975    -4.5534 H       
  40 H40            6.2231     5.2732    -4.3025 H       
  41 H41            5.4901     7.0237    -2.7373 H       
  42 H42            3.6113     6.6082    -1.2045 H       
  43 H43            2.4516     4.4391    -1.2329 H       
  44 H44           -2.7164     1.5247     0.7386 H       
  45 H45           -1.5609     1.0855     2.0193 H       
  46 H46           -1.1991     2.4375     0.9196 H       
  47 H47            4.0087    -4.6398    -6.8308 H       
  48 H48            5.6148    -2.1871    -2.8750 H       
  49 H49            6.2056    -3.8157    -2.4665 H       
  50 H50            6.4903    -3.1473    -4.0914 H       
  51 H51            2.5390    -4.2838    -2.9078 H       
  52 H52            3.8982    -4.4794    -1.7753 H       
  53 H53            3.3074    -2.8508    -2.1837 H       
  54 H54            5.4858    -5.1718    -5.0400 H       
  55 H55            5.0318    -5.8527    -3.4593 H       
  56 H56            3.7889    -5.5932    -4.7067 H       
  57 H57            5.2057    -4.7568    -8.8158 H       
  58 H58            5.2595    -2.9791    -8.7424 H       
  59 H59            6.5158    -3.9419    -7.9281 H       
@<TRIPOS>BOND
   1    1    2 1
   2    1    6 1
   3    1   31 1
   4    1   32 1
   5    2    3 1
   6    2   16 am
   7    3    4 1
   8    3   33 1
   9    3   34 1
  10    4    5 1
  11    4    7 2
  12    5    6 1
  13    5    9 1
  14    6   35 1
  15    6   36 1
  16    7    8 1
  17    7   12 1
  18    8    9 2
  19    9   10 1
  20   10   11 ar
  21   10   21 ar
  22   11   18 ar
  23   11   37 1
  24   12   13 2
  25   12   15 am
  26   14   22 1
  27   14   15 1
  28   14   25 1
  29   14   38 1
  30   15   39 1
  31   16   17 2
  32   16   23 1
  33   18   19 ar
  34   18   40 1
  35   19   20 ar
  36   19   41 1
  37   20   21 ar
  38   20   42 1
  39   21   43 1
  40   22   24 am
  41   22   29 2
  42   23   44 1
  43   23   45 1
  44   23   46 1
  45   24   30 1
  46   24   47 1
  47   25   26 1
  48   25   27 1
  49   25   28 1
  50   26   48 1
  51   26   49 1
  52   26   50 1
  53   27   51 1
  54   27   52 1
  55   27   53 1
  56   28   54 1
  57   28   55 1
  58   28   56 1
  59   30   57 1
  60   30   58 1
  61   30   59 1

#	End of record

