#	Name: ASD01200401
#	Creating user name:	WinNT
#	Creation time:	15. 06. 2019 19:09

#	Modifying user name:	WinNT
#	Modification time:	15. 06. 2019 19:09

#	Program:	/corina/corina34_cracker 3.40 0067  02.08.2006

@<TRIPOS>MOLECULE
ASD01200401
  65   68    0    0    0
SMALL
NO_CHARGES


@<TRIPOS>ATOM
   1 C1             0.3156     1.4666     1.3569 C.2     
   2 C2             0.2896    -0.0257     1.1485 C.3     
   3 C3             1.7230    -0.5521     1.0515 C.3     
   4 O4             1.3721     2.0493     1.4212 O.2     
   5 O5            -0.8350     2.1492     1.4654 O.3     
   6 C6             2.8530    -2.6875     0.7343 C.2     
   7 C7             2.8275    -4.1515     0.5299 C.ar    
   8 C8             4.0221    -4.8635     0.4108 C.ar    
   9 C9             3.9913    -6.2295     0.2206 C.ar    
  10 C10            2.7798    -6.8937     0.1474 C.ar    
  11 C11            1.5920    -6.1939     0.2646 C.ar    
  12 C12            1.6088    -4.8285     0.4608 C.ar    
  13 O13            3.9158    -2.1013     0.7991 O.2     
  14 N14            1.6977    -2.0028     0.8489 N.am    
  15 C15            2.7538    -8.3860    -0.0615 C.3     
  16 C16            2.5177    -9.0846     1.2791 C.3     
  17 C17            2.4467   -10.6080     1.0743 C.3     
  18 C18            3.5937   -11.2184     1.9059 C.3     
  19 C19            3.8794   -10.1560     2.9962 C.3     
  20 C20            3.7054    -8.8224     2.2280 C.3     
  21 N21            1.6732    -8.7305    -0.9887 N.pl3   
  22 C22            3.1041    -8.2307    -2.8734 C.ar    
  23 C23            1.9000    -8.7024    -2.3683 C.ar    
  24 C24            0.9207    -9.1480    -3.2538 C.ar    
  25 C25            1.1893    -9.1021    -4.6104 C.ar    
  26 C26            2.4173    -8.6170    -5.0418 C.ar    
  27 N27            3.3247    -8.2023    -4.1729 N.ar    
  28 N28            2.6982    -8.5667    -6.4119 N.pl3   
  29 N29            1.8418    -8.9681    -7.4454 N.2     
  30 C30            2.4537    -8.7708    -8.5851 C.2     
  31 C31            3.7202    -8.2371    -8.3194 C.2     
  32 C32            3.8481    -8.1142    -6.9774 C.2     
  33 C33            1.8906    -9.0674    -9.9512 C.3     
  34 Cl34           4.9141    -7.8034    -9.5028 Cl      
  35 C35           -0.7341     3.5839     1.6649 C.3     
  36 H36           -0.2160    -0.5012     1.9889 H       
  37 H37           -0.2446    -0.2545     0.2263 H       
  38 H38            2.2286    -0.0766     0.2111 H       
  39 H39            2.2572    -0.3233     1.9736 H       
  40 H40            4.9684    -4.3461     0.4671 H       
  41 H41            4.9149    -6.7817     0.1284 H       
  42 H42            0.6496    -6.7183     0.2066 H       
  43 H43            0.6811    -4.2840     0.5566 H       
  44 H44            0.8495    -2.4706     0.7972 H       
  45 H45            3.7072    -8.7112    -0.4778 H       
  46 H46            1.5926    -8.7248     1.7294 H       
  47 H47            1.4874   -10.9877     1.4260 H       
  48 H48            2.5804   -10.8496     0.0198 H       
  49 H49            3.2773   -12.1568     2.3612 H       
  50 H50            4.4753   -11.3732     1.2839 H       
  51 H51            3.1559   -10.2314     3.8080 H       
  52 H52            4.8971   -10.2543     3.3741 H       
  53 H53            4.6051    -8.5903     1.6580 H       
  54 H54            3.4705    -8.0123     2.9184 H       
  55 H55            0.8003    -8.9782    -0.6457 H       
  56 H56            3.8670    -7.8792    -2.1945 H       
  57 H57           -0.0254    -9.5207    -2.8898 H       
  58 H58            0.4533    -9.4397    -5.3251 H       
  59 H59            4.7090    -7.7287    -6.4514 H       
  60 H60            1.3647    -8.1893   -10.3259 H       
  61 H61            2.7031    -9.3221   -10.6316 H       
  62 H62            1.1967    -9.9053    -9.8840 H       
  63 H63           -0.1862     3.7850     2.5855 H       
  64 H64           -0.2063     4.0316     0.8228 H       
  65 H65           -1.7339     4.0121     1.7362 H       
@<TRIPOS>BOND
   1    1    2 1
   2    1    4 2
   3    1    5 1
   4    2    3 1
   5    2   36 1
   6    2   37 1
   7    3   14 1
   8    3   38 1
   9    3   39 1
  10    5   35 1
  11    6    7 1
  12    6   13 2
  13    6   14 am
  14    7    8 ar
  15    7   12 ar
  16    8    9 ar
  17    8   40 1
  18    9   10 ar
  19    9   41 1
  20   10   11 ar
  21   10   15 1
  22   11   12 ar
  23   11   42 1
  24   12   43 1
  25   14   44 1
  26   15   16 1
  27   15   21 1
  28   15   45 1
  29   16   17 1
  30   16   20 1
  31   16   46 1
  32   17   18 1
  33   17   47 1
  34   17   48 1
  35   18   19 1
  36   18   49 1
  37   18   50 1
  38   19   20 1
  39   19   51 1
  40   19   52 1
  41   20   53 1
  42   20   54 1
  43   21   23 1
  44   21   55 1
  45   22   23 ar
  46   22   27 ar
  47   22   56 1
  48   23   24 ar
  49   24   25 ar
  50   24   57 1
  51   25   26 ar
  52   25   58 1
  53   26   27 ar
  54   26   28 1
  55   28   29 1
  56   28   32 1
  57   29   30 2
  58   30   31 1
  59   30   33 1
  60   31   32 2
  61   31   34 1
  62   32   59 1
  63   33   60 1
  64   33   61 1
  65   33   62 1
  66   35   63 1
  67   35   64 1
  68   35   65 1

#	End of record

