#	Name: ASD01913542
#	Creating user name:	WinNT
#	Creation time:	15. 06. 2019 20:01

#	Modifying user name:	WinNT
#	Modification time:	15. 06. 2019 20:01

#	Program:	/corina/corina34_cracker 3.40 0067  02.08.2006

@<TRIPOS>MOLECULE
ASD01913542
  35   37    0    0    0
SMALL
NO_CHARGES


@<TRIPOS>ATOM
   1 C1             0.6166     0.4663     1.3085 C.ar    
   2 C2             0.1887    -0.0479     0.0887 C.ar    
   3 C3             0.9923     0.1160    -1.0307 C.ar    
   4 N4             2.1453     0.7488    -0.9441 N.ar    
   5 C5             2.5798     1.2479     0.1966 C.ar    
   6 C6             1.8351     1.1248     1.3545 C.ar    
   7 C7            -0.9749    -2.0548    -0.1106 C.ar    
   8 C8             0.2327    -2.7468    -0.1343 C.ar    
   9 C9             0.2203    -4.1264    -0.2370 C.ar    
  10 N10           -0.9138    -4.7897    -0.3122 N.ar    
  11 C11           -2.0890    -4.1707    -0.2931 C.ar    
  12 C12           -2.1580    -2.7853    -0.1918 C.ar    
  13 C13           -3.3375    -4.9633    -0.3805 C.2     
  14 N14           -3.2777    -6.3062    -0.4788 N.am    
  15 O15           -0.9989    -0.7018    -0.0051 O.3     
  16 C16           -4.4536    -7.0623    -0.4506 C.ar    
  17 O17           -4.4156    -4.4027    -0.3635 O.2     
  18 C18           -5.6147    -6.5646    -1.0276 C.ar    
  19 C19           -6.7757    -7.3141    -0.9983 C.ar    
  20 C20           -6.7820    -8.5592    -0.3943 C.ar    
  21 C21           -5.6265    -9.0573     0.1817 C.ar    
  22 C22           -4.4610    -8.3148     0.1494 C.ar    
  23 Cl23          -5.6390   -10.6192     0.9394 Cl      
  24 Cl24          -8.2275    -6.6927    -1.7193 Cl      
  25 H25            0.0120     0.3589     2.1969 H       
  26 H26            0.6697    -0.2792    -1.9827 H       
  27 H27            3.5303     1.7597     0.2265 H       
  28 H28            2.1985     1.5369     2.2842 H       
  29 H29            1.1693    -2.2125    -0.0736 H       
  30 H30            1.1550    -4.6670    -0.2561 H       
  31 H31           -3.1143    -2.2837    -0.1761 H       
  32 H32           -2.4189    -6.7481    -0.5691 H       
  33 H33           -5.6105    -5.5926    -1.4985 H       
  34 H34           -7.6903    -9.1430    -0.3723 H       
  35 H35           -3.5595    -8.7042     0.5989 H       
@<TRIPOS>BOND
   1    1    2 ar
   2    1    6 ar
   3    1   25 1
   4    2    3 ar
   5    2   15 1
   6    3    4 ar
   7    3   26 1
   8    4    5 ar
   9    5    6 ar
  10    5   27 1
  11    6   28 1
  12    7    8 ar
  13    7   12 ar
  14    7   15 1
  15    8    9 ar
  16    8   29 1
  17    9   10 ar
  18    9   30 1
  19   10   11 ar
  20   11   12 ar
  21   11   13 1
  22   12   31 1
  23   13   14 am
  24   13   17 2
  25   14   16 1
  26   14   32 1
  27   16   18 ar
  28   16   22 ar
  29   18   19 ar
  30   18   33 1
  31   19   20 ar
  32   19   24 1
  33   20   21 ar
  34   20   34 1
  35   21   22 ar
  36   21   23 1
  37   22   35 1

#	End of record

