#	Name: ASD06610097
#	Creating user name:	WinNT
#	Creation time:	15. 06. 2019 21:07

#	Modifying user name:	WinNT
#	Modification time:	15. 06. 2019 21:07

#	Program:	/corina/corina34_cracker 3.40 0067  02.08.2006

@<TRIPOS>MOLECULE
ASD06610097
 256  257    0    0    0
SMALL
NO_CHARGES


@<TRIPOS>ATOM
   1 C1            -0.3429     2.3917    -0.0092 C.2     
   2 O2            -0.2819     1.2259     0.3195 O.2     
   3 N3             2.0027     2.5536     0.6047 N.3     
   4 C4             0.9196     3.2032    -0.1455 C.3     
   5 C5             1.3078     3.2982    -1.6224 C.3     
   6 C6             2.5166     4.2238    -1.7735 C.3     
   7 C7             2.8990     4.3173    -3.2282 C.2     
   8 O8             2.2672     3.7043    -4.0616 O.2     
   9 N9             3.9434     5.0825    -3.6026 N.am    
  10 C10           -3.8407     2.7663    -1.0032 C.2     
  11 O11           -3.6048     3.7546    -1.6654 O.2     
  12 N12           -1.5394     2.9601    -0.2578 N.am    
  13 C13           -2.7663     2.1695    -0.1310 C.3     
  14 C14           -3.2299     2.1777     1.3270 C.3     
  15 C15           -2.0932     1.6882     2.2264 C.3     
  16 O16           -3.5961     3.5069     1.7029 O.3     
  17 C17           -7.4382     2.7009    -1.0869 C.2     
  18 O18           -7.4885     2.0705    -0.0521 O.2     
  19 N19           -5.0637     2.2017    -1.0472 N.am    
  20 C20           -6.1325     2.8293    -1.8283 C.3     
  21 C21           -6.2468     2.1345    -3.1867 C.3     
  22 C22           -6.3633     0.6233    -2.9783 C.3     
  23 C23           -7.7010     0.3024    -2.3087 C.3     
  24 C24           -5.0018     2.4397    -4.0220 C.3     
  25 C25          -10.9521     3.2696    -1.9189 C.2     
  26 O26          -10.6897     3.5744    -3.0631 O.2     
  27 N27           -8.5501     3.2866    -1.5739 N.am    
  28 C28           -9.8422     3.0625    -0.9209 C.3     
  29 C29          -10.0065     4.0493     0.2368 C.3     
  30 C30          -14.6445     3.0868    -1.8384 C.2     
  31 O31          -14.6863     2.7841    -0.6647 O.2     
  32 N32          -12.2364     3.1161    -1.5400 N.am    
  33 C33          -13.3154     3.3174    -2.5102 C.3     
  34 C34          -18.1008     2.5923    -2.9213 C.2     
  35 O35          -17.7813     2.5028    -4.0879 O.2     
  36 N36          -15.7868     3.2170    -2.5419 N.am    
  37 C37          -17.0788     2.9929    -1.8888 C.3     
  38 C38          -17.5307     4.2804    -1.1967 C.3     
  39 C39          -16.5731     4.6143    -0.0820 C.2     
  40 C40          -15.9120     5.7774     0.0716 C.2     
  41 N41          -15.1564     5.6566     1.2065 N.pl3   
  42 C42          -15.3823     4.4229     1.7074 C.2     
  43 N43          -16.2344     3.8071     0.9343 N.2     
  44 C44          -21.7421     2.2999    -3.0588 C.2     
  45 O45          -21.8811     2.8269    -1.9753 O.2     
  46 N46          -19.3698     2.3334    -2.5484 N.am    
  47 C47          -20.3633     1.9439    -3.5522 C.3     
  48 C48          -20.2813     0.4351    -3.7923 C.3     
  49 C49          -18.9452     0.0953    -4.4010 C.ar    
  50 C50          -17.8717    -0.2098    -3.5853 C.ar    
  51 C51          -16.6461    -0.5215    -4.1436 C.ar    
  52 C52          -16.4942    -0.5286    -5.5176 C.ar    
  53 C53          -17.5680    -0.2244    -6.3332 C.ar    
  54 C54          -18.7947     0.0831    -5.7750 C.ar    
  55 C55          -25.1778     1.4858    -4.0053 C.2     
  56 O56          -24.8184     0.6436    -4.8005 O.2     
  57 N57          -22.8206     2.0325    -3.8215 N.am    
  58 C58          -24.1609     2.3784    -3.3418 C.3     
  59 C59          -24.4638     3.8387    -3.6837 C.3     
  60 C60          -23.5093     4.7518    -2.9116 C.3     
  61 C61          -23.8122     6.2120    -3.2535 C.3     
  62 N62          -22.8983     7.0863    -2.5142 N.pl3   
  63 C63          -22.9821     8.4506    -2.6619 C.2     
  64 N64          -23.8746     8.9662    -3.4598 N.2     
  65 N65          -22.1244     9.2711    -1.9681 N.pl3   
  66 C66          -28.8139     1.4477    -4.3802 C.2     
  67 O67          -28.9307     2.5565    -3.9028 O.2     
  68 N68          -26.4867     1.6235    -3.7150 N.am    
  69 C69          -27.4753     0.7558    -4.3600 C.3     
  70 C70          -27.5903    -0.5548    -3.5789 C.3     
  71 C71          -26.2664    -1.3169    -3.6636 C.3     
  72 C72          -26.3814    -2.6274    -2.8825 C.3     
  73 C73          -25.0574    -3.3895    -2.9672 C.3     
  74 N74          -25.1679    -4.6478    -2.2173 N.3     
  75 C75          -32.2799     0.4764    -5.0179 C.2     
  76 O76          -32.0022    -0.7039    -5.0481 O.2     
  77 N77          -29.8813     0.8344    -4.9287 N.am    
  78 C78          -31.1826     1.5070    -4.9483 C.3     
  79 C79          -31.2649     2.4229    -6.1712 C.3     
  80 C80          -30.2319     3.5437    -6.0394 C.3     
  81 C81          -30.3130     4.4458    -7.2438 C.2     
  82 O82          -31.1147     4.2159    -8.1180 O.2     
  83 O83          -29.4944     5.5048    -7.3455 O.3     
  84 C84          -34.8718    -0.5227    -6.5515 C.2     
  85 O85          -34.2134    -0.0118    -7.4326 O.2     
  86 N86          -33.5697     0.8661    -5.0465 N.am    
  87 C87          -34.6364    -0.1358    -5.1142 C.3     
  88 C88          -35.9225     0.4480    -4.5260 C.3     
  89 C89          -35.7214     0.7251    -3.0348 C.3     
  90 C90          -37.0075     1.3089    -2.4466 C.3     
  91 N91          -36.8150     1.5742    -1.0187 N.pl3   
  92 C92          -37.8415     2.1043    -0.2735 C.2     
  93 N93          -38.9861     2.3708    -0.8374 N.2     
  94 N94          -37.6609     2.3533     1.0665 N.pl3   
  95 C95          -36.9939    -0.8312    -8.8901 C.2     
  96 O96          -37.4354     0.0880    -8.2420 O.2     
  97 N97          -35.8139    -1.4365    -6.8578 N.am    
  98 C98          -36.0428    -1.8126    -8.2551 C.3     
  99 C99          -36.6457    -3.2176    -8.3129 C.3     
 100 C100         -36.7690    -3.6600    -9.7723 C.3     
 101 C101         -37.2545    -5.1099    -9.8264 C.3     
 102 C102         -38.0317    -3.2048    -7.6649 C.3     
 103 O103         -37.3507    -0.9784   -10.1757 O.3     
 104 C104           4.2853     5.1661    -4.9036 C.2     
 105 O105           3.6535     4.5531    -5.7370 O.2     
 106 C106          14.9595    11.5428   -18.9246 C.3     
 107 C107          13.7739    10.6742   -18.4996 C.3     
 108 C108          13.6015    10.7541   -16.9814 C.3     
 109 C109          12.4159     9.8854   -16.5564 C.3     
 110 C110          12.2434     9.9654   -15.0382 C.3     
 111 C111          11.0578     9.0967   -14.6132 C.3     
 112 C112          10.8854     9.1766   -13.0950 C.3     
 113 C113           9.6997     8.3080   -12.6700 C.3     
 114 C114           9.5273     8.3879   -11.1519 C.3     
 115 C115           8.3417     7.5193   -10.7268 C.3     
 116 C116           8.1692     7.5992    -9.2087 C.3     
 117 C117           6.9836     6.7305    -8.7836 C.3     
 118 C118           6.8112     6.8105    -7.2655 C.3     
 119 C119           5.6256     5.9418    -6.8404 C.3     
 120 C120           5.4531     6.0217    -5.3223 C.3     
 121 H121           2.1769     1.6231     0.2555 H       
 122 H122           2.8432     3.1114     0.5823 H       
 123 H123           0.7526     4.2046     0.2513 H       
 124 H124           1.5610     2.3060    -1.9961 H       
 125 H125           0.4700     3.6985    -2.1933 H       
 126 H126           2.2635     5.2160    -1.3999 H       
 127 H127           3.3544     3.8234    -1.2027 H       
 128 H128           4.4490     5.5730    -2.9358 H       
 129 H129          -1.5882     3.8925    -0.5206 H       
 130 H130          -2.5717     1.1439    -0.4447 H       
 131 H131          -4.0908     1.5185     1.4382 H       
 132 H132          -1.2323     2.3474     2.1152 H       
 133 H133          -2.4235     1.6940     3.2652 H       
 134 H134          -1.8139     0.6744     1.9397 H       
 135 H135          -2.8768     4.1489     1.6286 H       
 136 H136          -5.2363     1.3798    -0.5618 H       
 137 H137          -5.9018     3.8840    -1.9779 H       
 138 H138          -7.1322     2.4988    -3.7077 H       
 139 H139          -6.3094     0.1183    -3.9428 H       
 140 H140          -5.5472     0.2802    -2.3425 H       
 141 H141          -7.9085    -0.7635    -2.4037 H       
 142 H142          -7.6526     0.5704    -1.2533 H       
 143 H143          -8.4951     0.8716    -2.7920 H       
 144 H144          -4.1305     1.9783    -3.5574 H       
 145 H145          -5.1320     2.0397    -5.0276 H       
 146 H146          -4.8562     3.5186    -4.0762 H       
 147 H147          -8.4948     3.8566    -2.3569 H       
 148 H148          -9.8836     2.0428    -0.5378 H       
 149 H149         -10.9678     3.8825     0.7227 H       
 150 H150          -9.2036     3.8995     0.9587 H       
 151 H151          -9.9650     5.0689    -0.1463 H       
 152 H152         -12.4462     2.8722    -0.6249 H       
 153 H153         -13.1984     2.6144    -3.3349 H       
 154 H154         -13.2740     4.3370    -2.8933 H       
 155 H155         -15.7533     3.4591    -3.4806 H       
 156 H156         -16.9791     2.1985    -1.1490 H       
 157 H157         -17.5449     5.0959    -1.9199 H       
 158 H158         -18.5310     4.1408    -0.7869 H       
 159 H159         -15.9670     6.6396    -0.5764 H       
 160 H160         -14.5685     6.3311     1.5811 H       
 161 H161         -14.9350     4.0151     2.6018 H       
 162 H162         -19.6253     2.4049    -1.6154 H       
 163 H163         -20.1637     2.4717    -4.4848 H       
 164 H164         -20.3927    -0.0903    -2.8438 H       
 165 H165         -21.0778     0.1315    -4.4716 H       
 166 H166         -17.9903    -0.2043    -2.5119 H       
 167 H167         -15.8072    -0.7592    -3.5064 H       
 168 H168         -15.5365    -0.7715    -5.9538 H       
 169 H169         -17.4493    -0.2296    -7.4067 H       
 170 H170         -19.6346     0.3171    -6.4124 H       
 171 H171         -22.7094     1.6109    -4.6880 H       
 172 H172         -24.2069     2.2412    -2.2615 H       
 173 H173         -24.3311     3.9963    -4.7541 H       
 174 H174         -25.4922     4.0709    -3.4070 H       
 175 H175         -23.6420     4.5942    -1.8412 H       
 176 H176         -22.4809     4.5196    -3.1883 H       
 177 H177         -23.6795     6.3696    -4.3239 H       
 178 H178         -24.8406     6.4442    -2.9768 H       
 179 H179         -22.2341     6.7027    -1.9204 H       
 180 H180         -23.9336     9.9288    -3.5640 H       
 181 H181         -21.4602     8.8874    -1.3743 H       
 182 H182         -22.1835    10.2337    -2.0723 H       
 183 H183         -26.7742     2.2971    -3.0790 H       
 184 H184         -27.1606     0.5434    -5.3818 H       
 185 H185         -27.8182    -0.3371    -2.5355 H       
 186 H186         -28.3877    -1.1632    -4.0056 H       
 187 H187         -26.0385    -1.5346    -4.7071 H       
 188 H188         -25.4690    -0.7084    -3.2369 H       
 189 H189         -26.6092    -2.4097    -1.8391 H       
 190 H190         -27.1788    -3.2359    -3.3092 H       
 191 H191         -24.8296    -3.6072    -4.0107 H       
 192 H192         -24.2600    -2.7811    -2.5405 H       
 193 H193         -25.9420    -5.2016    -2.5522 H       
 194 H194         -24.3054    -5.1699    -2.2580 H       
 195 H195         -29.7879    -0.0524    -5.3106 H       
 196 H196         -31.2986     2.1005    -4.0415 H       
 197 H197         -31.0609     1.8448    -7.0725 H       
 198 H198         -32.2636     2.8549    -6.2350 H       
 199 H199         -30.4360     4.1218    -5.1381 H       
 200 H200         -29.2332     3.1117    -5.9756 H       
 201 H201         -29.5836     6.0542    -8.1362 H       
 202 H202         -33.7918     1.8101    -5.0224 H       
 203 H203         -34.3435    -1.0174    -4.5439 H       
 204 H204         -36.1669     1.3783    -5.0387 H       
 205 H205         -36.7376    -0.2639    -4.6566 H       
 206 H206         -35.4770    -0.2052    -2.5220 H       
 207 H207         -34.9063     1.4369    -2.9042 H       
 208 H208         -37.2520     2.2392    -2.9593 H       
 209 H209         -37.8226     0.5970    -2.5771 H       
 210 H210         -35.9632     1.3759    -0.5991 H       
 211 H211         -39.7103     2.7449    -0.3116 H       
 212 H212         -36.8091     2.1550     1.4861 H       
 213 H213         -38.3851     2.7274     1.5922 H       
 214 H214         -36.3405    -1.8451    -6.1531 H       
 215 H215         -35.0955    -1.8013    -8.7942 H       
 216 H216         -36.0000    -3.9124    -7.7759 H       
 217 H217         -37.4837    -3.0181   -10.2874 H       
 218 H218         -35.7964    -3.5841   -10.2584 H       
 219 H219         -36.5398    -5.7518    -9.3113 H       
 220 H220         -38.2272    -5.1858    -9.3403 H       
 221 H221         -37.3424    -5.4251   -10.8661 H       
 222 H222         -38.6774    -2.5100    -8.2019 H       
 223 H223         -38.4612    -4.2058    -7.7061 H       
 224 H224         -37.9438    -2.8896    -6.6252 H       
 225 H225         -37.9631    -0.3241   -10.5390 H       
 226 H226          14.7749    12.5770   -18.6339 H       
 227 H227          15.8659    11.1844   -18.4366 H       
 228 H228          15.0824    11.4859   -20.0062 H       
 229 H229          12.8675    11.0325   -18.9876 H       
 230 H230          13.9585     9.6400   -18.7903 H       
 231 H231          14.5079    10.3957   -16.4934 H       
 232 H232          13.4169    11.7882   -16.6907 H       
 233 H233          11.5095    10.2438   -17.0444 H       
 234 H234          12.6004     8.8513   -16.8471 H       
 235 H235          13.1498     9.6070   -14.5502 H       
 236 H236          12.0588    10.9995   -14.7475 H       
 237 H237          10.1514     9.4551   -15.1012 H       
 238 H238          11.2424     8.0625   -14.9040 H       
 239 H239          11.7917     8.8183   -12.6071 H       
 240 H240          10.7008    10.2108   -12.8043 H       
 241 H241           8.7934     8.6664   -13.1580 H       
 242 H242           9.8843     7.2738   -12.9608 H       
 243 H243          10.4337     8.0295   -10.6639 H       
 244 H244           9.3427     9.4221   -10.8611 H       
 245 H245           7.4353     7.8776   -11.2148 H       
 246 H246           8.5263     6.4851   -11.0176 H       
 247 H247           9.0756     7.2408    -8.7207 H       
 248 H248           7.9847     8.6333    -8.9179 H       
 249 H249           6.0772     7.0889    -9.2716 H       
 250 H250           7.1682     5.6964    -9.0744 H       
 251 H251           7.7176     6.4521    -6.7775 H       
 252 H252           6.6266     7.8446    -6.9747 H       
 253 H253           4.7192     6.3002    -7.3284 H       
 254 H254           5.8102     4.9076    -7.1312 H       
 255 H255           5.2686     7.0559    -5.0315 H       
 256 H256           6.3595     5.6634    -4.8343 H       
@<TRIPOS>BOND
   1    1    2 2
   2    1    4 1
   3    1   12 am
   4    3    4 1
   5    3  121 1
   6    3  122 1
   7    4    5 1
   8    4  123 1
   9    5    6 1
  10    5  124 1
  11    5  125 1
  12    6    7 1
  13    6  126 1
  14    6  127 1
  15    7    8 2
  16    7    9 am
  17    9  104 am
  18    9  128 1
  19   10   11 2
  20   10   13 1
  21   10   19 am
  22   12   13 1
  23   12  129 1
  24   13   14 1
  25   13  130 1
  26   14   15 1
  27   14   16 1
  28   14  131 1
  29   15  132 1
  30   15  133 1
  31   15  134 1
  32   16  135 1
  33   17   18 2
  34   17   20 1
  35   17   27 am
  36   19   20 1
  37   19  136 1
  38   20   21 1
  39   20  137 1
  40   21   22 1
  41   21   24 1
  42   21  138 1
  43   22   23 1
  44   22  139 1
  45   22  140 1
  46   23  141 1
  47   23  142 1
  48   23  143 1
  49   24  144 1
  50   24  145 1
  51   24  146 1
  52   25   26 2
  53   25   28 1
  54   25   32 am
  55   27   28 1
  56   27  147 1
  57   28   29 1
  58   28  148 1
  59   29  149 1
  60   29  150 1
  61   29  151 1
  62   30   31 2
  63   30   33 1
  64   30   36 am
  65   32   33 1
  66   32  152 1
  67   33  153 1
  68   33  154 1
  69   34   35 2
  70   34   37 1
  71   34   46 am
  72   36   37 1
  73   36  155 1
  74   37   38 1
  75   37  156 1
  76   38   39 1
  77   38  157 1
  78   38  158 1
  79   39   40 2
  80   39   43 1
  81   40   41 1
  82   40  159 1
  83   41   42 1
  84   41  160 1
  85   42   43 2
  86   42  161 1
  87   44   45 2
  88   44   47 1
  89   44   57 am
  90   46   47 1
  91   46  162 1
  92   47   48 1
  93   47  163 1
  94   48   49 1
  95   48  164 1
  96   48  165 1
  97   49   50 ar
  98   49   54 ar
  99   50   51 ar
 100   50  166 1
 101   51   52 ar
 102   51  167 1
 103   52   53 ar
 104   52  168 1
 105   53   54 ar
 106   53  169 1
 107   54  170 1
 108   55   56 2
 109   55   58 1
 110   55   68 am
 111   57   58 1
 112   57  171 1
 113   58   59 1
 114   58  172 1
 115   59   60 1
 116   59  173 1
 117   59  174 1
 118   60   61 1
 119   60  175 1
 120   60  176 1
 121   61   62 1
 122   61  177 1
 123   61  178 1
 124   62   63 1
 125   62  179 1
 126   63   64 2
 127   63   65 1
 128   64  180 1
 129   65  181 1
 130   65  182 1
 131   66   67 2
 132   66   69 1
 133   66   77 am
 134   68   69 1
 135   68  183 1
 136   69   70 1
 137   69  184 1
 138   70   71 1
 139   70  185 1
 140   70  186 1
 141   71   72 1
 142   71  187 1
 143   71  188 1
 144   72   73 1
 145   72  189 1
 146   72  190 1
 147   73   74 1
 148   73  191 1
 149   73  192 1
 150   74  193 1
 151   74  194 1
 152   75   76 2
 153   75   78 1
 154   75   86 am
 155   77   78 1
 156   77  195 1
 157   78   79 1
 158   78  196 1
 159   79   80 1
 160   79  197 1
 161   79  198 1
 162   80   81 1
 163   80  199 1
 164   80  200 1
 165   81   82 2
 166   81   83 1
 167   83  201 1
 168   84   85 2
 169   84   87 1
 170   84   97 am
 171   86   87 1
 172   86  202 1
 173   87   88 1
 174   87  203 1
 175   88   89 1
 176   88  204 1
 177   88  205 1
 178   89   90 1
 179   89  206 1
 180   89  207 1
 181   90   91 1
 182   90  208 1
 183   90  209 1
 184   91   92 1
 185   91  210 1
 186   92   93 2
 187   92   94 1
 188   93  211 1
 189   94  212 1
 190   94  213 1
 191   95   96 2
 192   95   98 1
 193   95  103 1
 194   97   98 1
 195   97  214 1
 196   98   99 1
 197   98  215 1
 198   99  100 1
 199   99  102 1
 200   99  216 1
 201  100  101 1
 202  100  217 1
 203  100  218 1
 204  101  219 1
 205  101  220 1
 206  101  221 1
 207  102  222 1
 208  102  223 1
 209  102  224 1
 210  103  225 1
 211  104  105 2
 212  104  120 1
 213  106  107 1
 214  106  226 1
 215  106  227 1
 216  106  228 1
 217  107  108 1
 218  107  229 1
 219  107  230 1
 220  108  109 1
 221  108  231 1
 222  108  232 1
 223  109  110 1
 224  109  233 1
 225  109  234 1
 226  110  111 1
 227  110  235 1
 228  110  236 1
 229  111  112 1
 230  111  237 1
 231  111  238 1
 232  112  113 1
 233  112  239 1
 234  112  240 1
 235  113  114 1
 236  113  241 1
 237  113  242 1
 238  114  115 1
 239  114  243 1
 240  114  244 1
 241  115  116 1
 242  115  245 1
 243  115  246 1
 244  116  117 1
 245  116  247 1
 246  116  248 1
 247  117  118 1
 248  117  249 1
 249  117  250 1
 250  118  119 1
 251  118  251 1
 252  118  252 1
 253  119  120 1
 254  119  253 1
 255  119  254 1
 256  120  255 1
 257  120  256 1

#	End of record

