#	Name: ASD08151177
#	Creating user name:	WinNT
#	Creation time:	15. 06. 2019 21:17

#	Modifying user name:	WinNT
#	Modification time:	15. 06. 2019 21:17

#	Program:	/corina/corina34_cracker 3.40 0067  02.08.2006

@<TRIPOS>MOLECULE
ASD08151177
  35   37    0    0    0
SMALL
NO_CHARGES


@<TRIPOS>ATOM
   1 C1            -0.0187     1.5258     0.0104 C.3     
   2 C2             0.0021    -0.0041     0.0020 C.3     
   3 N3             4.1762     2.6209     2.2804 N.ar    
   4 C4             5.4069     3.0745     2.2735 C.ar    
   5 C5             6.0133     3.5276     1.1045 C.ar    
   6 C6             5.3228     3.5055    -0.0740 C.ar    
   7 C7             4.0025     3.0174    -0.0613 C.ar    
   8 C8             3.2325     2.9649    -1.2358 C.ar    
   9 C9             1.9553     2.4883    -1.1931 C.ar    
  10 C10            1.3951     2.0474    -0.0003 C.ar    
  11 C11            2.1200     2.0821     1.1779 C.ar    
  12 C12            3.4478     2.5729     1.1633 C.ar    
  13 C13            1.5118     1.6103     2.4434 C.ar    
  14 C14            0.8143     2.5021     3.2618 C.ar    
  15 C15            0.2492     2.0545     4.4409 C.ar    
  16 C16            0.3736     0.7272     4.8099 C.ar    
  17 C17            1.0633    -0.1598     4.0028 C.ar    
  18 C18            1.6279     0.2731     2.8202 C.ar    
  19 F19            0.6930     3.7986     2.9019 F       
  20 Cl20           3.9060     3.5095    -2.7404 Cl      
  21 N21           -0.7292     2.0124    -1.1797 N.3     
  22 H22           -0.5289     1.8773     0.9072 H       
  23 H23            0.5293    -0.3651     0.8851 H       
  24 H24           -1.0205    -0.3814     0.0098 H       
  25 H25            0.5123    -0.3556    -0.8948 H       
  26 H26            5.9643     3.0975     3.1983 H       
  27 H27            7.0282     3.8962     1.1297 H       
  28 H28            5.7771     3.8533    -0.9900 H       
  29 H29            1.3707     2.4518    -2.1005 H       
  30 H30           -0.2902     2.7421     5.0754 H       
  31 H31           -0.0694     0.3819     5.7323 H       
  32 H32            1.1566    -1.1947     4.2970 H       
  33 H33            2.1621    -0.4221     2.1896 H       
  34 H34           -0.8128     3.0178    -1.1650 H       
  35 H35           -0.2753     1.6996    -2.0248 H       
@<TRIPOS>BOND
   1    1    2 1
   2    1   10 1
   3    1   21 1
   4    1   22 1
   5    2   23 1
   6    2   24 1
   7    2   25 1
   8    3    4 ar
   9    3   12 ar
  10    4    5 ar
  11    4   26 1
  12    5    6 ar
  13    5   27 1
  14    6    7 ar
  15    6   28 1
  16    7    8 ar
  17    7   12 ar
  18    8    9 ar
  19    8   20 1
  20    9   10 ar
  21    9   29 1
  22   10   11 ar
  23   11   12 ar
  24   11   13 1
  25   13   14 ar
  26   13   18 ar
  27   14   15 ar
  28   14   19 1
  29   15   16 ar
  30   15   30 1
  31   16   17 ar
  32   16   31 1
  33   17   18 ar
  34   17   32 1
  35   18   33 1
  36   21   34 1
  37   21   35 1

#	End of record

