#	Name: ASD00191022
#	Creating user name:	WinNT
#	Creation time:	15. 06. 2019 18:33

#	Modifying user name:	WinNT
#	Modification time:	15. 06. 2019 18:33

#	Program:	/corina/corina34_cracker 3.40 0067  02.08.2006

@<TRIPOS>MOLECULE
ASD00191022
  48   52    0    0    0
SMALL
NO_CHARGES


@<TRIPOS>ATOM
   1 C1             0.1063     1.4392    -1.0835 C.ar    
   2 C2             0.1437     0.0888    -1.2647 C.ar    
   3 C3             1.3212    -0.6271    -1.0762 C.ar    
   4 C4             2.4705     0.0073    -0.7042 C.ar    
   5 C5             2.4655     1.3923    -0.5100 C.ar    
   6 C6             1.2689     2.1252    -0.7008 C.ar    
   7 C7             3.6650     2.1168    -0.1134 C.ar    
   8 C8             3.5682     3.5013     0.0576 C.ar    
   9 C9             2.3225     4.1325    -0.1595 C.ar    
  10 N10            1.2561     3.4538    -0.5170 N.ar    
  11 N11            4.9629     1.7820     0.1578 N.pl3   
  12 C12            5.6188     2.9302     0.4803 C.2     
  13 N13            4.7974     3.9391     0.4207 N.2     
  14 C14            7.0768     3.0206     0.8506 C.3     
  15 C15            7.2425     2.7322     2.3440 C.3     
  16 C16            8.7228     2.8239     2.7200 C.3     
  17 C17            9.5189     1.7979     1.9111 C.3     
  18 C18            9.3533     2.0863     0.4177 C.3     
  19 C19            7.8730     1.9946     0.0417 C.3     
  20 N20            2.2232     5.5039     0.0096 N.pl3   
  21 C21            0.9762     6.1313    -0.0806 C.ar    
  22 C22            0.8809     7.4211    -0.5896 C.ar    
  23 C23           -0.3528     8.0380    -0.6778 C.ar    
  24 C24           -1.4917     7.3724    -0.2600 C.ar    
  25 C25           -1.3991     6.0880     0.2471 C.ar    
  26 C26           -0.1697     5.4645     0.3328 C.ar    
  27 Cl27           2.3097     8.2566    -1.1133 Cl      
  28 Cl28          -3.0397     8.1502    -0.3716 Cl      
  29 H29           -0.8153     1.9806    -1.2383 H       
  30 H30           -0.7548    -0.4333    -1.5589 H       
  31 H31            1.3258    -1.6967    -1.2256 H       
  32 H32            3.3796    -0.5575    -0.5599 H       
  33 H33            5.3452     0.8910     0.1265 H       
  34 H34            7.4462     4.0223     0.6308 H       
  35 H35            6.6753     3.4632     2.9203 H       
  36 H36            6.8732     1.7305     2.5638 H       
  37 H37            9.0921     3.8256     2.5002 H       
  38 H38            8.8408     2.6185     3.7840 H       
  39 H39           10.5735     1.8633     2.1790 H       
  40 H40            9.1496     0.7962     2.1309 H       
  41 H41            9.7226     3.0880     0.1979 H       
  42 H42            9.9205     1.3553    -0.1586 H       
  43 H43            7.5037     0.9929     0.2615 H       
  44 H44            7.7550     2.2000    -1.0222 H       
  45 H45            3.0184     6.0291     0.1906 H       
  46 H46           -0.4279     9.0403    -1.0728 H       
  47 H47           -2.2898     5.5711     0.5724 H       
  48 H48           -0.0985     4.4622     0.7287 H       
@<TRIPOS>BOND
   1    1    2 ar
   2    1    6 ar
   3    1   29 1
   4    2    3 ar
   5    2   30 1
   6    3    4 ar
   7    3   31 1
   8    4    5 ar
   9    4   32 1
  10    5    6 ar
  11    5    7 ar
  12    6   10 ar
  13    7    8 ar
  14    7   11 1
  15    8    9 ar
  16    8   13 1
  17    9   10 ar
  18    9   20 1
  19   11   12 1
  20   11   33 1
  21   12   13 2
  22   12   14 1
  23   14   15 1
  24   14   19 1
  25   14   34 1
  26   15   16 1
  27   15   35 1
  28   15   36 1
  29   16   17 1
  30   16   37 1
  31   16   38 1
  32   17   18 1
  33   17   39 1
  34   17   40 1
  35   18   19 1
  36   18   41 1
  37   18   42 1
  38   19   43 1
  39   19   44 1
  40   20   21 1
  41   20   45 1
  42   21   22 ar
  43   21   26 ar
  44   22   23 ar
  45   22   27 1
  46   23   24 ar
  47   23   46 1
  48   24   25 ar
  49   24   28 1
  50   25   26 ar
  51   25   47 1
  52   26   48 1

#	End of record

