#	Name: ASD01812969
#	Creating user name:	WinNT
#	Creation time:	15. 06. 2019 19:29

#	Modifying user name:	WinNT
#	Modification time:	15. 06. 2019 19:29

#	Program:	/corina/corina34_cracker 3.40 0067  02.08.2006

@<TRIPOS>MOLECULE
ASD01812969
  51   55    0    0    0
SMALL
NO_CHARGES


@<TRIPOS>ATOM
   1 C1            -0.0166     1.3764     0.0096 C.ar    
   2 C2             0.0021    -0.0041     0.0020 C.ar    
   3 C3             1.2089    -0.6872    -0.0127 C.ar    
   4 C4             2.3941     0.0075    -0.0203 C.ar    
   5 C5             2.3941     1.4057    -0.0132 C.ar    
   6 C6             1.1719     2.0915     0.0021 C.ar    
   7 C7             3.8413    -0.4177    -0.0364 C.3     
   8 N8             4.6313     0.8189    -0.0378 N.am    
   9 C9             3.7915     1.8684    -0.0244 C.2     
  10 C10            6.0942     0.8968    -0.0511 C.3     
  11 C11            6.5825     0.9304    -1.4764 C.ar    
  12 O12            1.1515     3.4479     0.0091 O.3     
  13 O13            4.1370     3.0341    -0.0215 O.2     
  14 C14            6.7421     2.1434    -2.1217 C.ar    
  15 C15            7.1894     2.1800    -3.4269 C.ar    
  16 C16            7.4804     0.9922    -4.0944 C.ar    
  17 C17            7.3179    -0.2268    -3.4396 C.ar    
  18 C18            6.8750    -0.2515    -2.1326 C.ar    
  19 N19            8.1557     2.1054    -6.2249 N.2     
  20 C20            7.9613     1.0253    -5.4982 C.2     
  21 C21           -0.1314     4.0773     0.0243 C.3     
  22 C22            0.0461     5.5969     0.0302 C.3     
  23 C23            8.2903    -0.0935    -6.2880 C.2     
  24 C24            8.6837     0.3562    -7.4995 C.2     
  25 N25            8.6104     1.7045    -7.4876 N.pl3   
  26 C26            8.9472     2.5936    -8.6022 C.3     
  27 C27           -1.2158     6.4560    -0.0719 C.3     
  28 C28           -0.4594     6.3624     1.2547 C.3     
  29 H29           -0.9604     1.9015     0.0169 H       
  30 H30           -0.9272    -0.5544     0.0079 H       
  31 H31            1.2170    -1.7672    -0.0179 H       
  32 H32            4.0688    -1.0067     0.8521 H       
  33 H33            4.0515    -0.9977    -0.9350 H       
  34 H34            6.4145     1.8024     0.4641 H       
  35 H35            6.5091     0.0250     0.4546 H       
  36 H36            6.5158     3.0636    -1.6035 H       
  37 H37            7.3133     3.1276    -3.9300 H       
  38 H38            7.5421    -1.1505    -3.9525 H       
  39 H39            6.7526    -1.1957    -1.6228 H       
  40 H40           -0.6922     3.7805    -0.8620 H       
  41 H41           -0.6756     3.7715     0.9178 H       
  42 H42            0.9477     5.9668    -0.4581 H       
  43 H43            8.2379    -1.1272    -5.9796 H       
  44 H44            9.0011    -0.2552    -8.3313 H       
  45 H45           10.0016     2.8642    -8.5453 H       
  46 H46            8.7535     2.0831    -9.5455 H       
  47 H47            8.3372     3.4951    -8.5450 H       
  48 H48           -1.1443     7.3913    -0.6271 H       
  49 H49           -2.1725     5.9385    -0.1434 H       
  50 H50           -0.9185     5.7834     2.0560 H       
  51 H51            0.1097     7.2361     1.5723 H       
@<TRIPOS>BOND
   1    1    2 ar
   2    1    6 ar
   3    1   29 1
   4    2    3 ar
   5    2   30 1
   6    3    4 ar
   7    3   31 1
   8    4    7 1
   9    4    5 ar
  10    5    6 ar
  11    5    9 1
  12    6   12 1
  13    7    8 1
  14    7   32 1
  15    7   33 1
  16    8    9 am
  17    8   10 1
  18    9   13 2
  19   10   11 1
  20   10   34 1
  21   10   35 1
  22   11   14 ar
  23   11   18 ar
  24   12   21 1
  25   14   15 ar
  26   14   36 1
  27   15   16 ar
  28   15   37 1
  29   16   17 ar
  30   16   20 1
  31   17   18 ar
  32   17   38 1
  33   18   39 1
  34   19   20 2
  35   19   25 1
  36   20   23 1
  37   21   22 1
  38   21   40 1
  39   21   41 1
  40   22   27 1
  41   22   28 1
  42   22   42 1
  43   23   24 2
  44   23   43 1
  45   24   25 1
  46   24   44 1
  47   25   26 1
  48   26   45 1
  49   26   46 1
  50   26   47 1
  51   27   28 1
  52   27   48 1
  53   27   49 1
  54   28   50 1
  55   28   51 1

#	End of record

