#	Name: ASD01812521
#	Creating user name:	WinNT
#	Creation time:	15. 06. 2019 19:28

#	Modifying user name:	WinNT
#	Modification time:	15. 06. 2019 19:28

#	Program:	/corina/corina34_cracker 3.40 0067  02.08.2006

@<TRIPOS>MOLECULE
ASD01812521
  64   69    0    0    0
SMALL
NO_CHARGES


@<TRIPOS>ATOM
   1 C1            -0.0177     1.4559     0.0100 C.ar    
   2 C2             0.0021    -0.0041     0.0020 C.ar    
   3 C3            -1.2308    -0.7010     0.0105 C.ar    
   4 C4            -2.4445     0.0180     0.0269 C.ar    
   5 C5            -2.4565     1.3721     0.0343 C.ar    
   6 C6            -1.2629     2.1111     0.0315 C.ar    
   7 C7            -1.2223    -2.1042     0.0029 C.ar    
   8 C8            -0.0349    -2.7734    -0.0125 C.ar    
   9 C9             1.1743    -2.0857    -0.0208 C.ar    
  10 C10            1.2024    -0.7215    -0.0133 C.ar    
  11 N11            1.1110     2.1838     0.0032 N.2     
  12 C12            1.0862     3.4852     0.0109 C.2     
  13 N13           -0.0646     4.2043     0.0262 N.am    
  14 C14           -1.2647     3.5791     0.0393 C.2     
  15 C15           -3.7504    -0.7340     0.0359 C.3     
  16 C16           -4.1096    -1.1000     1.4529 C.ar    
  17 C17           -3.6800    -2.2951     1.9953 C.ar    
  18 C18           -4.8710    -0.2371     2.2287 C.ar    
  19 C19           -5.1784    -0.6122     3.5252 C.ar    
  20 C20           -4.7173    -1.8319     4.0031 C.ar    
  21 N21           -3.9893    -2.6252     3.2346 N.ar    
  22 O22           -2.3064     4.2101     0.0573 O.2     
  23 O23           -5.0114    -2.2109     5.2722 O.3     
  24 C24           -4.5082    -3.4765     5.7045 C.3     
  25 C25           -0.0095     5.6097     0.0342 C.2     
  26 C26           -1.1098     6.4804     0.0505 C.2     
  27 N27           -0.6590     7.7084     0.0539 N.2     
  28 N28            0.7408     7.6643     0.0400 N.pl3   
  29 C29            1.1182     6.3667     0.0335 C.2     
  30 C30            1.6386     8.8220     0.0385 C.3     
  31 C31            2.0661     9.1398     1.4741 C.3     
  32 C32            3.0511    10.3110     1.4604 C.3     
  33 N33            4.2226     9.9575     0.6487 N.3     
  34 C34            3.8430     9.6941    -0.7452 C.3     
  35 C35            2.8816     8.5045    -0.7974 C.3     
  36 C36            5.2513    11.0034     0.7255 C.3     
  37 H37           -3.4022     1.8934     0.0465 H       
  38 H38           -2.1531    -2.6519     0.0096 H       
  39 H39           -0.0328    -3.8534    -0.0179 H       
  40 H40            2.1021    -2.6383    -0.0326 H       
  41 H41            2.1472    -0.1982    -0.0195 H       
  42 H42            2.0257     4.0178     0.0051 H       
  43 H43           -4.5344    -0.1057    -0.3870 H       
  44 H44           -3.6513    -1.6415    -0.5598 H       
  45 H45           -3.0835    -2.9681     1.3973 H       
  46 H46           -5.2155     0.7056     1.8301 H       
  47 H47           -5.7685     0.0352     4.1568 H       
  48 H48           -3.4198    -3.4746     5.6442 H       
  49 H49           -4.8146    -3.6567     6.7349 H       
  50 H50           -4.9062    -4.2637     5.0642 H       
  51 H51           -2.1493     6.1874     0.0582 H       
  52 H52            2.1333     5.9980     0.0269 H       
  53 H53            1.1225     9.6827    -0.3869 H       
  54 H54            1.1896     9.4083     2.0638 H       
  55 H55            2.5466     8.2653     1.9127 H       
  56 H56            2.5656    11.1889     1.0343 H       
  57 H57            3.3685    10.5305     2.4798 H       
  58 H58            3.3537    10.5750    -1.1610 H       
  59 H59            4.7354     9.4657    -1.3278 H       
  60 H60            3.3750     7.6200    -0.3945 H       
  61 H61            2.5878     8.3192    -1.8305 H       
  62 H62            5.5680    11.1262     1.7612 H       
  63 H63            6.1077    10.7162     0.1154 H       
  64 H64            4.8416    11.9438     0.3568 H       
@<TRIPOS>BOND
   1    1    2 ar
   2    1   11 1
   3    1    6 ar
   4    2   10 ar
   5    2    3 ar
   6    3    4 ar
   7    3    7 ar
   8    4    5 ar
   9    4   15 1
  10    5    6 ar
  11    5   37 1
  12    6   14 1
  13    7    8 ar
  14    7   38 1
  15    8    9 ar
  16    8   39 1
  17    9   10 ar
  18    9   40 1
  19   10   41 1
  20   11   12 2
  21   12   13 1
  22   12   42 1
  23   13   14 am
  24   13   25 1
  25   14   22 2
  26   15   16 1
  27   15   43 1
  28   15   44 1
  29   16   18 ar
  30   16   17 ar
  31   17   21 ar
  32   17   45 1
  33   18   19 ar
  34   18   46 1
  35   19   20 ar
  36   19   47 1
  37   20   21 ar
  38   20   23 1
  39   23   24 1
  40   24   48 1
  41   24   49 1
  42   24   50 1
  43   25   26 1
  44   25   29 2
  45   26   27 2
  46   26   51 1
  47   27   28 1
  48   28   29 1
  49   28   30 1
  50   29   52 1
  51   30   31 1
  52   30   35 1
  53   30   53 1
  54   31   32 1
  55   31   54 1
  56   31   55 1
  57   32   33 1
  58   32   56 1
  59   32   57 1
  60   33   34 1
  61   33   36 1
  62   34   35 1
  63   34   58 1
  64   34   59 1
  65   35   60 1
  66   35   61 1
  67   36   62 1
  68   36   63 1
  69   36   64 1

#	End of record

