#	Name: ASD04590127
#	Creating user name:	WinNT
#	Creation time:	15. 06. 2019 20:50

#	Modifying user name:	WinNT
#	Modification time:	15. 06. 2019 20:50

#	Program:	/corina/corina34_cracker 3.40 0067  02.08.2006

@<TRIPOS>MOLECULE
ASD04590127
  45   47    0    0    0
SMALL
NO_CHARGES


@<TRIPOS>ATOM
   1 N1            -0.0153     1.2802     0.0091 N.pl3   
   2 N2             0.0021    -0.0041     0.0020 N.2     
   3 C3             1.2455    -0.4440    -0.0122 C.2     
   4 C4             2.0903     0.6961    -0.0142 C.2     
   5 C5             1.2523     1.7667    -0.0004 C.2     
   6 C6             1.6764    -1.8547    -0.0239 C.2     
   7 N7             0.7570    -2.8402    -0.0209 N.am    
   8 O8             2.8611    -2.1284    -0.0362 O.2     
   9 N9             3.4929     0.7146    -0.0268 N.am    
  10 C10            4.1513     1.8906    -0.0268 C.2     
  11 C11            6.3142     3.1271    -0.0402 C.ar    
  12 C12            5.6286     1.9101    -0.0401 C.ar    
  13 C13            1.1850    -4.2412    -0.0325 C.3     
  14 C14            0.0892    -5.1161     0.5826 C.3     
  15 C15            0.5158    -6.5841     0.5123 C.3     
  16 N16            0.7410    -6.9632    -0.8884 N.3     
  17 C17            1.8216    -6.1687    -1.4863 C.3     
  18 C18            1.4340    -4.6883    -1.4757 C.3     
  19 C19            7.6968     3.1370    -0.0522 C.ar    
  20 C20            8.3993     1.9449    -0.0646 C.ar    
  21 C21            7.7245     0.7365    -0.0640 C.ar    
  22 C22            6.3458     0.7120    -0.0521 C.ar    
  23 O23            3.5296     2.9354    -0.0160 O.2     
  24 C24            1.0174    -8.4011    -1.0067 C.3     
  25 Cl25           8.5526     4.6474    -0.0524 Cl      
  26 Cl26           5.4329     4.6228    -0.0325 Cl      
  27 H27           -0.8184     1.8242     0.0160 H       
  28 H28            1.5405     2.8076     0.0019 H       
  29 H29           -0.1880    -2.6218    -0.0111 H       
  30 H30            3.9889    -0.1189    -0.0354 H       
  31 H31            2.1028    -4.3466     0.5459 H       
  32 H32           -0.0628    -4.8308     1.6236 H       
  33 H33           -0.8393    -4.9800     0.0281 H       
  34 H34            1.4369    -6.7222     1.0785 H       
  35 H35           -0.2685    -7.2110     0.9366 H       
  36 H36            2.7366    -6.3087    -0.9107 H       
  37 H37            1.9857    -6.4938    -2.5137 H       
  38 H38            0.5267    -4.5454    -2.0626 H       
  39 H39            2.2428    -4.0972    -1.9053 H       
  40 H40            9.4792     1.9575    -0.0746 H       
  41 H41            8.2794    -0.1900    -0.0737 H       
  42 H42            5.8216    -0.2322    -0.0525 H       
  43 H43            0.1682    -8.9670    -0.6237 H       
  44 H44            1.1804    -8.6548    -2.0542 H       
  45 H45            1.9086    -8.6485    -0.4301 H       
@<TRIPOS>BOND
   1    1    2 1
   2    1    5 1
   3    1   27 1
   4    2    3 2
   5    3    4 1
   6    3    6 1
   7    4    5 2
   8    4    9 1
   9    5   28 1
  10    6    7 am
  11    6    8 2
  12    7   13 1
  13    7   29 1
  14    9   10 am
  15    9   30 1
  16   10   23 2
  17   10   12 1
  18   11   12 ar
  19   11   19 ar
  20   11   26 1
  21   12   22 ar
  22   13   14 1
  23   13   18 1
  24   13   31 1
  25   14   15 1
  26   14   32 1
  27   14   33 1
  28   15   16 1
  29   15   34 1
  30   15   35 1
  31   16   17 1
  32   16   24 1
  33   17   18 1
  34   17   36 1
  35   17   37 1
  36   18   38 1
  37   18   39 1
  38   19   20 ar
  39   19   25 1
  40   20   21 ar
  41   20   40 1
  42   21   22 ar
  43   21   41 1
  44   22   42 1
  45   24   43 1
  46   24   44 1
  47   24   45 1

#	End of record

