#	Name: ASD01230280
#	Creating user name:	WinNT
#	Creation time:	15. 06. 2019 19:12

#	Modifying user name:	WinNT
#	Modification time:	15. 06. 2019 19:12

#	Program:	/corina/corina34_cracker 3.40 0067  02.08.2006

@<TRIPOS>MOLECULE
ASD01230280
  36   38    0    0    0
SMALL
NO_CHARGES


@<TRIPOS>ATOM
   1 C1            -0.0169     1.3984     0.0097 C.ar    
   2 C2             0.0021    -0.0041     0.0020 C.ar    
   3 C3             1.2330    -0.6605    -0.0132 C.ar    
   4 C4             2.3883     0.1054    -0.0201 C.ar    
   5 C5             2.2901     1.4833    -0.0118 C.ar    
   6 N6             1.1147     2.0836     0.0026 N.ar    
   7 N7            -1.2305     2.0715     0.0191 N.pl3   
   8 C8            -3.6304    -2.2183     0.0267 C.ar    
   9 C9            -2.6403    -2.5133    -0.9104 C.ar    
  10 C10           -1.4644    -1.7965    -0.9187 C.ar    
  11 C11           -1.2635    -0.7752     0.0104 C.ar    
  12 C12           -2.2537    -0.4804     0.9474 C.ar    
  13 C13           -3.4298    -1.1977     0.9554 C.ar    
  14 C14           -4.8989    -2.9866     0.0319 C.ar    
  15 C15           -5.3779    -3.5382     1.2189 C.ar    
  16 C16           -6.5589    -4.2522     1.2177 C.ar    
  17 C17           -7.2667    -4.4214     0.0414 C.ar    
  18 C18           -6.7962    -3.8762    -1.1397 C.ar    
  19 C19           -5.6196    -3.1550    -1.1493 C.ar    
  20 C20           -2.8573    -3.6164    -1.9139 C.3     
  21 H21            1.2845    -1.7393    -0.0192 H       
  22 H22            3.3574    -0.3712    -0.0316 H       
  23 H23            3.1905     2.0796    -0.0168 H       
  24 H24           -2.0621     1.5722     0.0203 H       
  25 H25           -1.2471     3.0414     0.0245 H       
  26 H26           -0.6975    -2.0254    -1.6438 H       
  27 H27           -2.0984     0.3101     1.6667 H       
  28 H28           -4.1967    -0.9692     1.6807 H       
  29 H29           -4.8257    -3.4074     2.1378 H       
  30 H30           -6.9309    -4.6801     2.1369 H       
  31 H31           -8.1901    -4.9815     0.0450 H       
  32 H32           -7.3529    -4.0114    -2.0552 H       
  33 H33           -5.2556    -2.7257    -2.0710 H       
  34 H34           -3.3261    -3.2067    -2.8085 H       
  35 H35           -1.8979    -4.0615    -2.1777 H       
  36 H36           -3.5049    -4.3790    -1.4811 H       
@<TRIPOS>BOND
   1    1    2 ar
   2    1    6 ar
   3    1    7 1
   4    2    3 ar
   5    2   11 1
   6    3    4 ar
   7    3   21 1
   8    4    5 ar
   9    4   22 1
  10    5    6 ar
  11    5   23 1
  12    7   24 1
  13    7   25 1
  14    8    9 ar
  15    8   13 ar
  16    8   14 1
  17    9   10 ar
  18    9   20 1
  19   10   11 ar
  20   10   26 1
  21   11   12 ar
  22   12   13 ar
  23   12   27 1
  24   13   28 1
  25   14   15 ar
  26   14   19 ar
  27   15   16 ar
  28   15   29 1
  29   16   17 ar
  30   16   30 1
  31   17   18 ar
  32   17   31 1
  33   18   19 ar
  34   18   32 1
  35   19   33 1
  36   20   34 1
  37   20   35 1
  38   20   36 1

#	End of record

