#	Name: ASD05730151
#	Creating user name:	WinNT
#	Creation time:	15. 06. 2019 21:02

#	Modifying user name:	WinNT
#	Modification time:	15. 06. 2019 21:02

#	Program:	/corina/corina34_cracker 3.40 0067  02.08.2006

@<TRIPOS>MOLECULE
ASD05730151
  93   99    0    0    0
SMALL
NO_CHARGES


@<TRIPOS>ATOM
   1 O1             0.5566     1.8952     1.4240 O.3     
   2 C2             0.5266     0.5539     1.2027 C.ar    
   3 C3            -0.4069     0.0162     0.3288 C.ar    
   4 C4            -0.4380    -1.3459     0.1035 C.ar    
   5 C5             0.4655    -2.1774     0.7521 C.ar    
   6 C6             1.3997    -1.6383     1.6268 C.ar    
   7 C7             1.4332    -0.2754     1.8466 C.ar    
   8 N8             0.4343    -3.5586     0.5246 N.pl3   
   9 C9             1.6144    -4.2690     0.4265 C.ar    
  10 N10            1.5580    -5.5882     0.3244 N.ar    
  11 C11            2.6715    -6.3061     0.2276 C.ar    
  12 C12            3.9135    -5.6343     0.2359 C.ar    
  13 C13            3.9197    -4.2353     0.3461 C.ar    
  14 N14            2.7644    -3.6034     0.4326 N.ar    
  15 N15            2.6204    -7.6728     0.1221 N.am    
  16 C16            3.7495    -8.4001     0.0244 C.2     
  17 C17            5.0570    -7.7402     0.0299 C.2     
  18 C18            5.1183    -6.3653     0.1338 C.2     
  19 C19            1.3212    -8.3497     0.1160 C.3     
  20 O20            3.6831    -9.6128    -0.0685 O.2     
  21 C21            6.2990    -8.5389    -0.0770 C.ar    
  22 C22           -0.3303     2.7012     0.6456 C.3     
  23 C23            0.8168    -8.4724    -1.3233 C.3     
  24 C24           -1.7273     2.7364     1.2926 C.3     
  25 N25            6.5832    -9.4422     0.8535 N.ar    
  26 N26           -0.4860    -9.1511    -1.3294 N.3     
  27 C27           -1.1118    -9.0782    -2.6577 C.3     
  28 C28            7.1586    -8.3404    -1.1576 C.ar    
  29 C29            8.3148    -9.0946    -1.2436 C.ar    
  30 C30            8.5759   -10.0244    -0.2460 C.ar    
  31 C31            7.6781   -10.1733     0.7943 C.ar    
  32 C32            6.8319    -7.3191    -2.2165 C.3     
  33 S33           10.0349   -11.0102    -0.3091 S.o2    
  34 C34           11.2764   -10.0391     0.5889 C.3     
  35 O35            9.6972   -12.1830     0.4187 O.2     
  36 O36           10.3558   -11.0731    -1.6920 O.2     
  37 C37           -2.4356    -9.8470    -2.6351 C.3     
  38 O38           -3.2759    -9.3093    -1.6103 O.3     
  39 C39           -2.6977    -9.3649    -0.3035 C.3     
  40 C40           -1.3766    -8.5912    -0.3025 C.3     
  41 N41           -2.0022     4.1437     1.6551 N.3     
  42 C42           -1.1774     4.9675     0.7346 C.3     
  43 C43            0.1481     4.1712     0.6376 C.3     
  44 C44           12.6360   -10.7377     0.4983 C.3     
  45 C45           13.6909    -9.8837     1.2053 C.3     
  46 N46           13.7570    -8.5609     0.5712 N.3     
  47 C47           12.4763    -7.8518     0.6873 C.3     
  48 C48           11.3851    -8.6451    -0.0351 C.3     
  49 C49           14.8540    -7.7618     1.1333 C.3     
  50 H50           -1.1098     0.6629    -0.1752 H       
  51 H51           -1.1651    -1.7644    -0.5766 H       
  52 H52            2.1028    -2.2843     2.1316 H       
  53 H53            2.1599     0.1441     2.5266 H       
  54 H54           -0.4162    -4.0164     0.4359 H       
  55 H55            4.8501    -3.6870     0.3559 H       
  56 H56            6.0712    -5.8570     0.1396 H       
  57 H57            1.4275    -9.3440     0.5497 H       
  58 H58            0.6075    -7.7716     0.7030 H       
  59 H59           -0.3944     2.3170    -0.3724 H       
  60 H60            0.7105    -7.4781    -1.7570 H       
  61 H61            1.5304    -9.0505    -1.9103 H       
  62 H62           -2.4746     2.3832     0.5820 H       
  63 H63           -1.7380     2.1136     2.1870 H       
  64 H64           -1.3007    -8.0358    -2.9143 H       
  65 H65           -0.4462    -9.5212    -3.3985 H       
  66 H66            8.9993    -8.9635    -2.0687 H       
  67 H67            7.8787   -10.8958     1.5716 H       
  68 H68            7.1697    -6.3358    -1.8894 H       
  69 H69            7.3351    -7.5856    -3.1459 H       
  70 H70            5.7544    -7.2973    -2.3801 H       
  71 H71           10.9820    -9.9492     1.6345 H       
  72 H72           -2.9307    -9.7478    -3.6011 H       
  73 H73           -2.2415   -10.9000    -2.4313 H       
  74 H74           -3.3824    -8.9170     0.4168 H       
  75 H75           -2.5112   -10.4039    -0.0319 H       
  76 H76           -0.9043    -8.6788     0.6760 H       
  77 H77           -1.5697    -7.5410    -0.5214 H       
  78 H78           -2.9826     4.3586     1.5525 H       
  79 H79           -1.6527     5.0441    -0.2434 H       
  80 H80           -1.0018     5.9570     1.1567 H       
  81 H81            0.7842     4.3746     1.4991 H       
  82 H82            0.6696     4.4021    -0.2913 H       
  83 H83           12.5762   -11.7141     0.9792 H       
  84 H84           12.9115   -10.8634    -0.5488 H       
  85 H85           13.4219    -9.7700     2.2555 H       
  86 H86           14.6628   -10.3714     1.1303 H       
  87 H87           12.2130    -7.7476     1.7399 H       
  88 H88           12.5661    -6.8637     0.2361 H       
  89 H89           11.6410    -8.7378    -1.0906 H       
  90 H90           10.4316    -8.1264     0.0646 H       
  91 H91           15.8004    -8.2766     0.9675 H       
  92 H92           14.8803    -6.7872     0.6460 H       
  93 H93           14.6954    -7.6289     2.2035 H       
@<TRIPOS>BOND
   1    1    2 1
   2    1   22 1
   3    2    3 ar
   4    2    7 ar
   5    3    4 ar
   6    3   50 1
   7    4    5 ar
   8    4   51 1
   9    5    6 ar
  10    5    8 1
  11    6    7 ar
  12    6   52 1
  13    7   53 1
  14    8    9 1
  15    8   54 1
  16    9   10 ar
  17    9   14 ar
  18   10   11 ar
  19   11   12 ar
  20   11   15 1
  21   12   13 ar
  22   12   18 1
  23   13   14 ar
  24   13   55 1
  25   15   16 am
  26   15   19 1
  27   16   17 1
  28   16   20 2
  29   17   18 2
  30   17   21 1
  31   18   56 1
  32   19   23 1
  33   19   57 1
  34   19   58 1
  35   21   25 ar
  36   21   28 ar
  37   22   24 1
  38   22   43 1
  39   22   59 1
  40   23   26 1
  41   23   60 1
  42   23   61 1
  43   24   41 1
  44   24   62 1
  45   24   63 1
  46   25   31 ar
  47   26   27 1
  48   26   40 1
  49   27   37 1
  50   27   64 1
  51   27   65 1
  52   28   29 ar
  53   28   32 1
  54   29   30 ar
  55   29   66 1
  56   30   31 ar
  57   30   33 1
  58   31   67 1
  59   32   68 1
  60   32   69 1
  61   32   70 1
  62   33   34 1
  63   33   35 2
  64   33   36 2
  65   34   44 1
  66   34   48 1
  67   34   71 1
  68   37   38 1
  69   37   72 1
  70   37   73 1
  71   38   39 1
  72   39   40 1
  73   39   74 1
  74   39   75 1
  75   40   76 1
  76   40   77 1
  77   41   42 1
  78   41   78 1
  79   42   43 1
  80   42   79 1
  81   42   80 1
  82   43   81 1
  83   43   82 1
  84   44   45 1
  85   44   83 1
  86   44   84 1
  87   45   46 1
  88   45   85 1
  89   45   86 1
  90   46   47 1
  91   46   49 1
  92   47   48 1
  93   47   87 1
  94   47   88 1
  95   48   89 1
  96   48   90 1
  97   49   91 1
  98   49   92 1
  99   49   93 1

#	End of record

