#	Name: ASD08151045
#	Creating user name:	WinNT
#	Creation time:	15. 06. 2019 21:17

#	Modifying user name:	WinNT
#	Modification time:	15. 06. 2019 21:17

#	Program:	/corina/corina34_cracker 3.40 0067  02.08.2006

@<TRIPOS>MOLECULE
ASD08151045
  47   49    0    0    0
SMALL
NO_CHARGES


@<TRIPOS>ATOM
   1 N1            -0.2836     1.1927    -0.5523 N.ar    
   2 C2            -0.4007    -0.1127    -0.5767 C.ar    
   3 C3             0.6763    -0.9490    -0.2900 C.ar    
   4 C4             1.8914    -0.4106     0.0258 C.ar    
   5 C5             2.0117     0.9915     0.0502 C.ar    
   6 C6             3.2361     1.6106     0.3676 C.ar    
   7 C7             3.3326     2.9645     0.3855 C.ar    
   8 C8             2.2182     3.7707     0.0895 C.ar    
   9 C9             0.9912     3.1901    -0.2288 C.ar    
  10 C10            0.8766     1.7810    -0.2511 C.ar    
  11 C11            2.3485     5.2377     0.1166 C.2     
  12 O12            1.4335     5.9219     0.5335 O.2     
  13 N13            3.4817     5.8218    -0.3207 N.am    
  14 C14            3.5738     7.2823    -0.3887 C.3     
  15 O15            4.5832     5.0238    -0.7143 O.3     
  16 C16            4.6386     4.7614    -2.1180 C.3     
  17 Cl17           4.6264     0.6391     0.7378 Cl      
  18 N18           -0.1039     3.9850    -0.5191 N.3     
  19 C19           -1.1952     3.7597     0.4534 C.3     
  20 C20           -2.5221     3.9140    -0.3128 C.3     
  21 C21           -2.1125     4.2070    -1.7745 C.3     
  22 C22           -0.6705     3.6454    -1.8495 C.3     
  23 N23           -3.2968     5.0317     0.2319 N.am    
  24 C24           -4.6373     5.0532     0.0936 C.2     
  25 O25           -5.2022     4.1473    -0.4819 O.2     
  26 C26           -5.4342     6.2030     0.6540 C.3     
  27 H27           -1.3560    -0.5510    -0.8250 H       
  28 H28            0.5505    -2.0213    -0.3172 H       
  29 H29            2.7369    -1.0437     0.2511 H       
  30 H30            4.2766     3.4286     0.6303 H       
  31 H31            3.9566     7.6666     0.5568 H       
  32 H32            4.2485     7.5666    -1.1962 H       
  33 H33            2.5850     7.7004    -0.5771 H       
  34 H34            3.7345     4.2359    -2.4254 H       
  35 H35            4.7137     5.7036    -2.6610 H       
  36 H36            5.5100     4.1448    -2.3382 H       
  37 H37           -1.1209     2.7546     0.8686 H       
  38 H38           -1.1395     4.4993     1.2521 H       
  39 H39           -3.0993     2.9909    -0.2595 H       
  40 H40           -2.7672     3.6830    -2.4709 H       
  41 H41           -2.1195     5.2794    -1.9695 H       
  42 H42           -0.1076     4.1355    -2.6438 H       
  43 H43           -0.6853     2.5655    -1.9970 H       
  44 H44           -2.8450     5.7562     0.6922 H       
  45 H45           -4.7599     6.9138     1.1315 H       
  46 H46           -5.9730     6.6992    -0.1532 H       
  47 H47           -6.1462     5.8275     1.3890 H       
@<TRIPOS>BOND
   1    1    2 ar
   2    1   10 ar
   3    2    3 ar
   4    2   27 1
   5    3    4 ar
   6    3   28 1
   7    4    5 ar
   8    4   29 1
   9    5    6 ar
  10    5   10 ar
  11    6    7 ar
  12    6   17 1
  13    7    8 ar
  14    7   30 1
  15    8    9 ar
  16    8   11 1
  17    9   10 ar
  18    9   18 1
  19   11   12 2
  20   11   13 am
  21   13   14 1
  22   13   15 1
  23   14   31 1
  24   14   32 1
  25   14   33 1
  26   15   16 1
  27   16   34 1
  28   16   35 1
  29   16   36 1
  30   18   19 1
  31   18   22 1
  32   19   20 1
  33   19   37 1
  34   19   38 1
  35   20   21 1
  36   20   23 1
  37   20   39 1
  38   21   22 1
  39   21   40 1
  40   21   41 1
  41   22   42 1
  42   22   43 1
  43   23   24 am
  44   23   44 1
  45   24   25 2
  46   24   26 1
  47   26   45 1
  48   26   46 1
  49   26   47 1

#	End of record

