#	Name: ASD03430860
#	Creating user name:	WinNT
#	Creation time:	15. 06. 2019 20:41

#	Modifying user name:	WinNT
#	Modification time:	15. 06. 2019 20:41

#	Program:	/corina/corina34_cracker 3.40 0067  02.08.2006

@<TRIPOS>MOLECULE
ASD03430860
  34   38    0    0    0
SMALL
NO_CHARGES


@<TRIPOS>ATOM
   1 C1            -0.0168     1.3856     0.0097 C.ar    
   2 C2             0.0021    -0.0041     0.0020 C.ar    
   3 C3             1.1884     2.0778     0.0019 C.ar    
   4 C4             2.3982     1.3942    -0.0063 C.ar    
   5 C5             2.3903     0.0017     0.0019 C.ar    
   6 C6             1.1970    -0.6893     0.0013 C.ar    
   7 O7             3.6725     1.8785    -0.0336 O.3     
   8 C8             3.8294    -0.4369     0.0238 C.3     
   9 C9             4.5827     0.8478     0.3959 C.3     
  10 N10            4.5959    -2.5690     0.3266 N.am    
  11 C11            4.0747    -1.5358     1.0173 C.2     
  12 C12            4.2808    -0.9866    -1.2968 C.ar    
  13 C13            4.3180    -0.4779    -2.5760 C.ar    
  14 C14            4.8057    -1.2519    -3.6164 C.ar    
  15 C15            5.2552    -2.5375    -3.3658 C.ar    
  16 C16            5.2194    -3.0497    -2.0856 C.ar    
  17 C17            4.7307    -2.2780    -1.0343 C.ar    
  18 O18            3.8486    -1.5003     2.2084 O.2     
  19 O19           -1.2938     1.8588     0.0346 O.3     
  20 C20           -1.4408    -0.4694    -0.0135 C.3     
  21 C21           -2.1904     0.8255    -0.4070 C.3     
  22 F22            4.8421    -0.7541    -4.8718 F       
  23 H23            1.1845     3.1578     0.0018 H       
  24 H24            1.1993    -1.7693    -0.0002 H       
  25 H25            5.5261     0.9141    -0.1460 H       
  26 H26            4.7484     0.9015     1.4719 H       
  27 H27            4.8481    -3.4158     0.7269 H       
  28 H28            3.9664     0.5250    -2.7684 H       
  29 H29            5.6351    -3.1418    -4.1762 H       
  30 H30            5.5715    -4.0533    -1.8978 H       
  31 H31           -1.5908    -1.2486    -0.7607 H       
  32 H32           -1.7497    -0.8136     0.9735 H       
  33 H33           -3.1447     0.8931     0.1152 H       
  34 H34           -2.3351     0.8751    -1.4862 H       
@<TRIPOS>BOND
   1    1    2 ar
   2    1    3 ar
   3    1   19 1
   4    2    6 ar
   5    2   20 1
   6    3    4 ar
   7    3   23 1
   8    4    5 ar
   9    4    7 1
  10    5    6 ar
  11    5    8 1
  12    6   24 1
  13    7    9 1
  14    8    9 1
  15    8   11 1
  16    8   12 1
  17    9   25 1
  18    9   26 1
  19   10   11 am
  20   10   17 1
  21   10   27 1
  22   11   18 2
  23   12   13 ar
  24   12   17 ar
  25   13   14 ar
  26   13   28 1
  27   14   15 ar
  28   14   22 1
  29   15   16 ar
  30   15   29 1
  31   16   17 ar
  32   16   30 1
  33   19   21 1
  34   20   21 1
  35   20   31 1
  36   20   32 1
  37   21   33 1
  38   21   34 1

#	End of record

