#	Name: ASD01881429
#	Creating user name:	WinNT
#	Creation time:	15. 06. 2019 19:42

#	Modifying user name:	WinNT
#	Modification time:	15. 06. 2019 19:42

#	Program:	/corina/corina34_cracker 3.40 0067  02.08.2006

@<TRIPOS>MOLECULE
ASD01881429
  50   53    0    0    0
SMALL
NO_CHARGES


@<TRIPOS>ATOM
   1 Cl1           -3.7413    -2.9821    -2.3149 Cl      
   2 O2             1.6942     1.3544    -3.0126 O.3     
   3 C3            -6.0047    -3.6385    -5.7966 C.ar    
   4 C4            -4.7519    -3.3110    -5.3214 C.ar    
   5 C5            -6.9410    -2.6423    -6.0349 C.ar    
   6 C6            -6.6197    -1.3103    -5.7955 C.ar    
   7 C7            -5.3678    -0.9764    -5.3200 C.ar    
   8 C8            -4.4253    -1.9769    -5.0799 C.ar    
   9 C9            -3.0807    -1.6227    -4.5690 C.2     
  10 C10           -2.6785    -2.0395    -3.3128 C.2     
  11 C11           -2.1918    -0.8589    -5.3642 C.2     
  12 C12           -0.9703    -0.5384    -4.8984 C.2     
  13 N13           -0.5664    -0.9410    -3.6576 N.pl3   
  14 C14           -1.3958    -1.6876    -2.8563 C.2     
  15 C15            0.5813    -0.7683    -2.9456 C.2     
  16 N16            0.4271    -1.3739    -1.7965 N.2     
  17 N17           -0.7357    -1.9210    -1.7323 N.2     
  18 C18            1.8063    -0.0168    -3.3992 C.3     
  19 F19           -7.5334    -0.3429    -6.0290 F       
  20 O20           -8.1742    -2.9688    -6.5032 O.3     
  21 C21           -8.4835    -4.2852    -6.6201 C.ar    
  22 C22            2.5831     3.6003    -2.9342 C.3     
  23 C23            2.8103     2.1597    -3.3969 C.3     
  24 C24           -9.0479    -4.9836    -5.5553 C.ar    
  25 C25           -9.3483    -6.3208    -5.7142 C.ar    
  26 N26           -9.1073    -6.9369    -6.8561 N.ar    
  27 C27           -8.5738    -6.3097    -7.8873 C.ar    
  28 C28           -8.2499    -4.9708    -7.8100 C.ar    
  29 C29           -8.3202    -7.0639    -9.1670 C.3     
  30 C30           -9.9588    -7.0874    -4.5694 C.3     
  31 H31           -6.2558    -4.6714    -5.9878 H       
  32 H32           -4.0244    -4.0874    -5.1360 H       
  33 H33           -5.1179     0.0578    -5.1343 H       
  34 H34           -2.4951    -0.5326    -6.3480 H       
  35 H35           -0.3010     0.0442    -5.5140 H       
  36 H36            1.8921    -0.0826    -4.4838 H       
  37 H37            2.6919    -0.4532    -2.9375 H       
  38 H38            2.4765     3.6210    -1.8497 H       
  39 H39            3.4345     4.2146    -3.2274 H       
  40 H40            1.6766     3.9916    -3.3960 H       
  41 H41            3.7168     1.7685    -2.9352 H       
  42 H42            2.9169     2.1390    -4.4815 H       
  43 H43           -9.2473    -4.4854    -4.6181 H       
  44 H44           -7.8138    -4.4633    -8.6577 H       
  45 H45           -9.1982    -6.9955    -9.8092 H       
  46 H46           -7.4607    -6.6315    -9.6794 H       
  47 H47           -8.1181    -8.1103    -8.9381 H       
  48 H48          -11.0453    -7.0216    -4.6265 H       
  49 H49           -9.6544    -8.1324    -4.6286 H       
  50 H50           -9.6182    -6.6627    -3.6251 H       
@<TRIPOS>BOND
   1    1   10 1
   2    2   18 1
   3    2   23 1
   4    3    4 ar
   5    3    5 ar
   6    3   31 1
   7    4    8 ar
   8    4   32 1
   9    5    6 ar
  10    5   20 1
  11    6    7 ar
  12    6   19 1
  13    7    8 ar
  14    7   33 1
  15    8    9 1
  16    9   10 2
  17    9   11 1
  18   10   14 1
  19   11   12 2
  20   11   34 1
  21   12   13 1
  22   12   35 1
  23   13   14 1
  24   13   15 1
  25   14   17 2
  26   15   16 2
  27   15   18 1
  28   16   17 1
  29   18   36 1
  30   18   37 1
  31   20   21 1
  32   21   24 ar
  33   21   28 ar
  34   22   23 1
  35   22   38 1
  36   22   39 1
  37   22   40 1
  38   23   41 1
  39   23   42 1
  40   24   25 ar
  41   24   43 1
  42   25   26 ar
  43   25   30 1
  44   26   27 ar
  45   27   28 ar
  46   27   29 1
  47   28   44 1
  48   29   45 1
  49   29   46 1
  50   29   47 1
  51   30   48 1
  52   30   49 1
  53   30   50 1

#	End of record

