#	Name: ASD03331320
#	Creating user name:	WinNT
#	Creation time:	15. 06. 2019 20:39

#	Modifying user name:	WinNT
#	Modification time:	15. 06. 2019 20:39

#	Program:	/corina/corina34_cracker 3.40 0067  02.08.2006

@<TRIPOS>MOLECULE
ASD03331320
  52   54    0    0    0
SMALL
NO_CHARGES


@<TRIPOS>ATOM
   1 N1            -0.4306     1.2873    -0.3173 N.am    
   2 N2            -0.4505    -0.1108    -0.2035 N.2     
   3 C3             0.7700    -0.5587    -0.4129 C.2     
   4 C4             1.6012     0.5463    -0.6664 C.2     
   5 C5             3.0796     0.5427    -0.9653 C.3     
   6 C6             3.4544     1.9011    -1.5706 C.3     
   7 C7             2.8989     3.0235    -0.6896 C.3     
   8 C8             1.3706     3.0607    -0.8117 C.3     
   9 C9             0.8420     1.6639    -0.6006 C.2     
  10 C10           -1.4887     2.1100    -0.1762 C.2     
  11 O11           -1.3456     3.3103    -0.2989 O.2     
  12 N12           -2.7056     1.6013     0.1011 N.am    
  13 C13           -3.9081     3.0171     1.6920 C.3     
  14 C14           -3.8558     2.4956     0.2545 C.3     
  15 C15           -5.1428     1.7292    -0.0571 C.3     
  16 C16           -6.3512     2.6184     0.2431 C.3     
  17 C17           -5.1556     1.3334    -1.5350 C.3     
  18 C18           -5.2088     0.4696     0.8088 C.3     
  19 O19           -4.0807     1.9197     2.5909 O.3     
  20 C20            1.1938    -1.9805    -0.3854 C.ar    
  21 C21            2.4008    -2.3383     0.2123 C.ar    
  22 C22            2.7909    -3.6633     0.2359 C.ar    
  23 C23            1.9824    -4.6361    -0.3352 C.ar    
  24 C24            0.7831    -4.2829    -0.9301 C.ar    
  25 C25            0.3834    -2.9619    -0.9522 C.ar    
  26 F26            2.3669    -5.9310    -0.3111 F       
  27 F27            3.9606    -4.0124     0.8148 F       
  28 H28            3.6400     0.3843    -0.0439 H       
  29 H29            3.3085    -0.2515    -1.6759 H       
  30 H30            4.5396     1.9867    -1.6269 H       
  31 H31            3.0311     1.9819    -2.5718 H       
  32 H32            3.1761     2.8413     0.3487 H       
  33 H33            3.3126     3.9783    -1.0139 H       
  34 H34            0.9580     3.7276    -0.0546 H       
  35 H35            1.0901     3.4132    -1.8042 H       
  36 H36           -2.8199     0.6431     0.1991 H       
  37 H37           -2.9775     3.5347     1.9248 H       
  38 H38           -4.7444     3.7082     1.7975 H       
  39 H39           -3.7574     3.3354    -0.4333 H       
  40 H40           -6.3043     3.5157    -0.3738 H       
  41 H41           -7.2681     2.0724     0.0211 H       
  42 H42           -6.3422     2.9004     1.2960 H       
  43 H43           -4.2947     0.7000    -1.7489 H       
  44 H44           -6.0725     0.7874    -1.7570 H       
  45 H45           -5.1086     2.2308    -2.1519 H       
  46 H46           -5.3878     0.7510     1.8465 H       
  47 H47           -6.0205    -0.1689     0.4603 H       
  48 H48           -4.2649    -0.0707     0.7366 H       
  49 H49           -4.1225     2.1769     3.5221 H       
  50 H50            3.0302    -1.5811     0.6561 H       
  51 H51            0.1571    -5.0429    -1.3740 H       
  52 H52           -0.5546    -2.6886    -1.4126 H       
@<TRIPOS>BOND
   1    1    2 1
   2    1    9 1
   3    1   10 am
   4    2    3 2
   5    3    4 1
   6    3   20 1
   7    4    5 1
   8    4    9 2
   9    5    6 1
  10    5   28 1
  11    5   29 1
  12    6    7 1
  13    6   30 1
  14    6   31 1
  15    7    8 1
  16    7   32 1
  17    7   33 1
  18    8    9 1
  19    8   34 1
  20    8   35 1
  21   10   11 2
  22   10   12 am
  23   12   14 1
  24   12   36 1
  25   13   19 1
  26   13   14 1
  27   13   37 1
  28   13   38 1
  29   14   15 1
  30   14   39 1
  31   15   16 1
  32   15   17 1
  33   15   18 1
  34   16   40 1
  35   16   41 1
  36   16   42 1
  37   17   43 1
  38   17   44 1
  39   17   45 1
  40   18   46 1
  41   18   47 1
  42   18   48 1
  43   19   49 1
  44   20   21 ar
  45   20   25 ar
  46   21   22 ar
  47   21   50 1
  48   22   23 ar
  49   22   27 1
  50   23   24 ar
  51   23   26 1
  52   24   25 ar
  53   24   51 1
  54   25   52 1

#	End of record

