#	Name: ASD01903159
#	Creating user name:	WinNT
#	Creation time:	15. 06. 2019 19:54

#	Modifying user name:	WinNT
#	Modification time:	15. 06. 2019 19:54

#	Program:	/corina/corina34_cracker 3.40 0067  02.08.2006

@<TRIPOS>MOLECULE
ASD01903159
  43   45    0    0    0
SMALL
NO_CHARGES


@<TRIPOS>ATOM
   1 C1             1.7425    -1.7359     2.0249 C.ar    
   2 C2             0.7345    -1.2048     1.2359 C.ar    
   3 C3             1.0076    -0.1108     0.4300 C.ar    
   4 N4             2.2073     0.4271     0.4052 N.ar    
   5 C5             3.2003    -0.0510     1.1454 C.ar    
   6 C6             2.9973    -1.1485     1.9787 C.ar    
   7 C7             4.5352     0.5881     1.0846 C.2     
   8 N8             4.7378     1.6503     0.2802 N.am    
   9 O9             5.4478     0.1546     1.7600 O.2     
  10 C10            5.9693     2.3126     0.2934 C.ar    
  11 C11            7.1444     1.5936     0.4708 C.ar    
  12 C12            8.3590     2.2507     0.4834 C.ar    
  13 C13            8.4061     3.6231     0.3197 C.ar    
  14 C14            7.2380     4.3419     0.1434 C.ar    
  15 C15            6.0206     3.6902     0.1236 C.ar    
  16 S16            9.9579     4.4576     0.3365 S.o2    
  17 O17            9.6857     5.8036     0.7017 O.2     
  18 O18           10.8545     3.6230     1.0567 O.2     
  19 N19           10.5091     4.4989    -1.2245 N.am    
  20 C20            9.7685     5.1356    -2.2022 C.ar    
  21 C21            9.7247     4.6152    -3.5176 C.ar    
  22 C22            8.9635     5.2805    -4.4983 C.ar    
  23 C23            8.2787     6.4138    -4.1753 C.ar    
  24 C24            8.3226     6.9239    -2.8831 C.ar    
  25 C25            9.0549     6.2902    -1.9015 C.ar    
  26 N26           10.4003     3.5022    -3.8267 N.2     
  27 O27           10.3584     3.0595    -4.9606 O.3     
  28 O28           11.0570     2.9318    -2.9741 O.2     
  29 H29            1.5536    -2.5852     2.6647 H       
  30 H30           -0.2541    -1.6394     1.2486 H       
  31 H31            0.2245     0.3054    -0.1865 H       
  32 H32            3.8062    -1.5365     2.5800 H       
  33 H33            4.0294     1.9555    -0.3079 H       
  34 H34            7.1082     0.5218     0.5990 H       
  35 H35            9.2730     1.6923     0.6216 H       
  36 H36            7.2782     5.4137     0.0162 H       
  37 H37            5.1087     4.2522    -0.0142 H       
  38 H38           11.3518     4.0761    -1.4527 H       
  39 H39            8.9228     4.8930    -5.5056 H       
  40 H40            7.6967     6.9206    -4.9309 H       
  41 H41            7.7742     7.8232    -2.6445 H       
  42 H42            9.0814     6.6961    -0.9010 H       
  43 H43           10.8626     2.2532    -5.1360 H       
@<TRIPOS>BOND
   1    1    2 ar
   2    1    6 ar
   3    1   29 1
   4    2    3 ar
   5    2   30 1
   6    3    4 ar
   7    3   31 1
   8    4    5 ar
   9    5    6 ar
  10    5    7 1
  11    6   32 1
  12    7    8 am
  13    7    9 2
  14    8   10 1
  15    8   33 1
  16   10   11 ar
  17   10   15 ar
  18   11   12 ar
  19   11   34 1
  20   12   13 ar
  21   12   35 1
  22   13   14 ar
  23   13   16 1
  24   14   15 ar
  25   14   36 1
  26   15   37 1
  27   16   17 2
  28   16   18 2
  29   16   19 am
  30   19   20 1
  31   19   38 1
  32   20   21 ar
  33   20   25 ar
  34   21   22 ar
  35   21   26 1
  36   22   23 ar
  37   22   39 1
  38   23   24 ar
  39   23   40 1
  40   24   25 ar
  41   24   41 1
  42   25   42 1
  43   26   27 1
  44   26   28 2
  45   27   43 1

#	End of record

