#	Name: ASD01030044
#	Creating user name:	WinNT
#	Creation time:	15. 06. 2019 18:58

#	Modifying user name:	WinNT
#	Modification time:	15. 06. 2019 18:58

#	Program:	/corina/corina34_cracker 3.40 0067  02.08.2006

@<TRIPOS>MOLECULE
ASD01030044
  89   95    0    0    0
SMALL
NO_CHARGES


@<TRIPOS>ATOM
   1 C1             0.2886     0.9794    -0.3872 C.3     
   2 C2             0.4692    -0.5388    -0.5071 C.3     
   3 C3             1.2718    -0.8651    -1.7592 C.3     
   4 C4             2.6459    -0.2242    -1.7512 C.3     
   5 C5             2.6032     1.2713    -1.5164 C.3     
   6 C6             1.6710     1.6204    -0.3487 C.3     
   7 C7             1.8346     3.0162     0.2534 C.3     
   8 C8             3.9972     1.8028    -1.1470 C.3     
   9 C9             3.9164     3.3021    -1.0067 C.2     
  10 C10            2.9130     3.8726    -0.3830 C.2     
  11 C11            0.5651     5.2005     0.6819 C.3     
  12 C12            0.6282     3.6860     0.9018 C.3     
  13 C13            1.9667     5.7340     0.8995 C.3     
  14 C14            2.1277     7.2601     0.9812 C.3     
  15 C15            2.7701     5.3501    -0.3712 C.3     
  16 C16            4.0312     6.2050    -0.2159 C.3     
  17 C17            3.4204     7.5469     0.2457 C.3     
  18 C18            2.3521     1.7757     1.0150 C.3     
  19 O19            1.4236    -2.2828    -1.8547 O.3     
  20 C20            3.4842    -0.8717    -0.6473 C.3     
  21 O21            4.7114     6.3511    -1.4642 O.3     
  22 H22            2.2547     1.7706    -2.4205 H       
  23 C23            2.0062     5.8024    -1.6173 C.3     
  24 H24            1.3014     7.7353     0.4525 H       
  25 C25            3.3211    -0.4916    -3.0979 C.3     
  26 C26            0.3795    -2.9313    -2.5837 C.3     
  27 O27           -0.8560    -2.7819    -1.8813 O.3     
  28 C28           -1.9770    -3.3749    -2.5400 C.3     
  29 C29           -1.7451    -4.8814    -2.6825 C.3     
  30 C30           -0.4453    -5.1190    -3.4574 C.3     
  31 C31            0.7061    -4.4200    -2.7280 C.3     
  32 O32           -2.8381    -5.4678    -3.3921 O.3     
  33 O33           -0.1826    -6.5216    -3.5317 O.3     
  34 O34            1.9113    -4.5737    -3.4802 O.3     
  35 C35            2.5862     5.0789     2.1356 C.3     
  36 C36            2.8349     8.9149     2.7982 C.3     
  37 C37            2.0851     7.6639     2.4346 C.3     
  38 C38            4.4004     8.5320     0.7623 C.3     
  39 C39            4.2121     8.8900     2.2035 C.2     
  40 O40            2.9810     8.1331    -0.9813 O.3     
  41 O41            4.2999     9.7246    -0.0185 O.3     
  42 O42            5.1696     9.1596     2.8882 O.2     
  43 C43            0.6145     7.8624     2.8073 C.3     
  44 H44           -0.2664     1.3530    -1.2478 H       
  45 H45           -0.2516     1.2143     0.5299 H       
  46 H46            0.9985    -0.9112     0.3699 H       
  47 H47           -0.5087    -1.0163    -0.5689 H       
  48 H48            0.7229    -0.5116    -2.6320 H       
  49 H49            4.3181     1.3634    -0.2025 H       
  50 H50            4.7071     1.5463    -1.9333 H       
  51 H51            4.6983     3.9172    -1.4271 H       
  52 H52            0.2383     5.4159    -0.3354 H       
  53 H53           -0.1209     5.6526     1.3982 H       
  54 H54           -0.2784     3.2378     0.4951 H       
  55 H55            0.6573     3.4915     1.9739 H       
  56 H56            4.6941     5.7928     0.5447 H       
  57 H57            1.7950     1.4564     1.8958 H       
  58 H58            3.4307     1.6254     1.0596 H       
  59 H59            3.5759    -1.9406    -0.8402 H       
  60 H60            4.4757    -0.4191    -0.6312 H       
  61 H61            2.9984    -0.7168     0.3161 H       
  62 H62            5.5160     6.8851    -1.4135 H       
  63 H63            1.1505     5.1463    -1.7770 H       
  64 H64            1.6584     6.8260    -1.4787 H       
  65 H65            2.6656     5.7569    -2.4841 H       
  66 H66            2.7179    -0.0631    -3.8982 H       
  67 H67            4.3111    -0.0354    -3.1048 H       
  68 H68            3.4155    -1.5668    -3.2498 H       
  69 H69            0.2924    -2.4806    -3.5723 H       
  70 H70           -2.8782    -3.1998    -1.9524 H       
  71 H71           -2.0950    -2.9302    -3.5281 H       
  72 H72           -1.6673    -5.3331    -1.6935 H       
  73 H73           -0.5408    -4.7108    -4.4635 H       
  74 H74            0.8334    -4.8624    -1.7400 H       
  75 H75           -3.6953    -5.3512    -2.9601 H       
  76 H76           -0.8758    -7.0286    -3.9762 H       
  77 H77            2.6824    -4.1506    -3.0785 H       
  78 H78            2.7500     4.0189     1.9414 H       
  79 H79            3.5385     5.5582     2.3621 H       
  80 H80            1.9112     5.1927     2.9839 H       
  81 H81            2.2828     9.7818     2.4352 H       
  82 H82            2.9247     8.9765     3.8827 H       
  83 H83            2.4765     6.8446     3.0376 H       
  84 H84            5.4026     8.1227     0.6353 H       
  85 H85            3.7001     8.3799    -1.5789 H       
  86 H86            4.9089    10.4249     0.2529 H       
  87 H87            0.2120     8.7133     2.2576 H       
  88 H88            0.0506     6.9652     2.5517 H       
  89 H89            0.5331     8.0500     3.8779 H       
@<TRIPOS>BOND
   1    1    2 1
   2    1    6 1
   3    1   44 1
   4    1   45 1
   5    2    3 1
   6    2   46 1
   7    2   47 1
   8    3    4 1
   9    3   19 1
  10    3   48 1
  11    4    5 1
  12    4   20 1
  13    4   25 1
  14    5    6 1
  15    5    8 1
  16    5   22 1
  17    6    7 1
  18    6   18 1
  19    7   10 1
  20    7   12 1
  21    7   18 1
  22    8    9 1
  23    8   49 1
  24    8   50 1
  25    9   10 2
  26    9   51 1
  27   10   15 1
  28   11   12 1
  29   11   13 1
  30   11   52 1
  31   11   53 1
  32   12   54 1
  33   12   55 1
  34   13   14 1
  35   13   35 1
  36   13   15 1
  37   14   24 1
  38   14   17 1
  39   14   37 1
  40   15   23 1
  41   15   16 1
  42   16   17 1
  43   16   21 1
  44   16   56 1
  45   17   40 1
  46   17   38 1
  47   18   57 1
  48   18   58 1
  49   19   26 1
  50   20   59 1
  51   20   60 1
  52   20   61 1
  53   21   62 1
  54   23   63 1
  55   23   64 1
  56   23   65 1
  57   25   66 1
  58   25   67 1
  59   25   68 1
  60   26   27 1
  61   26   31 1
  62   26   69 1
  63   27   28 1
  64   28   29 1
  65   28   70 1
  66   28   71 1
  67   29   30 1
  68   29   32 1
  69   29   72 1
  70   30   31 1
  71   30   33 1
  72   30   73 1
  73   31   34 1
  74   31   74 1
  75   32   75 1
  76   33   76 1
  77   34   77 1
  78   35   78 1
  79   35   79 1
  80   35   80 1
  81   36   37 1
  82   36   39 1
  83   36   81 1
  84   36   82 1
  85   37   43 1
  86   37   83 1
  87   38   39 1
  88   38   41 1
  89   38   84 1
  90   39   42 2
  91   40   85 1
  92   41   86 1
  93   43   87 1
  94   43   88 1
  95   43   89 1

#	End of record

