#	Name: ASD03540008
#	Creating user name:	WinNT
#	Creation time:	15. 06. 2019 20:42

#	Modifying user name:	WinNT
#	Modification time:	15. 06. 2019 20:42

#	Program:	/corina/corina34_cracker 3.40 0067  02.08.2006

@<TRIPOS>MOLECULE
ASD03540008
  49   52    0    0    0
SMALL
NO_CHARGES


@<TRIPOS>ATOM
   1 C1            -0.0164     1.3579     0.0095 C.2     
   2 N2             0.0021    -0.0041     0.0020 N.am    
   3 C3             1.2284    -0.6238    -0.0131 C.2     
   4 C4             2.3974     0.1025    -0.0208 C.2     
   5 C5             2.3228     1.5016    -0.0130 C.2     
   6 N6             1.1082     2.0844     0.0027 N.am    
   7 S7             0.9036    -2.3626    -0.0187 S.3     
   8 C8            -1.0724    -0.8452     0.0083 C.2     
   9 C9            -0.8584    -2.1683    -0.0005 C.2     
  10 C10           -1.8701    -3.2326     0.0040 C.2     
  11 O11           -3.0529    -2.9475     0.0165 O.2     
  12 N12           -1.4886    -4.5252    -0.0058 N.am    
  13 C13           -2.4979    -5.5869    -0.0013 C.3     
  14 C14           -1.8144    -6.9299    -0.0142 C.ar    
  15 C15           -1.4900    -7.5507     1.1779 C.ar    
  16 C16           -0.8634    -8.7818     1.1688 C.ar    
  17 C17           -0.5596    -9.3953    -0.0378 C.ar    
  18 C18           -0.8861    -8.7703    -1.2326 C.ar    
  19 C19           -1.5177    -7.5418    -1.2181 C.ar    
  20 O20            0.0573   -10.6062    -0.0494 O.3     
  21 C21            0.3395   -11.1783    -1.3282 C.3     
  22 O22            3.3377     2.1787    -0.0193 O.2     
  23 O23           -1.0879     1.9319     0.0177 O.2     
  24 C24            1.0159     3.5465     0.0110 C.3     
  25 C25            0.9975     4.0406     1.4345 C.ar    
  26 C26            2.1842     4.3426     2.0763 C.ar    
  27 C27            2.1678     4.7965     3.3826 C.ar    
  28 C28            0.9622     4.9482     4.0470 C.ar    
  29 C29           -0.2240     4.6456     3.4035 C.ar    
  30 C30           -0.2060     4.1970     2.0959 C.ar    
  31 Cl31           0.9399     5.5173     5.6869 Cl      
  32 Cl32           3.6576     5.1754     4.1892 Cl      
  33 H33            3.3549    -0.3969    -0.0323 H       
  34 H34           -2.0780    -0.4515     0.0204 H       
  35 H35           -0.5456    -4.7524    -0.0158 H       
  36 H36           -3.1122    -5.5005     0.8949 H       
  37 H37           -3.1291    -5.4920    -0.8850 H       
  38 H38           -1.7264    -7.0725     2.1170 H       
  39 H39           -0.6099    -9.2661     2.1003 H       
  40 H40           -0.6506    -9.2459    -2.1733 H       
  41 H41           -1.7764    -7.0571    -2.1479 H       
  42 H42           -0.5918   -11.3187    -1.8769 H       
  43 H43            0.9942   -10.5107    -1.8884 H       
  44 H44            0.8313   -12.1418    -1.1946 H       
  45 H45            1.8764     3.9678    -0.5088 H       
  46 H46            0.1000     3.8556    -0.4928 H       
  47 H47            3.1241     4.2237     1.5577 H       
  48 H48           -1.1645     4.7637     3.9210 H       
  49 H49           -1.1328     3.9647     1.5923 H       
@<TRIPOS>BOND
   1    1    2 am
   2    1    6 am
   3    1   23 2
   4    2    3 1
   5    2    8 1
   6    3    4 2
   7    3    7 1
   8    4    5 1
   9    4   33 1
  10    5    6 am
  11    5   22 2
  12    6   24 1
  13    7    9 1
  14    8    9 2
  15    8   34 1
  16    9   10 1
  17   10   11 2
  18   10   12 am
  19   12   13 1
  20   12   35 1
  21   13   14 1
  22   13   36 1
  23   13   37 1
  24   14   15 ar
  25   14   19 ar
  26   15   16 ar
  27   15   38 1
  28   16   17 ar
  29   16   39 1
  30   17   18 ar
  31   17   20 1
  32   18   19 ar
  33   18   40 1
  34   19   41 1
  35   20   21 1
  36   21   42 1
  37   21   43 1
  38   21   44 1
  39   24   25 1
  40   24   45 1
  41   24   46 1
  42   25   26 ar
  43   25   30 ar
  44   26   27 ar
  45   26   47 1
  46   27   28 ar
  47   27   32 1
  48   28   29 ar
  49   28   31 1
  50   29   30 ar
  51   29   48 1
  52   30   49 1

#	End of record

