#	Name: ASD01910498
#	Creating user name:	WinNT
#	Creation time:	15. 06. 2019 19:55

#	Modifying user name:	WinNT
#	Modification time:	15. 06. 2019 19:55

#	Program:	/corina/corina34_cracker 3.40 0067  02.08.2006

@<TRIPOS>MOLECULE
ASD01910498
  43   46    0    0    0
SMALL
NO_CHARGES


@<TRIPOS>ATOM
   1 C1            -0.8524     1.9272     1.0561 C.2     
   2 C2            -0.8690     0.4952     0.6910 C.2     
   3 N3            -1.8833    -0.3764     0.9004 N.2     
   4 C4            -1.4664    -1.5223     0.4234 C.2     
   5 O5            -0.2338    -1.3259    -0.0553 O.3     
   6 N6             0.0931    -0.1681     0.0987 N.2     
   7 C7            -2.2326    -2.8200     0.4159 C.3     
   8 C8            -2.4167    -3.2961    -1.0268 C.3     
   9 C9            -3.2230    -4.5969    -1.0375 C.3     
  10 C10           -2.4551    -5.6753    -0.2667 C.3     
  11 N11           -2.1472    -5.1673     1.0771 N.am    
  12 C12           -1.4535    -3.8783     1.2032 C.3     
  13 C13           -2.4944    -5.8704     2.1732 C.2     
  14 C14           -3.2649    -7.1231     2.0338 C.ar    
  15 O15           -2.1735    -5.4737     3.2767 O.2     
  16 C16           -2.8383    -8.1126     1.1461 C.ar    
  17 C17           -3.5605    -9.2804     1.0189 C.ar    
  18 C18           -4.7087    -9.4738     1.7700 C.ar    
  19 C19           -5.1388    -8.4934     2.6546 C.ar    
  20 C20           -4.4193    -7.3239     2.7939 C.ar    
  21 F21           -5.4125   -10.6198     1.6410 F       
  22 C22            0.1642     2.7912     0.8437 C.2     
  23 N23           -0.0708     4.0137     1.2625 N.2     
  24 C24           -1.2167     4.2410     1.8141 C.2     
  25 S25           -2.1581     2.8142     1.8393 S.3     
  26 C26           -1.6628     5.5759     2.3528 C.3     
  27 F27           -6.2594    -8.6872     3.3840 F       
  28 H28           -3.2088    -2.6687     0.8765 H       
  29 H29           -2.9494    -2.5340    -1.5956 H       
  30 H30           -1.4404    -3.4704    -1.4791 H       
  31 H31           -4.1899    -4.4294    -0.5631 H       
  32 H32           -3.3738    -4.9230    -2.0666 H       
  33 H33           -3.0679    -6.5732    -0.1864 H       
  34 H34           -1.5281    -5.9087    -0.7905 H       
  35 H35           -0.4448    -3.9651     0.7993 H       
  36 H36           -1.4053    -3.5905     2.2534 H       
  37 H37           -1.9440    -7.9634     0.5593 H       
  38 H38           -3.2305   -10.0459     0.3322 H       
  39 H39           -4.7536    -6.5615     3.4821 H       
  40 H40            1.0908     2.5014     0.3707 H       
  41 H41           -2.1655     6.1362     1.5645 H       
  42 H42           -2.3510     5.4208     3.1838 H       
  43 H43           -0.7946     6.1362     2.6998 H       
@<TRIPOS>BOND
   1    1    2 1
   2    1   22 2
   3    1   25 1
   4    2    3 1
   5    2    6 2
   6    3    4 2
   7    4    5 1
   8    4    7 1
   9    5    6 1
  10    7    8 1
  11    7   12 1
  12    7   28 1
  13    8    9 1
  14    8   29 1
  15    8   30 1
  16    9   10 1
  17    9   31 1
  18    9   32 1
  19   10   11 1
  20   10   33 1
  21   10   34 1
  22   11   12 1
  23   11   13 am
  24   12   35 1
  25   12   36 1
  26   13   14 1
  27   13   15 2
  28   14   16 ar
  29   14   20 ar
  30   16   17 ar
  31   16   37 1
  32   17   18 ar
  33   17   38 1
  34   18   19 ar
  35   18   21 1
  36   19   20 ar
  37   19   27 1
  38   20   39 1
  39   22   23 1
  40   22   40 1
  41   23   24 2
  42   24   25 1
  43   24   26 1
  44   26   41 1
  45   26   42 1
  46   26   43 1

#	End of record

