#	Name: ASD06020124
#	Creating user name:	WinNT
#	Creation time:	15. 06. 2019 21:04

#	Modifying user name:	WinNT
#	Modification time:	15. 06. 2019 21:04

#	Program:	/corina/corina34_cracker 3.40 0067  02.08.2006

@<TRIPOS>MOLECULE
ASD06020124
  39   42    0    0    0
SMALL
NO_CHARGES


@<TRIPOS>ATOM
   1 C1             0.0027    -0.0072     0.0093 C.1     
   2 C2            -0.0172     1.4245     0.0312 C.ar    
   3 C3             1.1900     2.1504     0.0274 C.ar    
   4 C4             1.1544     3.5443     0.0485 C.ar    
   5 C5            -0.0601     4.2036     0.0729 C.ar    
   6 C6            -1.2459     3.4894     0.0766 C.ar    
   7 C7            -1.2317     2.1092     0.0507 C.ar    
   8 N8             0.0185    -1.1430    -0.0081 N.1     
   9 Cl9            2.6348     4.4509     0.0446 Cl      
  10 C10            6.1987     0.2750    -0.0581 C.ar    
  11 C11            4.8502     0.6478    -0.0367 C.ar    
  12 C12            3.8602    -0.3418    -0.0390 C.ar    
  13 C13            4.2976    -1.6923    -0.0636 C.ar    
  14 C14            5.6305    -1.9649    -0.0835 C.ar    
  15 N15            6.5390    -1.0011    -0.0802 N.ar    
  16 S16            4.0609     2.2207    -0.0057 S.3     
  17 C17            2.4846     1.4401     0.0017 C.2     
  18 N18            2.6229     0.1543    -0.0177 N.2     
  19 F19            3.3970    -2.6994    -0.0667 F       
  20 N20            7.1884     1.2558    -0.0618 N.pl3   
  21 C21           10.1344    -0.7312     0.3126 C.ar    
  22 N22            8.8680    -0.3783     0.2256 N.ar    
  23 C23            8.5247     0.8933     0.0290 C.ar    
  24 C24            9.5258     1.8532    -0.0846 C.ar    
  25 C25           10.8505     1.4386     0.0131 C.ar    
  26 N26           11.1107     0.1473     0.2103 N.ar    
  27 C27           10.4758    -2.1810     0.5419 C.3     
  28 N28           11.8844     2.3560    -0.0938 N.pl3   
  29 H29           -0.0841     5.2832     0.0895 H       
  30 H30           -2.1888     4.0157     0.0958 H       
  31 H31           -2.1614     1.5596     0.0496 H       
  32 H32            5.9563    -2.9944    -0.1022 H       
  33 H33            6.9431     2.1919    -0.1278 H       
  34 H34            9.2810     2.8928    -0.2447 H       
  35 H35           10.5848    -2.6848    -0.4185 H       
  36 H36           11.4112    -2.2506     1.0970 H       
  37 H37            9.6781    -2.6561     1.1130 H       
  38 H38           11.6868     3.2947    -0.2377 H       
  39 H39           12.8052     2.0592    -0.0246 H       
@<TRIPOS>BOND
   1    1    2 1
   2    1    8 3
   3    2    3 ar
   4    2    7 ar
   5    3    4 ar
   6    3   17 1
   7    4    5 ar
   8    4    9 1
   9    5    6 ar
  10    5   29 1
  11    6    7 ar
  12    6   30 1
  13    7   31 1
  14   10   11 ar
  15   10   15 ar
  16   10   20 1
  17   11   12 ar
  18   11   16 1
  19   12   13 ar
  20   12   18 1
  21   13   14 ar
  22   13   19 1
  23   14   15 ar
  24   14   32 1
  25   16   17 1
  26   17   18 2
  27   20   23 1
  28   20   33 1
  29   21   22 ar
  30   21   26 ar
  31   21   27 1
  32   22   23 ar
  33   23   24 ar
  34   24   25 ar
  35   24   34 1
  36   25   26 ar
  37   25   28 1
  38   27   35 1
  39   27   36 1
  40   27   37 1
  41   28   38 1
  42   28   39 1

#	End of record

