#	Name: ASD01884799
#	Creating user name:	WinNT
#	Creation time:	15. 06. 2019 19:48

#	Modifying user name:	WinNT
#	Modification time:	15. 06. 2019 19:48

#	Program:	/corina/corina34_cracker 3.40 0067  02.08.2006

@<TRIPOS>MOLECULE
ASD01884799
  45   48    0    0    0
SMALL
NO_CHARGES


@<TRIPOS>ATOM
   1 C1            -0.0730     1.5483     0.2553 C.3     
   2 C2            -0.0345     0.0256     0.1114 C.3     
   3 H3            -1.0517    -0.3661     0.1160 H       
   4 C4             0.6491    -0.3455    -1.2042 C.3     
   5 N5             1.0022    -1.7594    -1.2725 N.am    
   6 C6             1.5023    -2.4188    -0.1997 C.2     
   7 O7             1.9817    -3.5321    -0.2969 O.2     
   8 C8             1.4333    -1.7114     1.0924 C.2     
   9 C9             1.9952    -1.9966     2.3181 C.2     
  10 C10            1.6086    -0.9634     3.1967 C.2     
  11 N11            0.8566    -0.1136     2.5381 N.2     
  12 N12            0.7167    -0.5521     1.2281 N.pl3   
  13 C13            2.8400    -3.1621     2.6485 C.2     
  14 O14            3.0998    -3.9863     1.7936 O.2     
  15 N15            3.3229    -3.3118     3.8979 N.am    
  16 C16            4.0218    -4.4670     4.2407 C.ar    
  17 C17            4.6202    -4.5749     5.4930 C.ar    
  18 N18            5.2815    -5.6709     5.8141 N.ar    
  19 C19            5.3760    -6.6655     4.9480 C.ar    
  20 C20            4.7834    -6.5616     3.7032 C.ar    
  21 N21            4.1143    -5.4693     3.3767 N.ar    
  22 C22            0.8207    -2.4505    -2.4741 C.ar    
  23 C23            0.0213    -3.5859    -2.5102 C.ar    
  24 C24           -0.1564    -4.2660    -3.6990 C.ar    
  25 C25            0.4606    -3.8178    -4.8526 C.ar    
  26 C26            1.2571    -2.6878    -4.8202 C.ar    
  27 C27            1.4347    -2.0000    -3.6358 C.ar    
  28 C28            0.2649    -4.5628    -6.1479 C.3     
  29 F29           -0.8472    -4.0448    -6.8203 F       
  30 F30            1.4035    -4.4153    -6.9473 F       
  31 F31            0.0567    -5.9197    -5.8786 F       
  32 H32            0.9444     1.9395     0.2507 H       
  33 H33           -0.6312     1.9778    -0.5766 H       
  34 H34           -0.5596     1.8124     1.1942 H       
  35 H35           -0.0231    -0.1099    -2.0293 H       
  36 H36            1.5560     0.2498    -1.3102 H       
  37 H37            1.8851    -0.8849     4.2378 H       
  38 H38            3.1837    -2.6151     4.5583 H       
  39 H39            4.5436    -3.7626     6.2007 H       
  40 H40            5.9179    -7.5613     5.2134 H       
  41 H41            4.8631    -7.3760     2.9983 H       
  42 H42           -0.4606    -3.9366    -1.6095 H       
  43 H43           -0.7775    -5.1490    -3.7276 H       
  44 H44            1.7378    -2.3406    -5.7229 H       
  45 H45            2.0536    -1.1153    -3.6120 H       
@<TRIPOS>BOND
   1    1    2 1
   2    1   32 1
   3    1   33 1
   4    1   34 1
   5    2    3 1
   6    2   12 1
   7    2    4 1
   8    4    5 1
   9    4   35 1
  10    4   36 1
  11    5    6 am
  12    5   22 1
  13    6    7 2
  14    6    8 1
  15    8   12 1
  16    8    9 2
  17    9   10 1
  18    9   13 1
  19   10   11 2
  20   10   37 1
  21   11   12 1
  22   13   14 2
  23   13   15 am
  24   15   16 1
  25   15   38 1
  26   16   21 ar
  27   16   17 ar
  28   17   18 ar
  29   17   39 1
  30   18   19 ar
  31   19   20 ar
  32   19   40 1
  33   20   21 ar
  34   20   41 1
  35   22   27 ar
  36   22   23 ar
  37   23   24 ar
  38   23   42 1
  39   24   25 ar
  40   24   43 1
  41   25   26 ar
  42   25   28 1
  43   26   27 ar
  44   26   44 1
  45   27   45 1
  46   28   29 1
  47   28   30 1
  48   28   31 1

#	End of record

