#	Name: ASD01815982
#	Creating user name:	WinNT
#	Creation time:	15. 06. 2019 19:34

#	Modifying user name:	WinNT
#	Modification time:	15. 06. 2019 19:34

#	Program:	/corina/corina34_cracker 3.40 0067  02.08.2006

@<TRIPOS>MOLECULE
ASD01815982
  40   43    0    0    0
SMALL
NO_CHARGES


@<TRIPOS>ATOM
   1 C1            -0.0169     1.3814    -0.0238 C.ar    
   2 C2             0.0019    -0.0039    -0.0310 C.ar    
   3 C3             1.1983    -0.6908    -0.0351 C.ar    
   4 C4             2.4014     0.0060    -0.0320 C.ar    
   5 C5             2.3790     1.4107    -0.0247 C.ar    
   6 C6             1.1662     2.0918    -0.0206 C.ar    
   7 N7             3.6053    -0.6772    -0.0356 N.pl3   
   8 C8             4.7971    -0.0586    -0.0325 C.2     
   9 C9             4.9000     1.3102    -0.0259 C.2     
  10 C10            3.6670     2.1301    -0.0216 C.2     
  11 C11            5.9972     2.2728    -0.0218 C.2     
  12 N12            5.4246     3.4960    -0.0164 N.am    
  13 N13            4.0323     3.3799    -0.0163 N.2     
  14 C14            6.1266     4.7081    -0.0112 C.ar    
  15 O15            7.1916     2.0227    -0.0226 O.2     
  16 C16            3.5779    -2.1419    -0.0427 C.3     
  17 C17            6.5657     5.2630    -1.2058 C.ar    
  18 C18            7.2577     6.4584    -1.1976 C.ar    
  19 C19            7.5144     7.1034    -0.0015 C.ar    
  20 C20            7.0793     6.5550     1.1909 C.ar    
  21 C21            6.3804     5.3615     1.1899 C.ar    
  22 F22            5.9548     4.8256     2.3548 F       
  23 C23            4.1656    -2.6567    -1.3582 C.3     
  24 C24            4.4066    -2.6732     1.1286 C.3     
  25 H25           -0.9604     1.9070    -0.0252 H       
  26 H26           -0.9291    -0.5513    -0.0331 H       
  27 H27            1.2003    -1.7708    -0.0404 H       
  28 H28            1.1505     3.1716    -0.0153 H       
  29 H29            5.6984    -0.6537    -0.0349 H       
  30 H30            2.5484    -2.4865     0.0548 H       
  31 H31            6.3667     4.7602    -2.1406 H       
  32 H32            7.5992     6.8900    -2.1269 H       
  33 H33            8.0564     8.0376     0.0013 H       
  34 H34            7.2817     7.0611     2.1232 H       
  35 H35            3.5752    -2.2782    -2.1926 H       
  36 H36            5.1951    -2.3120    -1.4557 H       
  37 H37            4.1452    -3.7465    -1.3635 H       
  38 H38            3.9880    -2.3065     2.0658 H       
  39 H39            4.3863    -3.7630     1.1233 H       
  40 H40            5.4361    -2.3286     1.0311 H       
@<TRIPOS>BOND
   1    1    2 ar
   2    1    6 ar
   3    1   25 1
   4    2    3 ar
   5    2   26 1
   6    3    4 ar
   7    3   27 1
   8    4    5 ar
   9    4    7 1
  10    5    6 ar
  11    5   10 1
  12    6   28 1
  13    7    8 1
  14    7   16 1
  15    8    9 2
  16    8   29 1
  17    9   10 1
  18    9   11 1
  19   10   13 2
  20   11   12 am
  21   11   15 2
  22   12   13 1
  23   12   14 1
  24   14   17 ar
  25   14   21 ar
  26   16   23 1
  27   16   24 1
  28   16   30 1
  29   17   18 ar
  30   17   31 1
  31   18   19 ar
  32   18   32 1
  33   19   20 ar
  34   19   33 1
  35   20   21 ar
  36   20   34 1
  37   21   22 1
  38   23   35 1
  39   23   36 1
  40   23   37 1
  41   24   38 1
  42   24   39 1
  43   24   40 1

#	End of record

