#	Name: ASD05430090
#	Creating user name:	WinNT
#	Creation time:	15. 06. 2019 20:59

#	Modifying user name:	WinNT
#	Modification time:	15. 06. 2019 20:59

#	Program:	/corina/corina34_cracker 3.40 0067  02.08.2006

@<TRIPOS>MOLECULE
ASD05430090
  67   73    0    0    0
SMALL
NO_CHARGES


@<TRIPOS>ATOM
   1 C1             0.1897     1.1546    -1.0605 C.ar    
   2 C2             0.0179    -0.0115    -0.3117 C.ar    
   3 C3             1.0338    -0.4641     0.5160 C.ar    
   4 C4             2.2258     0.2274     0.6134 C.ar    
   5 C5             2.4229     1.3949    -0.1238 C.ar    
   6 C6             1.3944     1.8639    -0.9701 C.ar    
   7 C7             4.8963    -0.0446    -0.0834 C.3     
   8 C8             4.8545     1.4583     0.0675 C.2     
   9 C9             3.6898     2.1308    -0.0204 C.2     
  10 C10            6.3088    -0.5006    -0.4533 C.3     
  11 C11            7.1059     0.5440    -1.2411 C.3     
  12 N12            7.2234     1.7576    -0.4338 N.pl3   
  13 C13            6.1211     2.1682     0.3137 C.2     
  14 C14            8.3279     3.7101    -1.3620 C.ar    
  15 C15            9.3709     4.6070    -1.4988 C.ar    
  16 C16            9.2644     5.6606    -2.3873 C.ar    
  17 C17            8.1151     5.8171    -3.1393 C.ar    
  18 C18            7.0725     4.9197    -3.0031 C.ar    
  19 C19            7.1784     3.8669    -2.1136 C.ar    
  20 N20           -1.1842    -0.7255    -0.3967 N.pl3   
  21 C21           -1.3185    -2.0715    -0.6202 C.2     
  22 C22           -2.6389    -2.3361    -0.6253 C.2     
  23 N23           -3.2972    -1.1872    -0.4113 N.2     
  24 C24           -2.4369    -0.2162    -0.2675 C.2     
  25 C25            7.0857    -1.0624     0.7412 C.3     
  26 S26            7.9574    -2.2048    -0.3659 S.o     
  27 C27            6.3346    -1.8840    -1.1106 C.3     
  28 O28            8.9572    -1.4965    -1.0856 O.2     
  29 C29           -3.2682    -3.6893    -0.8351 C.3     
  30 C30            1.2660     3.0181    -1.8589 C.2     
  31 N31            0.0881     2.9611    -2.4029 N.2     
  32 O32           -0.5972     1.8178    -1.9324 O.3     
  33 C33            8.4465     2.5579    -0.3979 C.3     
  34 C34            8.6309     3.0932     1.0264 C.3     
  35 O35            7.4494     3.7630     1.4539 O.3     
  36 N36            6.2265     3.1149     1.1879 N.2     
  37 C37            9.6444     1.6862    -0.7801 C.3     
  38 C38            7.9986     6.9663    -4.1072 C.3     
  39 F39            8.4837     6.5727    -5.3590 F       
  40 F40            6.6564     7.3430    -4.2245 F       
  41 F41            8.7477     8.0501    -3.6366 F       
  42 H42            0.8916    -1.3670     1.0913 H       
  43 H43            3.0078    -0.1371     1.2631 H       
  44 H44            4.6013    -0.5101     0.8570 H       
  45 H45            4.2022    -0.3482    -0.8670 H       
  46 H46            3.6880     3.2108    -0.0147 H       
  47 H47            8.0998     0.1547    -1.4617 H       
  48 H48            6.5869     0.7735    -2.1718 H       
  49 H49           10.2688     4.4847    -0.9112 H       
  50 H50           10.0790     6.3617    -2.4936 H       
  51 H51            6.1743     5.0424    -3.5901 H       
  52 H52            6.3637     3.1660    -2.0070 H       
  53 H53           -0.5190    -2.7830    -0.7647 H       
  54 H54           -2.6804     0.8198    -0.0837 H       
  55 H55            7.7451    -0.3296     1.2063 H       
  56 H56            6.4490    -1.5701     1.4658 H       
  57 H57            5.5543    -2.5489    -0.7403 H       
  58 H58            6.3639    -1.8405    -2.1993 H       
  59 H59           -3.3895    -4.1867     0.1272 H       
  60 H60           -4.2434    -3.5673    -1.3065 H       
  61 H61           -2.6269    -4.2925    -1.4776 H       
  62 H62            2.0133     3.7786    -2.0308 H       
  63 H63            8.8396     2.2625     1.7006 H       
  64 H64            9.4685     3.7905     1.0449 H       
  65 H65            9.5003     1.2914    -1.7858 H       
  66 H66           10.5540     2.2862    -0.7521 H       
  67 H67            9.7323     0.8600    -0.0746 H       
@<TRIPOS>BOND
   1    1    2 ar
   2    1    6 ar
   3    1   32 1
   4    2    3 ar
   5    2   20 1
   6    3    4 ar
   7    3   42 1
   8    4    5 ar
   9    4   43 1
  10    5    6 ar
  11    5    9 1
  12    6   30 1
  13    7    8 1
  14    7   10 1
  15    7   44 1
  16    7   45 1
  17    8    9 2
  18    8   13 1
  19    9   46 1
  20   10   11 1
  21   10   25 1
  22   10   27 1
  23   11   12 1
  24   11   47 1
  25   11   48 1
  26   12   13 1
  27   12   33 1
  28   13   36 2
  29   14   15 ar
  30   14   19 ar
  31   14   33 1
  32   15   16 ar
  33   15   49 1
  34   16   17 ar
  35   16   50 1
  36   17   18 ar
  37   17   38 1
  38   18   19 ar
  39   18   51 1
  40   19   52 1
  41   20   21 1
  42   20   24 1
  43   21   22 2
  44   21   53 1
  45   22   23 1
  46   22   29 1
  47   23   24 2
  48   24   54 1
  49   25   26 1
  50   25   55 1
  51   25   56 1
  52   26   27 1
  53   26   28 2
  54   27   57 1
  55   27   58 1
  56   29   59 1
  57   29   60 1
  58   29   61 1
  59   30   31 2
  60   30   62 1
  61   31   32 1
  62   33   34 1
  63   33   37 1
  64   34   35 1
  65   34   63 1
  66   34   64 1
  67   35   36 1
  68   37   65 1
  69   37   66 1
  70   37   67 1
  71   38   39 1
  72   38   40 1
  73   38   41 1

#	End of record

