#	Name: ASD01918212
#	Creating user name:	WinNT
#	Creation time:	15. 06. 2019 20:11

#	Modifying user name:	WinNT
#	Modification time:	15. 06. 2019 20:11

#	Program:	/corina/corina34_cracker 3.40 0067  02.08.2006

@<TRIPOS>MOLECULE
ASD01918212
  40   43    0    0    0
SMALL
NO_CHARGES


@<TRIPOS>ATOM
   1 C1             0.0698     1.3465    -0.0320 C.ar    
   2 C2             0.1856    -0.0457    -0.2732 C.ar    
   3 C3             1.4534    -0.6613    -0.1339 C.ar    
   4 N4             2.5159     0.0696     0.2203 N.ar    
   5 C5             2.4232     1.3582     0.4470 C.ar    
   6 C6             1.2172     2.0390     0.3316 C.ar    
   7 C7            -1.2313     2.0408    -0.1695 C.ar    
   8 C8            -2.2312     1.8488     0.7836 C.ar    
   9 C9            -3.4417     2.4983     0.6516 C.ar    
  10 C10           -3.6658     3.3386    -0.4236 C.ar    
  11 C11           -2.6771     3.5339    -1.3749 C.ar    
  12 C12           -1.4589     2.8935    -1.2494 C.ar    
  13 C13           -0.9246    -0.8160    -0.6436 C.ar    
  14 C14           -0.7745    -2.1516    -0.8667 C.ar    
  15 C15            0.4721    -2.7626    -0.7309 C.ar    
  16 C16            1.5722    -2.0409    -0.3722 C.ar    
  17 S17            1.1442     3.7712     0.6456 S.o2    
  18 C18            0.1624     3.9984     2.0909 C.ar    
  19 O19            2.4633     4.1726     0.9893 O.2     
  20 O20            0.4131     4.3436    -0.4302 O.2     
  21 C21           -1.1757     4.3242     1.9730 C.ar    
  22 C22            0.7293     3.8452     3.3422 C.ar    
  23 C23           -0.0414     4.0226     4.4775 C.ar    
  24 C24           -1.3793     4.3538     4.3602 C.ar    
  25 C25           -1.9471     4.5028     3.1076 C.ar    
  26 F26            0.5915    -4.0889    -0.9584 F       
  27 F27           -2.9024     4.3557    -2.4232 F       
  28 Cl28          -3.6274     4.9131     2.9592 Cl      
  29 Cl29           0.6704     3.8290     6.0490 Cl      
  30 H30            3.3097     1.9059     0.7307 H       
  31 H31           -2.0585     1.1925     1.6237 H       
  32 H32           -4.2161     2.3497     1.3897 H       
  33 H33           -4.6149     3.8443    -0.5225 H       
  34 H34           -0.6868     3.0492    -1.9883 H       
  35 H35           -1.8946    -0.3534    -0.7513 H       
  36 H36           -1.6311    -2.7444    -1.1518 H       
  37 H37            2.5309    -2.5279    -0.2713 H       
  38 H38           -1.6190     4.4398     0.9950 H       
  39 H39            1.7738     3.5866     3.4337 H       
  40 H40           -1.9814     4.4920     5.2461 H       
@<TRIPOS>BOND
   1    1    2 ar
   2    1    6 ar
   3    1    7 1
   4    2    3 ar
   5    2   13 ar
   6    3    4 ar
   7    3   16 ar
   8    4    5 ar
   9    5    6 ar
  10    5   30 1
  11    6   17 1
  12    7    8 ar
  13    7   12 ar
  14    8    9 ar
  15    8   31 1
  16    9   10 ar
  17    9   32 1
  18   10   11 ar
  19   10   33 1
  20   11   12 ar
  21   11   27 1
  22   12   34 1
  23   13   14 ar
  24   13   35 1
  25   14   15 ar
  26   14   36 1
  27   15   16 ar
  28   15   26 1
  29   16   37 1
  30   17   18 1
  31   17   19 2
  32   17   20 2
  33   18   22 ar
  34   18   21 ar
  35   21   25 ar
  36   21   38 1
  37   22   23 ar
  38   22   39 1
  39   23   24 ar
  40   23   29 1
  41   24   25 ar
  42   24   40 1
  43   25   28 1

#	End of record

