#	Name: ASD01880222
#	Creating user name:	WinNT
#	Creation time:	15. 06. 2019 19:40

#	Modifying user name:	WinNT
#	Modification time:	15. 06. 2019 19:40

#	Program:	/corina/corina34_cracker 3.40 0067  02.08.2006

@<TRIPOS>MOLECULE
ASD01880222
  48   50    0    0    0
SMALL
NO_CHARGES


@<TRIPOS>ATOM
   1 C1            -0.5401     1.4417     0.5690 C.3     
   2 C2            -0.3836    -0.0493     0.4150 C.ar    
   3 C3            -0.2587    -0.8504     1.5346 C.ar    
   4 C4            -0.1151    -2.2180     1.3934 C.ar    
   5 C5            -0.0969    -2.7845     0.1325 C.ar    
   6 C6            -0.2227    -1.9834    -0.9870 C.ar    
   7 C7            -0.3706    -0.6163    -0.8456 C.ar    
   8 C8             0.0607    -4.2753    -0.0215 C.3     
   9 N9             0.7815     2.0737     0.5724 N.am    
  10 C10            1.5001     2.5600    -0.6154 C.3     
  11 C11            2.8161     3.1217    -0.0436 C.3     
  12 O12            2.7023     2.8954     1.3912 O.3     
  13 C13            1.5304     2.3082     1.6586 C.2     
  14 C14            2.9357     4.6174    -0.3428 C.3     
  15 O15            1.1806     2.0075     2.7827 O.2     
  16 N16           -0.9216    -4.7737    -0.9934 N.3     
  17 C17            1.4735    -4.5903    -0.5170 C.3     
  18 C18           -2.2928    -4.5291    -0.5284 C.3     
  19 C19           -3.2834    -4.9267    -1.6251 C.3     
  20 C20           -3.0957    -6.4083    -1.9629 C.3     
  21 C21           -1.6468    -6.6450    -2.3980 C.3     
  22 C22           -0.7037    -6.1976    -1.2789 C.3     
  23 H23           -1.1279     1.8330    -0.2613 H       
  24 H24           -1.0489     1.6585     1.5083 H       
  25 H25           -0.2730    -0.4078     2.5197 H       
  26 H26           -0.0168    -2.8438     2.2680 H       
  27 H27           -0.2081    -2.4260    -1.9721 H       
  28 H28           -0.4689     0.0095    -1.7203 H       
  29 H29           -0.1030    -4.7594     0.9413 H       
  30 H30            1.7013     1.7393    -1.3039 H       
  31 H31            0.9316     3.3466    -1.1114 H       
  32 H32            3.6709     2.5804    -0.4491 H       
  33 H33            2.0981     5.1469     0.1112 H       
  34 H34            3.8712     4.9966     0.0685 H       
  35 H35            2.9231     4.7743    -1.4214 H       
  36 H36            1.6373    -4.1063    -1.4798 H       
  37 H37            2.2024    -4.2205     0.2042 H       
  38 H38            1.5875    -5.6686    -0.6284 H       
  39 H39           -2.4841    -5.1219     0.3661 H       
  40 H40           -2.4141    -3.4712    -0.2956 H       
  41 H41           -4.3016    -4.7597    -1.2738 H       
  42 H42           -3.1016    -4.3246    -2.5154 H       
  43 H43           -3.3153    -7.0132    -1.0831 H       
  44 H44           -3.7694    -6.6852    -2.7738 H       
  45 H45           -1.4958    -7.7056    -2.5989 H       
  46 H46           -1.4393    -6.0699    -3.3004 H       
  47 H47            0.3292    -6.3515    -1.5912 H       
  48 H48           -0.9025    -6.7825    -0.3809 H       
@<TRIPOS>BOND
   1    1    2 1
   2    1    9 1
   3    1   23 1
   4    1   24 1
   5    2    3 ar
   6    2    7 ar
   7    3    4 ar
   8    3   25 1
   9    4    5 ar
  10    4   26 1
  11    5    6 ar
  12    5    8 1
  13    6    7 ar
  14    6   27 1
  15    7   28 1
  16    8   16 1
  17    8   17 1
  18    8   29 1
  19    9   10 1
  20    9   13 am
  21   10   11 1
  22   10   30 1
  23   10   31 1
  24   11   12 1
  25   11   14 1
  26   11   32 1
  27   12   13 1
  28   13   15 2
  29   14   33 1
  30   14   34 1
  31   14   35 1
  32   16   18 1
  33   16   22 1
  34   17   36 1
  35   17   37 1
  36   17   38 1
  37   18   19 1
  38   18   39 1
  39   18   40 1
  40   19   20 1
  41   19   41 1
  42   19   42 1
  43   20   21 1
  44   20   43 1
  45   20   44 1
  46   21   22 1
  47   21   45 1
  48   21   46 1
  49   22   47 1
  50   22   48 1

#	End of record

