#	Name: ASD08150519
#	Creating user name:	WinNT
#	Creation time:	15. 06. 2019 21:16

#	Modifying user name:	WinNT
#	Modification time:	15. 06. 2019 21:16

#	Program:	/corina/corina34_cracker 3.40 0067  02.08.2006

@<TRIPOS>MOLECULE
ASD08150519
  28   29    0    0    0
SMALL
NO_CHARGES


@<TRIPOS>ATOM
   1 C1            -0.0194     1.4668     0.0391 C.2     
   2 C2            -0.0024    -0.0065     0.0448 C.ar    
   3 C3            -0.0064    -0.7086     1.2608 C.ar    
   4 C4             0.0098    -2.0972     1.2527 C.ar    
   5 C5             0.0297    -2.7824     0.0544 C.ar    
   6 C6             0.0341    -2.0943    -1.1475 C.ar    
   7 C7             0.0120    -0.7148    -1.1608 C.ar    
   8 O8             1.0268     2.0870     0.0472 O.2     
   9 N9            -1.1941     2.1271     0.0193 N.am    
  10 C10           -1.2149     3.5214     0.1326 C.ar    
  11 C11           -2.1871     4.2600    -0.5320 C.ar    
  12 C12           -2.2043     5.6370    -0.4177 C.ar    
  13 C13           -1.2553     6.2797     0.3564 C.ar    
  14 C14           -0.2873     5.5476     1.0183 C.ar    
  15 C15           -0.2679     4.1701     0.9135 C.ar    
  16 Cl16          -3.3777     3.4536    -1.5046 Cl      
  17 Cl17           0.0099     0.1402    -2.6717 Cl      
  18 N18           -0.0259    -0.0178     2.4656 N.pl3   
  19 H19            0.0072    -2.6419     2.1853 H       
  20 H20            0.0422    -3.8623     0.0543 H       
  21 H21            0.0501    -2.6404    -2.0791 H       
  22 H22           -2.0252     1.6356    -0.0735 H       
  23 H23           -2.9592     6.2118    -0.9336 H       
  24 H24           -1.2704     7.3561     0.4436 H       
  25 H25            0.4524     6.0529     1.6216 H       
  26 H26            0.4858     3.5989     1.4349 H       
  27 H27           -0.0368     0.9521     2.4684 H       
  28 H28           -0.0286    -0.5053     3.3041 H       
@<TRIPOS>BOND
   1    1    2 1
   2    1    8 2
   3    1    9 am
   4    2    3 ar
   5    2    7 ar
   6    3    4 ar
   7    3   18 1
   8    4    5 ar
   9    4   19 1
  10    5    6 ar
  11    5   20 1
  12    6    7 ar
  13    6   21 1
  14    7   17 1
  15    9   10 1
  16    9   22 1
  17   10   11 ar
  18   10   15 ar
  19   11   12 ar
  20   11   16 1
  21   12   13 ar
  22   12   23 1
  23   13   14 ar
  24   13   24 1
  25   14   15 ar
  26   14   25 1
  27   15   26 1
  28   18   27 1
  29   18   28 1

#	End of record

