#	Name: ASD01914123
#	Creating user name:	WinNT
#	Creation time:	15. 06. 2019 20:02

#	Modifying user name:	WinNT
#	Modification time:	15. 06. 2019 20:02

#	Program:	/corina/corina34_cracker 3.40 0067  02.08.2006

@<TRIPOS>MOLECULE
ASD01914123
  50   53    0    0    0
SMALL
NO_CHARGES


@<TRIPOS>ATOM
   1 C1             0.9875     1.6640     0.2865 C.ar    
   2 C2             0.8760     0.2901     0.2643 C.ar    
   3 C3             2.0245    -0.4998     0.1837 C.ar    
   4 C4             3.2806     0.1073     0.1260 C.ar    
   5 C5             3.3806     1.4821     0.1489 C.ar    
   6 C6             2.2370     2.2616     0.2291 C.ar    
   7 F7             2.3406     3.6084     0.2507 F       
   8 C8             1.9112    -1.9727     0.1600 C.2     
   9 N9             2.9057    -2.8399     0.0865 N.2     
  10 C10            2.3280    -4.0512     0.0950 C.2     
  11 N11            1.0421    -3.8737     0.1713 N.2     
  12 O12            0.7786    -2.6906     0.2149 O.3     
  13 C13            3.0407    -5.3773     0.0275 C.3     
  14 C14            2.7193    -6.1943     1.2810 C.3     
  15 C15            3.4685    -7.5277     1.2289 C.3     
  16 C16            3.0060    -8.3212     0.0029 C.3     
  17 N17            3.1774    -7.4856    -1.1934 N.am    
  18 C18            2.5733    -6.1464    -1.2122 C.3     
  19 C19            1.5308    -8.6949     0.1604 C.3     
  20 C20            3.8754    -7.9390    -2.2534 C.2     
  21 C21            3.9302    -7.1409    -3.5006 C.ar    
  22 C22            5.1202    -7.0249    -4.2275 C.ar    
  23 C23            5.1300    -6.2726    -5.3847 C.ar    
  24 N24            4.0385    -5.6666    -5.8095 N.ar    
  25 C25            2.8926    -5.7484    -5.1553 C.ar    
  26 C26            2.7945    -6.4893    -3.9851 C.ar    
  27 O27            4.4598    -9.0022    -2.1864 O.2     
  28 O28            1.7987    -5.1050    -5.6355 O.3     
  29 C29            1.9616    -4.3634    -6.8461 C.3     
  30 H30            0.0995     2.2760     0.3444 H       
  31 H31           -0.0980    -0.1745     0.3095 H       
  32 H32            4.1722    -0.4990     0.0639 H       
  33 H33            4.3516     1.9528     0.1043 H       
  34 H34            4.1161    -5.2098    -0.0317 H       
  35 H35            3.0286    -5.6383     2.1661 H       
  36 H36            1.6466    -6.3821     1.3269 H       
  37 H37            4.5400    -7.3404     1.1581 H       
  38 H38            3.2576    -8.0991     2.1329 H       
  39 H39            3.6059    -9.2260    -0.0944 H       
  40 H40            1.4870    -6.2353    -1.1990 H       
  41 H41            2.8878    -5.6163    -2.1112 H       
  42 H42            0.9337    -7.7875     0.2511 H       
  43 H43            1.2037    -9.2594    -0.7128 H       
  44 H44            1.4039    -9.3042     1.0553 H       
  45 H45            6.0192    -7.5172    -3.8874 H       
  46 H46            6.0452    -6.1786    -5.9504 H       
  47 H47            1.8565    -6.5536    -3.4535 H       
  48 H48            1.0135    -3.8997    -7.1184 H       
  49 H49            2.7155    -3.5900    -6.6997 H       
  50 H50            2.2799    -5.0349    -7.6435 H       
@<TRIPOS>BOND
   1    1    2 ar
   2    1    6 ar
   3    1   30 1
   4    2    3 ar
   5    2   31 1
   6    3    4 ar
   7    3    8 1
   8    4    5 ar
   9    4   32 1
  10    5    6 ar
  11    5   33 1
  12    6    7 1
  13    8    9 2
  14    8   12 1
  15    9   10 1
  16   10   11 2
  17   10   13 1
  18   11   12 1
  19   13   14 1
  20   13   18 1
  21   13   34 1
  22   14   15 1
  23   14   35 1
  24   14   36 1
  25   15   16 1
  26   15   37 1
  27   15   38 1
  28   16   17 1
  29   16   19 1
  30   16   39 1
  31   17   18 1
  32   17   20 am
  33   18   40 1
  34   18   41 1
  35   19   42 1
  36   19   43 1
  37   19   44 1
  38   20   21 1
  39   20   27 2
  40   21   22 ar
  41   21   26 ar
  42   22   23 ar
  43   22   45 1
  44   23   24 ar
  45   23   46 1
  46   24   25 ar
  47   25   26 ar
  48   25   28 1
  49   26   47 1
  50   28   29 1
  51   29   48 1
  52   29   49 1
  53   29   50 1

#	End of record

