#	Name: ASD04590252
#	Creating user name:	WinNT
#	Creation time:	15. 06. 2019 20:50

#	Modifying user name:	WinNT
#	Modification time:	15. 06. 2019 20:50

#	Program:	/corina/corina34_cracker 3.40 0067  02.08.2006

@<TRIPOS>MOLECULE
ASD04590252
  46   48    0    0    0
SMALL
NO_CHARGES


@<TRIPOS>ATOM
   1 N1            -0.0169     1.3950     0.0097 N.pl3   
   2 N2             0.0021    -0.0041     0.0020 N.2     
   3 C3             1.2467    -0.4104    -0.0120 C.2     
   4 C4             2.0789     0.7381    -0.0138 C.2     
   5 C5             1.2484     1.8413     0.0000 C.2     
   6 N6             1.6782    -1.7391    -0.0229 N.am    
   7 C7             3.5511     0.7515    -0.0274 C.2     
   8 O8             4.1688    -0.2962    -0.0385 O.2     
   9 N9             4.2143     1.9248    -0.0275 N.am    
  10 C10            5.6792     1.9382    -0.0410 C.3     
  11 C11            6.1733     3.2539    -0.6487 C.3     
  12 C12            7.7027     3.2880    -0.6043 C.3     
  13 N13            8.1560     3.1702     0.7874 N.3     
  14 C14            7.7337     1.8934     1.3772 C.3     
  15 C15            6.2052     1.8176     1.3920 C.3     
  16 C16            0.7763    -2.7406    -0.0197 C.2     
  17 O17           -0.4130    -2.4877    -0.0074 O.2     
  18 C18            1.2322    -4.1441    -0.0312 C.ar    
  19 C19            0.2986    -5.1840    -0.0279 C.ar    
  20 C20            0.7281    -6.4922    -0.0391 C.ar    
  21 C21            2.0880    -6.7792    -0.0532 C.ar    
  22 C22            3.0198    -5.7477    -0.0560 C.ar    
  23 C23            2.5985    -4.4368    -0.0512 C.ar    
  24 O24            2.5072    -8.0699    -0.0637 O.3     
  25 C25            3.9186    -8.2935    -0.0780 C.3     
  26 F26            4.4718    -7.7092    -1.2224 F       
  27 F27            4.4929    -7.7210     1.0620 F       
  28 H28           -0.8125     1.9499     0.0166 H       
  29 H29            1.5606     2.8752     0.0019 H       
  30 H30            2.6270    -1.9408    -0.0327 H       
  31 H31            3.7217     2.7604    -0.0186 H       
  32 H32            6.0457     1.1018    -0.6361 H       
  33 H33            5.8376     3.3256    -1.6832 H       
  34 H34            5.7739     4.0915    -0.0769 H       
  35 H35            8.1015     2.4582    -1.1877 H       
  36 H36            8.0572     4.2298    -1.0233 H       
  37 H37            9.1563     3.2854     0.8529 H       
  38 H38            8.1324     1.0701     0.7845 H       
  39 H39            8.1107     1.8222     2.3974 H       
  40 H40            5.8063     2.6327     1.9959 H       
  41 H41            5.8923     0.8633     1.8154 H       
  42 H42           -0.7582    -4.9618    -0.0162 H       
  43 H43            0.0072    -7.2965    -0.0366 H       
  44 H44            4.0756    -5.9748    -0.0663 H       
  45 H45            3.3231    -3.6359    -0.0534 H       
  46 H46            4.1165    -9.3654    -0.0853 H       
@<TRIPOS>BOND
   1    1    2 1
   2    1    5 1
   3    1   28 1
   4    2    3 2
   5    3    4 1
   6    3    6 1
   7    4    5 2
   8    4    7 1
   9    5   29 1
  10    6   16 am
  11    6   30 1
  12    7    8 2
  13    7    9 am
  14    9   10 1
  15    9   31 1
  16   10   11 1
  17   10   15 1
  18   10   32 1
  19   11   12 1
  20   11   33 1
  21   11   34 1
  22   12   13 1
  23   12   35 1
  24   12   36 1
  25   13   14 1
  26   13   37 1
  27   14   15 1
  28   14   38 1
  29   14   39 1
  30   15   40 1
  31   15   41 1
  32   16   17 2
  33   16   18 1
  34   18   19 ar
  35   18   23 ar
  36   19   20 ar
  37   19   42 1
  38   20   21 ar
  39   20   43 1
  40   21   22 ar
  41   21   24 1
  42   22   23 ar
  43   22   44 1
  44   23   45 1
  45   24   25 1
  46   25   26 1
  47   25   27 1
  48   25   46 1

#	End of record

