#	Name: ASD00960148
#	Creating user name:	WinNT
#	Creation time:	15. 06. 2019 18:53

#	Modifying user name:	WinNT
#	Modification time:	15. 06. 2019 18:53

#	Program:	/corina/corina34_cracker 3.40 0067  02.08.2006

@<TRIPOS>MOLECULE
ASD00960148
  50   52    0    0    0
SMALL
NO_CHARGES


@<TRIPOS>ATOM
   1 C1            -0.0187     1.5258     0.0104 C.3     
   2 C2            -0.7939     2.0498     1.2396 C.3     
   3 O3            -2.1388     2.2699     0.7613 O.3     
   4 C4            -1.9852     2.8481    -0.5533 C.3     
   5 C5            -3.2663     2.6636    -1.3692 C.3     
   6 C6            -0.7904     1.0203     2.3401 C.2     
   7 C7             0.1928     0.8597     3.2580 C.2     
   8 N8            -1.7720     0.1165     2.5682 N.pl3   
   9 C9            -1.4197    -0.6548     3.6562 C.2     
  10 C10           -0.1794    -0.2012     4.1080 C.2     
  11 N11           -2.9944    -0.1488     1.9339 N.2     
  12 C12           -3.7656    -1.1047     2.3756 C.2     
  13 N13           -3.4366    -1.8553     3.4246 N.2     
  14 C14           -2.3007    -1.6709     4.0790 C.2     
  15 N15           -1.9833    -2.4635     5.1646 N.pl3   
  16 C16           -0.8173     2.0630    -1.1982 C.3     
  17 O17           -0.0073     2.9327    -1.9916 O.3     
  18 C18            0.0021    -0.0041     0.0020 C.3     
  19 O19           -4.3194     3.4310    -0.7825 O.3     
  20 O20            1.3133     2.0434     0.0005 O.3     
  21 C21            0.5678    -0.7127     5.2174 C.1     
  22 C22            1.1803    -1.1320     6.1269 C.1     
  23 Si23           2.1717    -1.8107     7.5988 Si      
  24 C24            3.7593    -0.8516     7.7734 C.3     
  25 C25            1.1664    -1.6368     9.1577 C.3     
  26 C26            2.5615    -3.6092     7.3087 C.3     
  27 H27           -0.3588     2.9849     1.5922 H       
  28 H28           -1.7328     3.9056    -0.4756 H       
  29 H29           -3.0974     3.0006    -2.3919 H       
  30 H30           -3.5446     1.6097    -1.3752 H       
  31 H31            1.1006     1.4409     3.3260 H       
  32 H32           -4.7028    -1.2930     1.8731 H       
  33 H33           -2.5942    -3.1602     5.4516 H       
  34 H34           -1.1494    -2.3236     5.6400 H       
  35 H35           -1.1981     1.2386    -1.8010 H       
  36 H36           -0.4782     3.3453    -2.7286 H       
  37 H37            0.5184    -0.3653     0.8914 H       
  38 H38           -1.0206    -0.3813    -0.0028 H       
  39 H39            0.5232    -0.3555    -0.8885 H       
  40 H40           -5.1636     3.3615    -1.2490 H       
  41 H41            1.8359     1.7695    -0.7656 H       
  42 H42            3.5312     0.2007     7.9432 H       
  43 H43            4.3280    -1.2409     8.6179 H       
  44 H44            4.3474    -0.9533     6.8614 H       
  45 H45            0.2376    -2.1979     9.0555 H       
  46 H46            1.7352    -2.0261    10.0021 H       
  47 H47            0.9384    -0.5845     9.3274 H       
  48 H48            3.1496    -3.7110     6.3966 H       
  49 H49            3.1302    -3.9986     8.1531 H       
  50 H50            1.6326    -4.1704     7.2065 H       
@<TRIPOS>BOND
   1    1   18 1
   2    1   20 1
   3    1    2 1
   4    1   16 1
   5    2    3 1
   6    2    6 1
   7    2   27 1
   8    3    4 1
   9    4   16 1
  10    4    5 1
  11    4   28 1
  12    5   19 1
  13    5   29 1
  14    5   30 1
  15    6    7 2
  16    6    8 1
  17    7   10 1
  18    7   31 1
  19    8    9 1
  20    8   11 1
  21    9   10 2
  22    9   14 1
  23   10   21 1
  24   11   12 2
  25   12   13 1
  26   12   32 1
  27   13   14 2
  28   14   15 1
  29   15   33 1
  30   15   34 1
  31   16   17 1
  32   16   35 1
  33   17   36 1
  34   18   37 1
  35   18   38 1
  36   18   39 1
  37   19   40 1
  38   20   41 1
  39   21   22 3
  40   22   23 1
  41   23   24 1
  42   23   25 1
  43   23   26 1
  44   24   42 1
  45   24   43 1
  46   24   44 1
  47   25   45 1
  48   25   46 1
  49   25   47 1
  50   26   48 1
  51   26   49 1
  52   26   50 1

#	End of record

