#	Name: ASD01901251
#	Creating user name:	WinNT
#	Creation time:	15. 06. 2019 19:53

#	Modifying user name:	WinNT
#	Modification time:	15. 06. 2019 19:53

#	Program:	/corina/corina34_cracker 3.40 0067  02.08.2006

@<TRIPOS>MOLECULE
ASD01901251
  43   47    0    0    0
SMALL
NO_CHARGES


@<TRIPOS>ATOM
   1 C1            -0.0158     1.3123     0.0093 C.ar    
   2 N2             0.0021    -0.0041     0.0020 N.ar    
   3 C3             1.1316    -0.6859    -0.0125 C.ar    
   4 C4             2.3557    -0.0416    -0.0203 C.ar    
   5 C5             2.3936     1.3414    -0.0132 C.ar    
   6 C6             1.1782     2.0387     0.0018 C.ar    
   7 C7             1.1598     3.4705     0.0092 C.1     
   8 C8             1.1447     4.6444     0.0153 C.1     
   9 C9             1.1264     6.0763     0.0227 C.ar    
  10 C10           -0.1060     8.1410     0.0505 C.ar    
  11 C11           -0.0921     6.7612     0.0434 C.ar    
  12 C12            2.3269     6.7923     0.0151 C.ar    
  13 C13            2.3055     8.1720     0.0223 C.ar    
  14 C14            1.0908     8.8506     0.0371 C.ar    
  15 F15           -1.2832     8.8037     0.0705 F       
  16 N16            1.0728    10.2520     0.0438 N.am    
  17 C17            1.0811    10.8964     1.2353 C.2     
  18 C18            1.0369    12.9760    -0.0474 C.ar    
  19 N19            1.0357    12.2483    -1.2122 N.am    
  20 C20            1.0536    10.9025    -1.1323 C.2     
  21 C21            1.0066    13.1928    -2.3379 C.3     
  22 O22            1.0526    10.2541    -2.1608 O.2     
  23 O23            1.1038    10.2834     2.2853 O.2     
  24 F24            3.4653     8.8649     0.0154 F       
  25 C25            1.0621    12.3687     1.2086 C.ar    
  26 C26            1.0175    14.3394    -0.2108 C.ar    
  27 C27            1.0679    13.1784     2.3410 C.ar    
  28 C28            1.0489    14.5513     2.1779 C.ar    
  29 C29            1.0237    15.1345     0.9162 C.ar    
  30 C30            0.9906    14.5982    -1.6979 C.3     
  31 H31           -0.9608     1.8351     0.0166 H       
  32 H32            1.1000    -1.7654    -0.0180 H       
  33 H33            3.2725    -0.6123    -0.0314 H       
  34 H34            3.3354     1.8699    -0.0187 H       
  35 H35           -1.0214     6.2110     0.0535 H       
  36 H36            3.2701     6.2663     0.0040 H       
  37 H37            1.8960    13.0702    -2.9560 H       
  38 H38            0.1076    13.0402    -2.9351 H       
  39 H39            1.0867    12.7422     3.3288 H       
  40 H40            1.0534    15.1859     3.0517 H       
  41 H41            1.0092    16.2099     0.8185 H       
  42 H42            1.8732    15.1628    -1.9983 H       
  43 H43            0.0828    15.1329    -1.9775 H       
@<TRIPOS>BOND
   1    1    2 ar
   2    1    6 ar
   3    1   31 1
   4    2    3 ar
   5    3    4 ar
   6    3   32 1
   7    4    5 ar
   8    4   33 1
   9    5    6 ar
  10    5   34 1
  11    6    7 1
  12    7    8 3
  13    8    9 1
  14    9   12 ar
  15    9   11 ar
  16   10   11 ar
  17   10   14 ar
  18   10   15 1
  19   11   35 1
  20   12   13 ar
  21   12   36 1
  22   13   14 ar
  23   13   24 1
  24   14   16 1
  25   16   17 am
  26   16   20 am
  27   17   25 1
  28   17   23 2
  29   18   19 1
  30   18   25 ar
  31   18   26 ar
  32   19   20 am
  33   19   21 1
  34   20   22 2
  35   21   30 1
  36   21   37 1
  37   21   38 1
  38   25   27 ar
  39   26   29 ar
  40   26   30 1
  41   27   28 ar
  42   27   39 1
  43   28   29 ar
  44   28   40 1
  45   29   41 1
  46   30   42 1
  47   30   43 1

#	End of record

