#	Name: ASD09740361
#	Creating user name:	WinNT
#	Creation time:	15. 06. 2019 21:23

#	Modifying user name:	WinNT
#	Modification time:	15. 06. 2019 21:23

#	Program:	/corina/corina34_cracker 3.40 0067  02.08.2006

@<TRIPOS>MOLECULE
ASD09740361
  56   59    0    0    0
SMALL
NO_CHARGES


@<TRIPOS>ATOM
   1 O1            -0.0173     1.4248     0.0099 O.3     
   2 O2             0.0898     4.1745     0.0227 O.3     
   3 N3             6.1179    -0.4648    -0.0599 N.2     
   4 O4             4.9484    -0.1442    -0.0466 O.3     
   5 C5             6.8810     0.5976    -0.0617 C.2     
   6 N6             6.0706     1.6761    -0.0479 N.2     
   7 C7             4.8414     1.1938    -0.0383 C.2     
   8 C8             3.5890     1.9764    -0.0221 C.ar    
   9 C9             8.3659     0.6136    -0.0763 C.ar    
  10 C10            9.0960    -0.5770    -0.0905 C.ar    
  11 C11           10.4753    -0.5170    -0.1043 C.ar    
  12 N12           11.1022     0.6432    -0.1038 N.ar    
  13 C13           10.4503     1.7898    -0.0906 C.ar    
  14 C14            9.0704     1.8201    -0.0822 C.ar    
  15 C15            2.3547     1.3221    -0.0133 C.ar    
  16 C16            1.1859     2.0586     0.0018 C.ar    
  17 C17            1.2400     3.4515     0.0083 C.ar    
  18 C18            2.4659     4.1011    -0.0004 C.ar    
  19 C19            3.6361     3.3717    -0.0097 C.ar    
  20 C20            0.2182     5.5977     0.0287 C.3     
  21 C21           -1.1726     6.2352     0.0449 C.3     
  22 C22            0.0021    -0.0041     0.0020 C.3     
  23 C23           -1.4333    -0.5336     0.0129 C.3     
  24 C24           11.2750    -1.7941    -0.1197 C.3     
  25 N25           11.6231    -2.1373    -1.5051 N.3     
  26 C26           12.6137    -1.1914    -2.0508 C.3     
  27 C27           13.8304    -2.0201    -2.5138 C.3     
  28 C28           13.2293    -3.4343    -2.7269 C.3     
  29 C29           12.1814    -3.5037    -1.5881 C.3     
  30 O30           14.2275    -4.4443    -2.5662 O.3     
  31 H31            8.5891    -1.5307    -0.0904 H       
  32 H32           11.0036     2.7173    -0.0907 H       
  33 H33            8.5431     2.7625    -0.0718 H       
  34 H34            2.3142     0.2428    -0.0187 H       
  35 H35            2.5038     5.1804     0.0047 H       
  36 H36            4.5891     3.8799    -0.0164 H       
  37 H37            0.7709     5.9090     0.9151 H       
  38 H38            0.7542     5.9179    -0.8648 H       
  39 H39           -1.0747     7.3208     0.0494 H       
  40 H40           -1.7253     5.9239    -0.8415 H       
  41 H41           -1.7086     5.9150     0.9383 H       
  42 H42            0.5123    -0.3556    -0.8948 H       
  43 H43            0.5293    -0.3651     0.8851 H       
  44 H44           -1.4185    -1.6235     0.0069 H       
  45 H45           -1.9435    -0.1821     0.9097 H       
  46 H46           -1.9605    -0.1726    -0.8702 H       
  47 H47           12.1873    -1.6586     0.4612 H       
  48 H48           10.6830    -2.5989     0.3161 H       
  49 H49           12.1864    -0.6548    -2.8980 H       
  50 H50           12.9180    -0.4860    -1.2776 H       
  51 H51           14.2313    -1.6270    -3.4481 H       
  52 H52           14.5992    -2.0404    -1.7415 H       
  53 H53           12.7508    -3.5123    -3.7031 H       
  54 H54           12.6605    -3.7757    -0.6476 H       
  55 H55           11.3978    -4.2194    -1.8367 H       
  56 H56           14.9563    -4.3810    -3.1985 H       
@<TRIPOS>BOND
   1    1   22 1
   2    1   16 1
   3    2   20 1
   4    2   17 1
   5    3    4 1
   6    3    5 2
   7    4    7 1
   8    5    6 1
   9    5    9 1
  10    6    7 2
  11    7    8 1
  12    8   15 ar
  13    8   19 ar
  14    9   10 ar
  15    9   14 ar
  16   10   11 ar
  17   10   31 1
  18   11   12 ar
  19   11   24 1
  20   12   13 ar
  21   13   14 ar
  22   13   32 1
  23   14   33 1
  24   15   16 ar
  25   15   34 1
  26   16   17 ar
  27   17   18 ar
  28   18   19 ar
  29   18   35 1
  30   19   36 1
  31   20   21 1
  32   20   37 1
  33   20   38 1
  34   21   39 1
  35   21   40 1
  36   21   41 1
  37   22   23 1
  38   22   42 1
  39   22   43 1
  40   23   44 1
  41   23   45 1
  42   23   46 1
  43   24   25 1
  44   24   47 1
  45   24   48 1
  46   25   26 1
  47   25   29 1
  48   26   27 1
  49   26   49 1
  50   26   50 1
  51   27   28 1
  52   27   51 1
  53   27   52 1
  54   28   29 1
  55   28   30 1
  56   28   53 1
  57   29   54 1
  58   29   55 1
  59   30   56 1

#	End of record

