#	Name: ASD03331208
#	Creating user name:	WinNT
#	Creation time:	15. 06. 2019 20:38

#	Modifying user name:	WinNT
#	Modification time:	15. 06. 2019 20:38

#	Program:	/corina/corina34_cracker 3.40 0067  02.08.2006

@<TRIPOS>MOLECULE
ASD03331208
  43   45    0    0    0
SMALL
NO_CHARGES


@<TRIPOS>ATOM
   1 N1             0.7486    -0.1564     0.2943 N.am    
   2 C2             1.0346    -1.1295    -0.7708 C.3     
   3 C3             1.8224    -0.4215    -1.8782 C.3     
   4 N4             3.0047     0.2272    -1.2956 N.3     
   5 C5             2.6211     1.2716    -0.3364 C.3     
   6 C6             1.8660     0.6329     0.8342 C.3     
   7 C7            -0.5052     0.0114     0.7595 C.2     
   8 O8            -1.4323    -0.5730     0.2330 O.2     
   9 N9            -0.7313     0.8272     1.8083 N.am    
  10 C10           -2.0416     1.0724     2.2343 C.ar    
  11 C11           -2.3944     2.3276     2.7121 C.ar    
  12 C12           -3.6885     2.5666     3.1313 C.ar    
  13 C13           -4.6324     1.5575     3.0757 C.ar    
  14 C14           -4.2841     0.3065     2.6004 C.ar    
  15 C15           -2.9930     0.0627     2.1747 C.ar    
  16 C16            3.8775     0.7708    -2.3447 C.3     
  17 C17            5.0274     1.5089    -1.7090 C.ar    
  18 C18            5.2928     2.8165    -2.0689 C.ar    
  19 C19            6.3477     3.4937    -1.4857 C.ar    
  20 C20            7.1373     2.8633    -0.5425 C.ar    
  21 C21            6.8725     1.5553    -0.1818 C.ar    
  22 C22            5.8139     0.8794    -0.7608 C.ar    
  23 Br23           5.4512    -0.9099    -0.2679 Br      
  24 H24            1.6273    -1.9504    -0.3673 H       
  25 H25            0.0988    -1.5145    -1.1760 H       
  26 H26            2.1382    -1.1514    -2.6235 H       
  27 H27            1.1904     0.3308    -2.3502 H       
  28 H28            3.5162     1.7694     0.0365 H       
  29 H29            1.9779     2.0002    -0.8299 H       
  30 H30            1.4799     1.4131     1.4902 H       
  31 H31            2.5387    -0.0186     1.3920 H       
  32 H32            0.0142     1.2443     2.2678 H       
  33 H33           -1.6577     3.1160     2.7561 H       
  34 H34           -3.9635     3.5425     3.5034 H       
  35 H35           -5.6436     1.7467     3.4044 H       
  36 H36           -5.0236    -0.4796     2.5582 H       
  37 H37           -2.7228    -0.9133     1.7994 H       
  38 H38            4.2630    -0.0454    -2.9557 H       
  39 H39            3.3079     1.4566    -2.9719 H       
  40 H40            4.6763     3.3093    -2.8061 H       
  41 H41            6.5550     4.5155    -1.7674 H       
  42 H42            7.9614     3.3926    -0.0874 H       
  43 H43            7.4898     1.0627     0.5549 H       
@<TRIPOS>BOND
   1    1    2 1
   2    1    6 1
   3    1    7 am
   4    2    3 1
   5    2   24 1
   6    2   25 1
   7    3    4 1
   8    3   26 1
   9    3   27 1
  10    4    5 1
  11    4   16 1
  12    5    6 1
  13    5   28 1
  14    5   29 1
  15    6   30 1
  16    6   31 1
  17    7    8 2
  18    7    9 am
  19    9   10 1
  20    9   32 1
  21   10   11 ar
  22   10   15 ar
  23   11   12 ar
  24   11   33 1
  25   12   13 ar
  26   12   34 1
  27   13   14 ar
  28   13   35 1
  29   14   15 ar
  30   14   36 1
  31   15   37 1
  32   16   17 1
  33   16   38 1
  34   16   39 1
  35   17   18 ar
  36   17   22 ar
  37   18   19 ar
  38   18   40 1
  39   19   20 ar
  40   19   41 1
  41   20   21 ar
  42   20   42 1
  43   21   22 ar
  44   21   43 1
  45   22   23 1

#	End of record

