#	Name: ASD01910396
#	Creating user name:	WinNT
#	Creation time:	15. 06. 2019 19:55

#	Modifying user name:	WinNT
#	Modification time:	15. 06. 2019 19:55

#	Program:	/corina/corina34_cracker 3.40 0067  02.08.2006

@<TRIPOS>MOLECULE
ASD01910396
  54   57    0    0    0
SMALL
NO_CHARGES


@<TRIPOS>ATOM
   1 C1             0.2002     1.4706     0.2852 C.ar    
   2 C2             0.1867     0.0398     0.2285 C.1     
   3 C3             0.1756    -1.1332     0.1820 C.1     
   4 C4             0.1621    -2.5640     0.1254 C.ar    
   5 C5            -0.8653    -3.2280    -0.5542 C.ar    
   6 C6            -0.8773    -4.5926    -0.6083 C.ar    
   7 C7             0.1363    -5.3261     0.0155 C.ar    
   8 C8             1.1627    -4.6635     0.6951 C.ar    
   9 C9             1.1794    -3.2987     0.7446 C.ar    
  10 C10            0.1223    -6.8012    -0.0429 C.2     
  11 O11           -0.9334    -7.4018     0.0111 O.2     
  12 N12            1.2799    -7.4821    -0.1561 N.am    
  13 C13            1.2249     2.1369     0.9631 C.ar    
  14 C14            1.2312     3.5151     1.0134 C.ar    
  15 C15            0.2261     4.2381     0.3952 C.ar    
  16 C16           -0.7917     3.5854    -0.2779 C.ar    
  17 C17           -0.8080     2.2079    -0.3421 C.ar    
  18 C18            1.3022    -8.9508    -0.0821 C.3     
  19 C19            2.0686    -9.4878    -1.2956 C.3     
  20 N20            3.3899    -8.8490    -1.3580 N.3     
  21 C21            3.2716    -7.3987    -1.5595 C.3     
  22 C22            2.5537    -6.7764    -0.3630 C.3     
  23 C23            4.1818    -9.4309    -2.3547 C.ar    
  24 C24            4.6056   -10.7519    -2.2275 C.ar    
  25 C25            5.3891   -11.3226    -3.2169 C.ar    
  26 C26            5.7495   -10.5816    -4.3274 C.ar    
  27 C27            5.3293    -9.2705    -4.4544 C.ar    
  28 C28            4.5420    -8.6956    -3.4745 C.ar    
  29 O29            4.2512   -11.4793    -1.1342 O.3     
  30 C30            4.7220   -12.8270    -1.0713 C.3     
  31 H31           -1.6487    -2.6614    -1.0356 H       
  32 H32           -1.6702    -5.1051    -1.1328 H       
  33 H33            1.9450    -5.2308     1.1774 H       
  34 H34            1.9724    -2.7869     1.2696 H       
  35 H35            2.0095     1.5740     1.4466 H       
  36 H36            2.0223     4.0314     1.5369 H       
  37 H37            0.2359     5.3172     0.4386 H       
  38 H38           -1.5729     4.1563    -0.7576 H       
  39 H39           -1.6029     1.6998    -0.8677 H       
  40 H40            1.8021    -9.2638     0.8345 H       
  41 H41            0.2817    -9.3336    -0.0949 H       
  42 H42            2.1904   -10.5668    -1.2005 H       
  43 H43            1.5125    -9.2630    -2.2057 H       
  44 H44            4.2659    -6.9625    -1.6559 H       
  45 H45            2.6987    -7.2029    -2.4660 H       
  46 H46            2.3620    -5.7215    -0.5591 H       
  47 H47            3.1716    -6.8795     0.5289 H       
  48 H48            5.7191   -12.3464    -3.1208 H       
  49 H49            6.3611   -11.0281    -5.0975 H       
  50 H50            5.6132    -8.6957    -5.3235 H       
  51 H51            4.2149    -7.6714    -3.5764 H       
  52 H52            4.3445   -13.3842    -1.9287 H       
  53 H53            5.8119   -12.8323    -1.0858 H       
  54 H54            4.3687   -13.2927    -0.1512 H       
@<TRIPOS>BOND
   1    1    2 1
   2    1   13 ar
   3    1   17 ar
   4    2    3 3
   5    3    4 1
   6    4    5 ar
   7    4    9 ar
   8    5    6 ar
   9    5   31 1
  10    6    7 ar
  11    6   32 1
  12    7    8 ar
  13    7   10 1
  14    8    9 ar
  15    8   33 1
  16    9   34 1
  17   10   11 2
  18   10   12 am
  19   12   18 1
  20   12   22 1
  21   13   14 ar
  22   13   35 1
  23   14   15 ar
  24   14   36 1
  25   15   16 ar
  26   15   37 1
  27   16   17 ar
  28   16   38 1
  29   17   39 1
  30   18   19 1
  31   18   40 1
  32   18   41 1
  33   19   20 1
  34   19   42 1
  35   19   43 1
  36   20   21 1
  37   20   23 1
  38   21   22 1
  39   21   44 1
  40   21   45 1
  41   22   46 1
  42   22   47 1
  43   23   24 ar
  44   23   28 ar
  45   24   25 ar
  46   24   29 1
  47   25   26 ar
  48   25   48 1
  49   26   27 ar
  50   26   49 1
  51   27   28 ar
  52   27   50 1
  53   28   51 1
  54   29   30 1
  55   30   52 1
  56   30   53 1
  57   30   54 1

#	End of record

