#	Name: ASD01320022
#	Creating user name:	WinNT
#	Creation time:	15. 06. 2019 19:15

#	Modifying user name:	WinNT
#	Modification time:	15. 06. 2019 19:15

#	Program:	/corina/corina34_cracker 3.40 0067  02.08.2006

@<TRIPOS>MOLECULE
ASD01320022
  48   50    0    0    0
SMALL
NO_CHARGES


@<TRIPOS>ATOM
   1 C1            -0.0360     1.6782    -0.1563 C.ar    
   2 C2            -0.0145     0.2995    -0.2536 C.ar    
   3 C3            -1.1883    -0.4237    -0.1138 C.ar    
   4 C4            -2.3886     0.2425     0.1253 C.ar    
   5 C5            -2.4019     1.6265     0.2221 C.ar    
   6 C6            -1.2260     2.3396     0.0866 C.ar    
   7 O7            -1.1689    -1.7797    -0.2101 O.3     
   8 C8             0.0282    -2.3873    -0.4068 C.ar    
   9 C9             0.8852    -2.5914     0.6677 C.ar    
  10 C10            2.1119    -3.2137     0.4679 C.ar    
  11 C11            2.4778    -3.6338    -0.8263 C.ar    
  12 C12            1.6067    -3.4217    -1.8939 C.ar    
  13 C13            0.3897    -2.8080    -1.6813 C.ar    
  14 N14           -3.5779    -0.4826     0.2670 N.am    
  15 C15           -4.7542     0.0782    -0.0771 C.2     
  16 C16           -5.9942    -0.7257    -0.0434 C.ar    
  17 O17           -4.7953     1.2452    -0.4153 O.2     
  18 C18           -7.2139    -0.1481    -0.3991 C.ar    
  19 C19           -8.3675    -0.9042    -0.3659 C.ar    
  20 C20           -8.3171    -2.2319     0.0194 C.ar    
  21 C21           -7.1111    -2.8108     0.3733 C.ar    
  22 C22           -5.9495    -2.0677     0.3389 C.ar    
  23 C23            1.2418     2.4623    -0.3092 C.3     
  24 C24            3.0283    -3.4332     1.6075 C.2     
  25 O25            3.4414    -4.5496     1.8482 O.2     
  26 O26            3.4050    -2.3949     2.3785 O.3     
  27 N27           -9.6620    -0.2932    -0.7428 N.pl3   
  28 O28           -9.7080     0.8757    -1.0819 O.2     
  29 O29          -10.6812    -0.9595    -0.7140 O.2     
  30 C30            3.7779    -4.2952    -1.0509 C.2     
  31 O31            4.5827    -4.3765    -0.1444 O.2     
  32 O32            4.0723    -4.8089    -2.2613 O.3     
  33 H33            0.9173    -0.2142    -0.4389 H       
  34 H34           -3.3304     2.1461     0.4073 H       
  35 H35           -1.2376     3.4169     0.1625 H       
  36 H36            0.5986    -2.2665     1.6570 H       
  37 H37            1.8830    -3.7421    -2.8876 H       
  38 H38           -0.2823    -2.6459    -2.5111 H       
  39 H39           -3.5553    -1.3886     0.6128 H       
  40 H40           -7.2547     0.8886    -0.6994 H       
  41 H41           -9.2232    -2.8192     0.0444 H       
  42 H42           -7.0786    -3.8478     0.6731 H       
  43 H43           -5.0089    -2.5207     0.6153 H       
  44 H44            1.3865     2.7202    -1.3583 H       
  45 H45            1.1815     3.3746     0.2842 H       
  46 H46            2.0816     1.8592     0.0358 H       
  47 H47            4.0052    -2.5876     3.1118 H       
  48 H48            4.9359    -5.2325    -2.3601 H       
@<TRIPOS>BOND
   1    1    2 ar
   2    1   23 1
   3    1    6 ar
   4    2    3 ar
   5    2   33 1
   6    3    4 ar
   7    3    7 1
   8    4    5 ar
   9    4   14 1
  10    5    6 ar
  11    5   34 1
  12    6   35 1
  13    7    8 1
  14    8    9 ar
  15    8   13 ar
  16    9   10 ar
  17    9   36 1
  18   10   11 ar
  19   10   24 1
  20   11   12 ar
  21   11   30 1
  22   12   13 ar
  23   12   37 1
  24   13   38 1
  25   14   15 am
  26   14   39 1
  27   15   16 1
  28   15   17 2
  29   16   18 ar
  30   16   22 ar
  31   18   19 ar
  32   18   40 1
  33   19   20 ar
  34   19   27 1
  35   20   21 ar
  36   20   41 1
  37   21   22 ar
  38   21   42 1
  39   22   43 1
  40   23   44 1
  41   23   45 1
  42   23   46 1
  43   24   25 2
  44   24   26 1
  45   26   47 1
  46   27   28 2
  47   27   29 2
  48   30   31 2
  49   30   32 1
  50   32   48 1

#	End of record

