#	Name: ASD01512002
#	Creating user name:	WinNT
#	Creation time:	15. 06. 2019 19:21

#	Modifying user name:	WinNT
#	Modification time:	15. 06. 2019 19:21

#	Program:	/corina/corina34_cracker 3.40 0067  02.08.2006

@<TRIPOS>MOLECULE
ASD01512002
  46   49    0    0    0
SMALL
NO_CHARGES


@<TRIPOS>ATOM
   1 C1             3.0316     1.2180    -6.6283 C.ar    
   2 C2             3.1950    -0.1563    -6.6431 C.ar    
   3 C3             4.1486    -0.7358    -5.8284 C.ar    
   4 C4             4.9304     0.0579    -5.0069 C.ar    
   5 C5             4.7812     1.4450    -4.9775 C.ar    
   6 C6             3.8060     2.0109    -5.8137 C.ar    
   7 S7             6.2190    -0.3309    -3.8591 S.3     
   8 C8             6.5098     1.3510    -3.3860 C.2     
   9 N9             5.6334     2.0995    -4.1081 N.pl3   
  10 C10            5.5940     3.5573    -3.9688 C.3     
  11 C11            7.4402     1.8106    -2.4667 C.2     
  12 C12            8.2789     1.0464    -1.6517 C.2     
  13 N13            9.0943     1.7008    -0.8431 N.am    
  14 C14            9.0555     3.0767    -0.8652 C.2     
  15 S15            7.8293     3.4967    -2.0758 S.3     
  16 O16            8.2592    -0.1738    -1.6847 O.2     
  17 C17            9.8025     3.9321    -0.1209 C.2     
  18 C18            9.5186     5.3693    -0.1510 C.ar    
  19 N19           10.5151     6.2444    -0.0191 N.ar    
  20 C20           10.2976     7.5449    -0.0413 C.ar    
  21 C21            9.0226     8.0493    -0.2029 C.ar    
  22 C22            7.9514     7.1729    -0.3449 C.ar    
  23 C23            8.2009     5.8160    -0.3243 C.ar    
  24 C24           11.8833     5.7504     0.1550 C.3     
  25 C25           10.0099     0.9847     0.0486 C.3     
  26 C26           11.3398     0.7474    -0.6697 C.3     
  27 H27            2.2900     1.6738    -7.2676 H       
  28 H28            2.5819    -0.7706    -7.2859 H       
  29 H29            4.2837    -1.8073    -5.8323 H       
  30 H30            3.6624     3.0813    -5.8179 H       
  31 H31            6.5697     3.9728    -4.2208 H       
  32 H32            4.8401     3.9664    -4.6414 H       
  33 H33            5.3430     3.8174    -2.9404 H       
  34 H34           10.6060     3.5531     0.4934 H       
  35 H35           11.1290     8.2254     0.0689 H       
  36 H36            8.8578     9.1165    -0.2187 H       
  37 H37            6.9463     7.5468    -0.4724 H       
  38 H38            7.3922     5.1084    -0.4318 H       
  39 H39           12.3186     5.5348    -0.8207 H       
  40 H40           12.4817     6.5084     0.6604 H       
  41 H41           11.8674     4.8404     0.7549 H       
  42 H42           10.1824     1.5791     0.9457 H       
  43 H43            9.5710     0.0264     0.3265 H       
  44 H44           12.0210     0.2146    -0.0062 H       
  45 H45           11.1672     0.1529    -1.5668 H       
  46 H46           11.7787     1.7057    -0.9476 H       
@<TRIPOS>BOND
   1    1    2 ar
   2    1    6 ar
   3    1   27 1
   4    2    3 ar
   5    2   28 1
   6    3    4 ar
   7    3   29 1
   8    4    5 ar
   9    4    7 1
  10    5    6 ar
  11    5    9 1
  12    6   30 1
  13    7    8 1
  14    8    9 1
  15    8   11 2
  16    9   10 1
  17   10   31 1
  18   10   32 1
  19   10   33 1
  20   11   12 1
  21   11   15 1
  22   12   13 am
  23   12   16 2
  24   13   14 1
  25   13   25 1
  26   14   15 1
  27   14   17 2
  28   17   18 1
  29   17   34 1
  30   18   19 ar
  31   18   23 ar
  32   19   20 ar
  33   19   24 1
  34   20   21 ar
  35   20   35 1
  36   21   22 ar
  37   21   36 1
  38   22   23 ar
  39   22   37 1
  40   23   38 1
  41   24   39 1
  42   24   40 1
  43   24   41 1
  44   25   26 1
  45   25   42 1
  46   25   43 1
  47   26   44 1
  48   26   45 1
  49   26   46 1

#	End of record

