#	Name: ASD02562107
#	Creating user name:	WinNT
#	Creation time:	15. 06. 2019 20:25

#	Modifying user name:	WinNT
#	Modification time:	15. 06. 2019 20:25

#	Program:	/corina/corina34_cracker 3.40 0067  02.08.2006

@<TRIPOS>MOLECULE
ASD02562107
  47   50    0    0    0
SMALL
NO_CHARGES


@<TRIPOS>ATOM
   1 C1            -0.0378     1.3457     0.0084 C.ar    
   2 C2            -0.0293    -0.0450    -0.0060 C.ar    
   3 C3             1.1599     2.0529     0.0071 C.ar    
   4 C4             2.3600     1.3784    -0.0086 C.ar    
   5 C5             2.3736    -0.0209    -0.0232 C.ar    
   6 C6             1.1659    -0.7281    -0.0213 C.ar    
   7 C7            -1.3304    -0.8053    -0.0045 C.3     
   8 C8             3.6528    -0.7459    -0.0404 C.2     
   9 C9             3.6635    -2.0953    -0.0545 C.2     
  10 C10            4.9093    -2.8013    -0.0713 C.1     
  11 N11            5.8975    -3.3614    -0.0846 N.1     
  12 C12            1.1438     3.5597     0.0223 C.3     
  13 N13           -1.2544     2.0353     0.0185 N.pl3   
  14 C14           -1.9554     2.4232     1.1253 C.2     
  15 N15           -3.0427     3.0426     0.7700 N.2     
  16 C16           -3.1136     3.0943    -0.5839 C.ar    
  17 C17           -1.9625     2.4530    -1.0835 C.ar    
  18 C18           -4.0283     3.6202    -1.4981 C.ar    
  19 N19           -3.7811     3.4906    -2.7898 N.ar    
  20 C20           -2.6881     2.8748    -3.2235 C.ar    
  21 N21           -1.7896     2.3671    -2.3951 N.ar    
  22 N22           -2.4771     2.7664    -4.5899 N.pl3   
  23 C23           -3.4580     3.1940    -5.4824 C.ar    
  24 C24           -3.0901     3.7696    -6.6948 C.ar    
  25 C25           -4.8033     3.0393    -5.1618 C.ar    
  26 C26           -5.7750     3.4606    -6.0412 C.ar    
  27 C27           -5.4089     4.0445    -7.2576 C.ar    
  28 C28           -4.0565     4.1935    -7.5787 C.ar    
  29 C29           -6.4170     4.4839    -8.1748 C.1     
  30 N30           -7.2167     4.8326    -8.9024 N.1     
  31 H31            3.2895     1.9283    -0.0099 H       
  32 H32            1.1716    -1.8080    -0.0322 H       
  33 H33           -1.6515    -0.9780    -1.0317 H       
  34 H34           -1.1914    -1.7623     0.4985 H       
  35 H35           -2.0894    -0.2256     0.5209 H       
  36 H36            4.5838    -0.1985    -0.0418 H       
  37 H37            2.7325    -2.6427    -0.0531 H       
  38 H38            1.1472     3.9127     1.0536 H       
  39 H39            2.0263     3.9377    -0.4939 H       
  40 H40            0.2465     3.9186    -0.4816 H       
  41 H41           -1.6515     2.2417     2.1457 H       
  42 H42           -4.9210     4.1229    -1.1563 H       
  43 H43           -1.6467     2.3929    -4.9243 H       
  44 H44           -2.0451     3.8841    -6.9424 H       
  45 H45           -5.0854     2.5878    -4.2221 H       
  46 H46           -6.8189     3.3399    -5.7919 H       
  47 H47           -3.7702     4.6445    -8.5174 H       
@<TRIPOS>BOND
   1    1    2 ar
   2    1    3 ar
   3    1   13 1
   4    2    7 1
   5    2    6 ar
   6    3    4 ar
   7    3   12 1
   8    4    5 ar
   9    4   31 1
  10    5    6 ar
  11    5    8 1
  12    6   32 1
  13    7   33 1
  14    7   34 1
  15    7   35 1
  16    8    9 2
  17    8   36 1
  18    9   10 1
  19    9   37 1
  20   10   11 3
  21   12   38 1
  22   12   39 1
  23   12   40 1
  24   13   14 1
  25   13   17 1
  26   14   15 2
  27   14   41 1
  28   15   16 1
  29   16   17 ar
  30   16   18 ar
  31   17   21 ar
  32   18   19 ar
  33   18   42 1
  34   19   20 ar
  35   20   21 ar
  36   20   22 1
  37   22   23 1
  38   22   43 1
  39   23   24 ar
  40   23   25 ar
  41   24   28 ar
  42   24   44 1
  43   25   26 ar
  44   25   45 1
  45   26   27 ar
  46   26   46 1
  47   27   28 ar
  48   27   29 1
  49   28   47 1
  50   29   30 3

#	End of record

