#	Name: ASD08070592
#	Creating user name:	WinNT
#	Creation time:	15. 06. 2019 21:15

#	Modifying user name:	WinNT
#	Modification time:	15. 06. 2019 21:15

#	Program:	/corina/corina34_cracker 3.40 0067  02.08.2006

@<TRIPOS>MOLECULE
ASD08070592
  41   42    0    0    0
SMALL
NO_CHARGES


@<TRIPOS>ATOM
   1 C1             0.0640     0.8460     0.3017 C.ar    
   2 C2             0.2520    -0.5428     0.3261 C.ar    
   3 C3            -0.8142    -1.3874     0.4216 C.ar    
   4 C4            -2.1086    -0.8776     0.4967 C.ar    
   5 C5            -2.3109     0.5167     0.4736 C.ar    
   6 C6            -1.2202     1.3770     0.3809 C.ar    
   7 C7             1.2295     1.7464     0.1979 C.2     
   8 N8             2.4736     1.2329     0.1268 N.am    
   9 O9             1.0670     2.9511     0.1767 O.2     
  10 C10            3.6301     2.1264     0.0238 C.3     
  11 C11            4.0474     2.5687     1.4027 C.2     
  12 C12            4.7887     1.3856    -0.6467 C.3     
  13 C13            4.3999     1.0225    -2.0812 C.3     
  14 C14            4.2246     2.3021    -2.9015 C.3     
  15 C15            5.5008     0.1631    -2.7060 C.3     
  16 O16            3.4411     2.1778     2.3719 O.2     
  17 O17            5.0928     3.3970     1.5540 O.3     
  18 C18            5.4382     3.7813     2.9110 C.3     
  19 N19           -3.3471    -1.4640     0.5976 N.pl3   
  20 C20           -4.3187    -0.5010     0.6389 C.2     
  21 C21           -3.7599     0.7170     0.5680 C.2     
  22 H22            1.2514    -0.9480     0.2684 H       
  23 H23           -0.6547    -2.4554     0.4387 H       
  24 H24           -1.3696     2.4465     0.3632 H       
  25 H25            2.6033     0.2718     0.1437 H       
  26 H26            3.3631     2.9989    -0.5724 H       
  27 H27            5.6703     2.0265    -0.6603 H       
  28 H28            5.0096     0.4756    -0.0887 H       
  29 H29            3.4636     0.4646    -2.0737 H       
  30 H30            5.1609     2.8601    -2.9090 H       
  31 H31            3.9476     2.0434    -3.9235 H       
  32 H32            3.4403     2.9144    -2.4564 H       
  33 H33            5.6861    -0.7056    -2.0742 H       
  34 H34            5.1857    -0.1679    -3.6956 H       
  35 H35            6.4148     0.7505    -2.7933 H       
  36 H36            6.2983     4.4506     2.8913 H       
  37 H37            4.5916     4.2911     3.3709 H       
  38 H38            5.6840     2.8908     3.4894 H       
  39 H39           -3.5090    -2.4198     0.6339 H       
  40 H40           -5.3786    -0.6929     0.7167 H       
  41 H41           -4.2787     1.6642     0.5793 H       
@<TRIPOS>BOND
   1    1    2 ar
   2    1    7 1
   3    1    6 ar
   4    2    3 ar
   5    2   22 1
   6    3    4 ar
   7    3   23 1
   8    4    5 ar
   9    4   19 1
  10    5    6 ar
  11    5   21 1
  12    6   24 1
  13    7    8 am
  14    7    9 2
  15    8   10 1
  16    8   25 1
  17   10   11 1
  18   10   12 1
  19   10   26 1
  20   11   16 2
  21   11   17 1
  22   12   13 1
  23   12   27 1
  24   12   28 1
  25   13   14 1
  26   13   15 1
  27   13   29 1
  28   14   30 1
  29   14   31 1
  30   14   32 1
  31   15   33 1
  32   15   34 1
  33   15   35 1
  34   17   18 1
  35   18   36 1
  36   18   37 1
  37   18   38 1
  38   19   20 1
  39   19   39 1
  40   20   21 2
  41   20   40 1
  42   21   41 1

#	End of record

