#	Name: ASD02198134
#	Creating user name:	WinNT
#	Creation time:	15. 06. 2019 20:18

#	Modifying user name:	WinNT
#	Modification time:	15. 06. 2019 20:18

#	Program:	/corina/corina34_cracker 3.40 0067  02.08.2006

@<TRIPOS>MOLECULE
ASD02198134
  51   54    0    0    0
SMALL
NO_CHARGES


@<TRIPOS>ATOM
   1 C1             0.3496     1.5642    -1.1222 C.2     
   2 C2             0.4920     0.2192    -1.3869 C.2     
   3 C3            -0.5612    -0.7309    -1.1905 C.1     
   4 S4             1.7912     2.4072    -1.4660 S.3     
   5 C5             2.6067     0.9373    -1.9748 C.2     
   6 C6             1.7536    -0.1327    -1.8637 C.2     
   7 C7             3.9396     0.8667    -2.4307 C.2     
   8 C8             4.7179     2.1048    -2.6300 C.2     
   9 O9             4.4491    -0.2174    -2.6601 O.2     
  10 N10            2.1110    -1.4320    -2.1924 N.pl3   
  11 N11           -0.8040     2.1495    -0.6493 N.pl3   
  12 N12           -1.3968    -1.4846    -1.0347 N.1     
  13 C13            5.4802     2.7909    -1.7203 C.2     
  14 C14           -0.8309     3.5125    -0.3780 C.ar    
  15 C15           -1.9524     4.2805    -0.7311 C.ar    
  16 O16            5.9883     3.8442    -2.3662 O.3     
  17 N17            5.6529     3.9027    -3.5238 N.2     
  18 C18            4.8729     2.9070    -3.8608 C.2     
  19 C19            4.2669     2.6461    -5.1893 C.ar    
  20 C20           -1.9662     5.6497    -0.4525 C.ar    
  21 C21           -0.8830     6.2363     0.1649 C.ar    
  22 C22            0.2220     5.4756     0.5120 C.ar    
  23 C23            0.2488     4.1211     0.2489 C.ar    
  24 C24            3.8592     3.7092    -5.9931 C.ar    
  25 C25            3.2965     3.4605    -7.2285 C.ar    
  26 C26            3.1368     2.1591    -7.6694 C.ar    
  27 C27            3.5393     1.1001    -6.8756 C.ar    
  28 C28            4.1085     1.3372    -5.6409 C.ar    
  29 C29            5.7013     2.4282    -0.2744 C.3     
  30 C30           -3.1069     3.6467    -1.3915 C.2     
  31 O31           -3.1346     2.4411    -1.5416 O.2     
  32 O32           -4.1322     4.4039    -1.8291 O.3     
  33 C33           -5.2360     3.7120    -2.4702 C.3     
  34 H34            3.0041    -1.6212    -2.5203 H       
  35 H35            1.4678    -2.1515    -2.0945 H       
  36 H36           -1.5976     1.6106    -0.5056 H       
  37 H37           -2.8246     6.2475    -0.7211 H       
  38 H38           -0.8952     7.2948     0.3792 H       
  39 H39            1.0660     5.9450     0.9956 H       
  40 H40            1.1137     3.5353     0.5229 H       
  41 H41            3.9831     4.7256    -5.6497 H       
  42 H42            2.9798     4.2835    -7.8520 H       
  43 H43            2.6960     1.9692    -8.6368 H       
  44 H44            3.4119     0.0861    -7.2247 H       
  45 H45            4.4227     0.5096    -5.0222 H       
  46 H46            6.6223     1.8529    -0.1808 H       
  47 H47            5.7792     3.3382     0.3206 H       
  48 H48            4.8621     1.8313     0.0829 H       
  49 H49           -4.8702     3.1790    -3.3478 H       
  50 H50           -5.6749     3.0010    -1.7701 H       
  51 H51           -5.9917     4.4364    -2.7739 H       
@<TRIPOS>BOND
   1    1    2 2
   2    1    4 1
   3    1   11 1
   4    2    3 1
   5    2    6 1
   6    3   12 3
   7    4    5 1
   8    5    6 2
   9    5    7 1
  10    6   10 1
  11    7    8 1
  12    7    9 2
  13    8   13 2
  14    8   18 1
  15   10   34 1
  16   10   35 1
  17   11   14 1
  18   11   36 1
  19   13   16 1
  20   13   29 1
  21   14   15 ar
  22   14   23 ar
  23   15   20 ar
  24   15   30 1
  25   16   17 1
  26   17   18 2
  27   18   19 1
  28   19   24 ar
  29   19   28 ar
  30   20   21 ar
  31   20   37 1
  32   21   22 ar
  33   21   38 1
  34   22   23 ar
  35   22   39 1
  36   23   40 1
  37   24   25 ar
  38   24   41 1
  39   25   26 ar
  40   25   42 1
  41   26   27 ar
  42   26   43 1
  43   27   28 ar
  44   27   44 1
  45   28   45 1
  46   29   46 1
  47   29   47 1
  48   29   48 1
  49   30   31 2
  50   30   32 1
  51   32   33 1
  52   33   49 1
  53   33   50 1
  54   33   51 1

#	End of record

