#	Name: ASD08710060
#	Creating user name:	WinNT
#	Creation time:	15. 06. 2019 21:19

#	Modifying user name:	WinNT
#	Modification time:	15. 06. 2019 21:19

#	Program:	/corina/corina34_cracker 3.40 0067  02.08.2006

@<TRIPOS>MOLECULE
ASD08710060
  52   54    0    0    0
SMALL
NO_CHARGES


@<TRIPOS>ATOM
   1 C1             0.4029     2.6074     0.6666 C.ar    
   2 C2             0.7281     1.2752     0.8422 C.ar    
   3 C3            -0.3909     2.9906    -0.3980 C.ar    
   4 C4            -0.8599     2.0415    -1.2873 C.ar    
   5 C5            -0.5345     0.7097    -1.1120 C.ar    
   6 C6             0.2592     0.3264    -0.0469 C.ar    
   7 S7             0.6745    -1.3713     0.1763 S.o2    
   8 O8             1.5469    -1.4272     1.2966 O.2     
   9 O9            -0.5459    -2.0957     0.1047 O.2     
  10 N10            1.5704    -1.8336    -1.1375 N.am    
  11 C11            3.0155    -1.5707    -1.1874 C.3     
  12 C12            0.9357    -2.5196    -2.2717 C.3     
  13 C13            1.6710    -3.8428    -2.5179 C.3     
  14 N14            3.1151    -3.5749    -2.5703 N.am    
  15 C15            3.7464    -2.8959    -1.4359 C.3     
  16 C16            3.8444    -3.9519    -3.6392 C.2     
  17 C17            5.3131    -3.7830    -3.6287 C.ar    
  18 O18            3.2946    -4.4309    -4.6117 O.2     
  19 C19            5.9806    -3.3090    -4.7585 C.ar    
  20 N20            7.2889    -3.1585    -4.7494 N.ar    
  21 C21            8.0159    -3.4452    -3.6865 C.ar    
  22 C22            7.4293    -3.9202    -2.5270 C.ar    
  23 C23            6.0570    -4.0906    -2.4830 C.ar    
  24 C24           -1.0466    -0.3249    -2.0808 C.3     
  25 C25           -0.7457     4.4427    -0.5891 C.3     
  26 C26            9.5097    -3.2528    -3.7364 C.3     
  27 F27           -0.1600     5.2036     0.4283 F       
  28 F28           -0.2707     4.8793    -1.8304 F       
  29 F29           -2.1358     4.5931    -0.5426 F       
  30 C30            1.3706    -4.8172    -1.3772 C.3     
  31 H31            0.7656     3.3482     1.3638 H       
  32 H32            1.3487     0.9758     1.6738 H       
  33 H33           -1.4808     2.3408    -2.1187 H       
  34 H34            3.2330    -0.8753    -1.9981 H       
  35 H35            3.3427    -1.1446    -0.2390 H       
  36 H36           -0.1102    -2.7200    -2.0393 H       
  37 H37            1.0017    -1.8933    -3.1614 H       
  38 H38            1.3441    -4.2723    -3.4649 H       
  39 H39            4.7924    -2.6937    -1.6666 H       
  40 H40            3.6800    -3.5263    -0.5492 H       
  41 H41            5.4197    -3.0637    -5.6482 H       
  42 H42            8.0358    -4.1512    -1.6637 H       
  43 H43            5.5729    -4.4593    -1.5908 H       
  44 H44           -0.3437    -0.4278    -2.9075 H       
  45 H45           -1.1490    -1.2821    -1.5696 H       
  46 H46           -2.0173    -0.0130    -2.4660 H       
  47 H47            9.7569    -2.2423    -3.4110 H       
  48 H48            9.9912    -3.9749    -3.0770 H       
  49 H49            9.8614    -3.4021    -4.7572 H       
  50 H50            0.2975    -5.0025    -1.3308 H       
  51 H51            1.8942    -5.7566    -1.5544 H       
  52 H52            1.7061    -4.3866    -0.4337 H       
@<TRIPOS>BOND
   1    1    2 ar
   2    1    3 ar
   3    1   31 1
   4    2    6 ar
   5    2   32 1
   6    3    4 ar
   7    3   25 1
   8    4    5 ar
   9    4   33 1
  10    5    6 ar
  11    5   24 1
  12    6    7 1
  13    7    8 2
  14    7    9 2
  15    7   10 am
  16   10   11 1
  17   10   12 1
  18   11   15 1
  19   11   34 1
  20   11   35 1
  21   12   13 1
  22   12   36 1
  23   12   37 1
  24   13   14 1
  25   13   30 1
  26   13   38 1
  27   14   15 1
  28   14   16 am
  29   15   39 1
  30   15   40 1
  31   16   17 1
  32   16   18 2
  33   17   19 ar
  34   17   23 ar
  35   19   20 ar
  36   19   41 1
  37   20   21 ar
  38   21   22 ar
  39   21   26 1
  40   22   23 ar
  41   22   42 1
  42   23   43 1
  43   24   44 1
  44   24   45 1
  45   24   46 1
  46   25   27 1
  47   25   28 1
  48   25   29 1
  49   26   47 1
  50   26   48 1
  51   26   49 1
  52   30   50 1
  53   30   51 1
  54   30   52 1

#	End of record

