#	Name: ASD03240247
#	Creating user name:	WinNT
#	Creation time:	15. 06. 2019 20:34

#	Modifying user name:	WinNT
#	Modification time:	15. 06. 2019 20:34

#	Program:	/corina/corina34_cracker 3.40 0067  02.08.2006

@<TRIPOS>MOLECULE
ASD03240247
  46   49    0    0    0
SMALL
NO_CHARGES


@<TRIPOS>ATOM
   1 C1            -0.0340     1.3520     0.0339 C.ar    
   2 C2            -0.0139    -0.0302     0.0310 C.ar    
   3 C3             1.1931    -0.7039     0.0143 C.ar    
   4 C4             2.3800     0.0046    -0.0000 C.ar    
   5 C5             2.3599     1.3868     0.0020 C.ar    
   6 C6             1.1529     2.0605     0.0201 C.ar    
   7 C7             1.1310     3.5673     0.0228 C.3     
   8 N8             1.1413     4.0534     1.4047 N.am    
   9 C9             0.0377     4.2842     2.1382 C.2     
  10 C10            2.2558     4.3220     2.1086 C.2     
  11 C11            1.8602     4.7870     3.4553 C.ar    
  12 C12            0.4491     4.7623     3.4723 C.ar    
  13 C13           -0.2363     5.1474     4.6155 C.ar    
  14 C14            2.5559     5.1940     4.5788 C.ar    
  15 C15            1.8558     5.5808     5.7215 C.ar    
  16 C16            0.4668     5.5573     5.7339 C.ar    
  17 O17           -1.1073     4.1257     1.7645 O.2     
  18 O18            3.3953     4.2023     1.7058 O.2     
  19 N19            2.5533     5.9920     6.8569 N.am    
  20 C20            2.0488     6.9641     7.6424 C.2     
  21 C21            2.7400     7.3256     8.9318 C.3     
  22 O22            1.0386     7.5479     7.3116 O.2     
  23 C23            1.9801     8.4327     9.6159 C.ar    
  24 C24            1.5904    10.7681     9.9715 C.ar    
  25 C25            2.2875     9.7527     9.3439 C.ar    
  26 C26            0.9718     8.1282    10.5111 C.ar    
  27 C27            0.2747     9.1436    11.1387 C.ar    
  28 C28            0.5863    10.4636    10.8714 C.ar    
  29 H29           -0.9770     1.8783     0.0424 H       
  30 H30           -0.9412    -0.5838     0.0421 H       
  31 H31            1.2088    -1.7838     0.0128 H       
  32 H32            3.3229    -0.5218    -0.0123 H       
  33 H33            3.2872     1.9403    -0.0088 H       
  34 H34            2.0091     3.9444    -0.5015 H       
  35 H35            0.2295     3.9185    -0.4792 H       
  36 H36           -1.3160     5.1275     4.6320 H       
  37 H37            3.6358     5.2120     4.5716 H       
  38 H38           -0.0671     5.8569     6.6236 H       
  39 H39            3.4015     5.5784     7.0813 H       
  40 H40            2.7744     6.4522     9.5829 H       
  41 H41            3.7554     7.6599     8.7184 H       
  42 H42            1.8309    11.7994     9.7592 H       
  43 H43            3.0726     9.9906     8.6414 H       
  44 H44            0.7284     7.0969    10.7200 H       
  45 H45           -0.5135     8.9057    11.8376 H       
  46 H46            0.0417    11.2570    11.3616 H       
@<TRIPOS>BOND
   1    1    2 ar
   2    1    6 ar
   3    1   29 1
   4    2    3 ar
   5    2   30 1
   6    3    4 ar
   7    3   31 1
   8    4    5 ar
   9    4   32 1
  10    5    6 ar
  11    5   33 1
  12    6    7 1
  13    7    8 1
  14    7   34 1
  15    7   35 1
  16    8   10 am
  17    8    9 am
  18    9   12 1
  19    9   17 2
  20   10   11 1
  21   10   18 2
  22   11   14 ar
  23   11   12 ar
  24   12   13 ar
  25   13   16 ar
  26   13   36 1
  27   14   15 ar
  28   14   37 1
  29   15   16 ar
  30   15   19 1
  31   16   38 1
  32   19   20 am
  33   19   39 1
  34   20   21 1
  35   20   22 2
  36   21   23 1
  37   21   40 1
  38   21   41 1
  39   23   26 ar
  40   23   25 ar
  41   24   25 ar
  42   24   28 ar
  43   24   42 1
  44   25   43 1
  45   26   27 ar
  46   26   44 1
  47   27   28 ar
  48   27   45 1
  49   28   46 1

#	End of record

