#	Name: ASD01890286
#	Creating user name:	WinNT
#	Creation time:	15. 06. 2019 19:50

#	Modifying user name:	WinNT
#	Modification time:	15. 06. 2019 19:50

#	Program:	/corina/corina34_cracker 3.40 0067  02.08.2006

@<TRIPOS>MOLECULE
ASD01890286
  47   49    0    0    0
SMALL
NO_CHARGES


@<TRIPOS>ATOM
   1 C1            -0.0177     1.4577     0.0101 C.2     
   2 C2             0.0021    -0.0041     0.0020 C.2     
   3 C3             1.1801    -0.6630    -0.0128 C.2     
   4 C4             1.2006    -2.1699    -0.0211 C.3     
   5 C5             1.3195    -2.6704    -1.4620 C.3     
   6 O6             1.0272     2.0801     0.0034 O.2     
   7 O7            -1.1952     2.1163     0.0192 O.3     
   8 C8             2.7860     0.8742     1.0724 C.ar    
   9 C9             2.4437     0.0896    -0.0208 C.ar    
  10 C10            3.2988     0.0093    -1.1373 C.ar    
  11 C11            4.4697     0.6939    -1.1667 C.ar    
  12 C12            4.8444     1.4972    -0.0736 C.ar    
  13 C13            6.0525     2.2135    -0.0826 C.ar    
  14 C14            6.3896     2.9826     0.9893 C.ar    
  15 C15            5.5532     3.0720     2.1005 C.ar    
  16 C16            4.3750     2.3924     2.1462 C.ar    
  17 C17            3.9927     1.5877     1.0572 C.ar    
  18 C18            1.3399    -4.1772    -1.4703 C.ar    
  19 C19            0.1556    -4.8838    -1.5671 C.ar    
  20 C20            0.1737    -6.2658    -1.5748 C.ar    
  21 C21            1.3774    -6.9420    -1.4855 C.ar    
  22 C22            2.5623    -6.2344    -1.3886 C.ar    
  23 C23            2.5433    -4.8524    -1.3867 C.ar    
  24 Cl24           1.4009    -8.6779    -1.4944 Cl      
  25 C25           -1.1398     3.5442     0.0267 C.3     
  26 C26           -2.5614     4.1097     0.0365 C.3     
  27 H27           -0.9258    -0.5567     0.0079 H       
  28 H28            2.0528    -2.5249     0.5584 H       
  29 H29            0.2784    -2.5482     0.4201 H       
  30 H30            0.4672    -2.3154    -2.0414 H       
  31 H31            2.2416    -2.2921    -1.9031 H       
  32 H32            2.1265     0.9375     1.9253 H       
  33 H33            3.0190    -0.6051    -1.9802 H       
  34 H34            5.1150     0.6221    -2.0297 H       
  35 H35            6.7116     2.1543    -0.9361 H       
  36 H36            7.3196     3.5315     0.9784 H       
  37 H37            5.8444     3.6893     2.9375 H       
  38 H38            3.7365     2.4708     3.0137 H       
  39 H39           -0.7839    -4.3557    -1.6365 H       
  40 H40           -0.7516    -6.8176    -1.6501 H       
  41 H41            3.5022    -6.7618    -1.3188 H       
  42 H42            3.4686    -4.2998    -1.3155 H       
  43 H43           -0.6080     3.8825     0.9160 H       
  44 H44           -0.6164     3.8922    -0.8639 H       
  45 H45           -3.0931     3.7714    -0.8528 H       
  46 H46           -3.0847     3.7617     0.9271 H       
  47 H47           -2.5191     5.1989     0.0423 H       
@<TRIPOS>BOND
   1    1    2 1
   2    1    6 2
   3    1    7 1
   4    2    3 2
   5    2   27 1
   6    3    4 1
   7    3    9 1
   8    4    5 1
   9    4   28 1
  10    4   29 1
  11    5   18 1
  12    5   30 1
  13    5   31 1
  14    7   25 1
  15    8    9 ar
  16    8   17 ar
  17    8   32 1
  18    9   10 ar
  19   10   11 ar
  20   10   33 1
  21   11   12 ar
  22   11   34 1
  23   12   13 ar
  24   12   17 ar
  25   13   14 ar
  26   13   35 1
  27   14   15 ar
  28   14   36 1
  29   15   16 ar
  30   15   37 1
  31   16   17 ar
  32   16   38 1
  33   18   19 ar
  34   18   23 ar
  35   19   20 ar
  36   19   39 1
  37   20   21 ar
  38   20   40 1
  39   21   22 ar
  40   21   24 1
  41   22   23 ar
  42   22   41 1
  43   23   42 1
  44   25   26 1
  45   25   43 1
  46   25   44 1
  47   26   45 1
  48   26   46 1
  49   26   47 1

#	End of record

