#	Name: ASD01912380
#	Creating user name:	WinNT
#	Creation time:	15. 06. 2019 19:59

#	Modifying user name:	WinNT
#	Modification time:	15. 06. 2019 19:59

#	Program:	/corina/corina34_cracker 3.40 0067  02.08.2006

@<TRIPOS>MOLECULE
ASD01912380
  43   45    0    0    0
SMALL
NO_CHARGES


@<TRIPOS>ATOM
   1 C1            -0.0790     1.2333     0.1585 C.ar    
   2 C2             0.1525     0.2506    -0.7990 C.ar    
   3 C3             1.4318    -0.2522    -0.9510 C.ar    
   4 C4             2.4409     0.2463    -0.1373 C.ar    
   5 C5             2.1403     1.2214     0.7921 C.ar    
   6 N6             0.9100     1.6828     0.9153 N.ar    
   7 N7            -1.3588     1.7517     0.3180 N.3     
   8 C8            -1.3103     3.1845     0.6354 C.3     
   9 C9            -2.7252     3.7701     0.5634 C.3     
  10 C10           -3.6266     2.9430     1.4561 C.2     
  11 C11           -3.5777     1.4368     1.3071 C.3     
  12 C12           -2.1086     0.9995     1.3318 C.3     
  13 C13           -4.4351     3.5211     2.3430 C.2     
  14 C14           -5.2775     2.7159     3.1753 C.1     
  15 C15           -5.9682     2.0558     3.8576 C.1     
  16 C16           -7.6636     1.8445     5.6246 C.ar    
  17 C17           -6.8106     1.2506     4.6898 C.ar    
  18 C18           -6.7947    -0.1467     4.5811 C.ar    
  19 C19           -7.6283    -0.8779     5.4083 C.ar    
  20 C20           -8.4431    -0.2137     6.3075 C.ar    
  21 N21           -8.4380     1.1033     6.3889 N.ar    
  22 C22           -9.3525    -1.0079     7.2094 C.3     
  23 F23           -8.6800    -1.3139     8.3973 F       
  24 F24          -10.4945    -0.2541     7.5009 F       
  25 F25           -9.7274    -2.1929     6.5672 F       
  26 N26           -0.8618    -0.2078    -1.5716 N.pl3   
  27 O27           -0.6741    -1.1395    -2.3334 O.2     
  28 O28           -1.9614     0.3119    -1.5045 O.2     
  29 H29            1.6414    -1.0156    -1.6856 H       
  30 H30            3.4506    -0.1255    -0.2307 H       
  31 H31            2.9220     1.6119     1.4268 H       
  32 H32           -0.9111     3.3209     1.6404 H       
  33 H33           -0.6688     3.6945    -0.0833 H       
  34 H34           -2.7134     4.8036     0.9094 H       
  35 H35           -3.0879     3.7298    -0.4637 H       
  36 H36           -4.1147     0.9682     2.1318 H       
  37 H37           -4.0319     1.1462     0.3598 H       
  38 H38           -2.0431    -0.0668     1.1156 H       
  39 H39           -1.6869     1.1975     2.3172 H       
  40 H40           -4.4552     4.5970     2.4345 H       
  41 H41           -7.6843     2.9197     5.7236 H       
  42 H42           -6.1486    -0.6397     3.8697 H       
  43 H43           -7.6431    -1.9563     5.3523 H       
@<TRIPOS>BOND
   1    1    2 ar
   2    1    6 ar
   3    1    7 1
   4    2    3 ar
   5    2   26 1
   6    3    4 ar
   7    3   29 1
   8    4    5 ar
   9    4   30 1
  10    5    6 ar
  11    5   31 1
  12    7    8 1
  13    7   12 1
  14    8    9 1
  15    8   32 1
  16    8   33 1
  17    9   10 1
  18    9   34 1
  19    9   35 1
  20   10   11 1
  21   10   13 2
  22   11   12 1
  23   11   36 1
  24   11   37 1
  25   12   38 1
  26   12   39 1
  27   13   14 1
  28   13   40 1
  29   14   15 3
  30   15   17 1
  31   16   17 ar
  32   16   21 ar
  33   16   41 1
  34   17   18 ar
  35   18   19 ar
  36   18   42 1
  37   19   20 ar
  38   19   43 1
  39   20   21 ar
  40   20   22 1
  41   22   23 1
  42   22   24 1
  43   22   25 1
  44   26   27 2
  45   26   28 2

#	End of record

