#	Name: ASD01148737
#	Creating user name:	WinNT
#	Creation time:	15. 06. 2019 19:03

#	Modifying user name:	WinNT
#	Modification time:	15. 06. 2019 19:03

#	Program:	/corina/corina34_cracker 3.40 0067  02.08.2006

@<TRIPOS>MOLECULE
ASD01148737
  47   49    0    0    0
SMALL
NO_CHARGES


@<TRIPOS>ATOM
   1 C1            -0.0461     1.4881     0.3247 C.2     
   2 C2            -0.0336    -0.0188     0.3138 C.3     
   3 C3             1.4011    -0.5182     0.4964 C.3     
   4 O4             0.9909     2.1025     0.4648 O.2     
   5 N5            -2.7960     3.8427    -0.0275 N.pl3   
   6 C6            -1.4861     3.5836     0.1477 C.2     
   7 C7            -1.3094     2.2112     0.1601 C.2     
   8 C8            -2.6411     1.6267    -0.0252 C.2     
   9 C9            -3.5038     2.6691    -0.1333 C.2     
  10 C10           -0.3971     4.6137     0.3031 C.3     
  11 C11           -3.3578     5.1248    -0.0875 C.ar    
  12 C12           -3.0853     5.9540    -1.1677 C.ar    
  13 C13           -3.6404     7.2172    -1.2239 C.ar    
  14 C14           -4.4670     7.6567    -0.2059 C.ar    
  15 C15           -4.7398     6.8337     0.8710 C.ar    
  16 C16           -4.1925     5.5667     0.9300 C.ar    
  17 S17           -3.2948     8.2702    -2.5936 S.o2    
  18 O18           -3.4601     9.5834    -2.0766 O.2     
  19 O19           -2.0324     7.8237    -3.0692 O.2     
  20 C20           -4.5986     7.8909    -3.7965 C.3     
  21 C21           -4.9653     2.5601    -0.3317 C.ar    
  22 C22           -5.6813     3.6315    -0.8671 C.ar    
  23 C23           -7.0443     3.5239    -1.0503 C.ar    
  24 C24           -7.7020     2.3555    -0.7042 C.ar    
  25 C25           -6.9969     1.2893    -0.1721 C.ar    
  26 C26           -5.6327     1.3833     0.0103 C.ar    
  27 Cl27          -9.4175     2.2273    -0.9376 Cl      
  28 H28           -0.6549    -0.3933     1.1273 H       
  29 H29           -0.4251    -0.3786    -0.6377 H       
  30 H30            1.4102    -1.6082     0.4886 H       
  31 H31            2.0224    -0.1438    -0.3171 H       
  32 H32            1.7927    -0.1585     1.4479 H       
  33 H33           -2.8868     0.5758    -0.0676 H       
  34 H34           -0.2724     4.8542     1.3589 H       
  35 H35            0.5378     4.2165    -0.0920 H       
  36 H36           -0.6693     5.5156    -0.2452 H       
  37 H37           -2.4395     5.6114    -1.9627 H       
  38 H38           -4.9000     8.6451    -0.2521 H       
  39 H39           -5.3852     7.1800     1.6648 H       
  40 H40           -4.4099     4.9225     1.7691 H       
  41 H41           -5.5726     8.1031    -3.3556 H       
  42 H42           -4.4612     8.5045    -4.6868 H       
  43 H43           -4.5453     6.8370    -4.0698 H       
  44 H44           -5.1695     4.5434    -1.1371 H       
  45 H45           -7.5996     4.3525    -1.4643 H       
  46 H46           -7.5152     0.3807     0.0967 H       
  47 H47           -5.0830     0.5492     0.4209 H       
@<TRIPOS>BOND
   1    1    2 1
   2    1    4 2
   3    1    7 1
   4    2    3 1
   5    2   28 1
   6    2   29 1
   7    3   30 1
   8    3   31 1
   9    3   32 1
  10    5    6 1
  11    5    9 1
  12    5   11 1
  13    6    7 2
  14    6   10 1
  15    7    8 1
  16    8    9 2
  17    8   33 1
  18    9   21 1
  19   10   34 1
  20   10   35 1
  21   10   36 1
  22   11   12 ar
  23   11   16 ar
  24   12   13 ar
  25   12   37 1
  26   13   14 ar
  27   13   17 1
  28   14   15 ar
  29   14   38 1
  30   15   16 ar
  31   15   39 1
  32   16   40 1
  33   17   18 2
  34   17   19 2
  35   17   20 1
  36   20   41 1
  37   20   42 1
  38   20   43 1
  39   21   22 ar
  40   21   26 ar
  41   22   23 ar
  42   22   44 1
  43   23   24 ar
  44   23   45 1
  45   24   25 ar
  46   24   27 1
  47   25   26 ar
  48   25   46 1
  49   26   47 1

#	End of record

