#	Name: ASD01916160
#	Creating user name:	WinNT
#	Creation time:	15. 06. 2019 20:06

#	Modifying user name:	WinNT
#	Modification time:	15. 06. 2019 20:06

#	Program:	/corina/corina34_cracker 3.40 0067  02.08.2006

@<TRIPOS>MOLECULE
ASD01916160
  40   43    0    0    0
SMALL
NO_CHARGES


@<TRIPOS>ATOM
   1 C1             0.0171     1.8512    -2.1055 C.ar    
   2 C2             0.0449     0.6008    -2.6875 C.ar    
   3 C3             1.2678    -0.0297    -2.9275 C.ar    
   4 C4             2.4573     0.6098    -2.5765 C.ar    
   5 C5             2.4173     1.8650    -1.9928 C.ar    
   6 C6             1.1969     2.4837    -1.7583 C.ar    
   7 O7             3.5734     2.4915    -1.6494 O.3     
   8 C8             3.4580     3.7842    -1.0515 C.3     
   9 C9             4.8324     4.3188    -0.7413 C.2     
  10 N10            5.1005     5.5037    -0.1763 N.2     
  11 C11            6.4035     5.6421    -0.0537 C.2     
  12 N12            7.0041     4.5115    -0.5548 N.am    
  13 C13            5.9956     3.6820    -0.9809 C.2     
  14 C14            7.2511     6.7100     0.4825 C.2     
  15 C15            8.5870     6.5382     0.4617 C.2     
  16 N16            9.1225     5.3807    -0.0547 N.am    
  17 C17            8.3432     4.4023    -0.5461 C.2     
  18 O18            8.8611     3.3968    -0.9925 O.2     
  19 C19           10.5143     5.2184    -0.0690 C.ar    
  20 C20           11.1564     4.6273     1.0109 C.ar    
  21 C21           12.5281     4.4682     0.9949 C.ar    
  22 C22           13.2632     4.8978    -0.0973 C.ar    
  23 C23           12.6247     5.4876    -1.1754 C.ar    
  24 C24           11.2525     5.6432    -1.1656 C.ar    
  25 F25           14.6051     4.7417    -0.1109 F       
  26 C26            1.3008    -1.3279    -3.5310 C.1     
  27 N27            1.3270    -2.3578    -4.0098 N.1     
  28 H28           -0.9289     2.3398    -1.9245 H       
  29 H29           -0.8783     0.1096    -2.9571 H       
  30 H30            3.4061     0.1273    -2.7591 H       
  31 H31            1.1688     3.4626    -1.3029 H       
  32 H32            2.9525     4.4599    -1.7416 H       
  33 H33            2.8812     3.7080    -0.1298 H       
  34 H34            6.1129     2.7064    -1.4289 H       
  35 H35            6.8156     7.6130     0.8842 H       
  36 H36            9.2372     7.3083     0.8498 H       
  37 H37           10.5835     4.2925     1.8631 H       
  38 H38           13.0280     4.0089     1.8349 H       
  39 H39           13.1997     5.8219    -2.0262 H       
  40 H40           10.7548     6.1029    -2.0067 H       
@<TRIPOS>BOND
   1    1    2 ar
   2    1    6 ar
   3    1   28 1
   4    2    3 ar
   5    2   29 1
   6    3    4 ar
   7    3   26 1
   8    4    5 ar
   9    4   30 1
  10    5    6 ar
  11    5    7 1
  12    6   31 1
  13    7    8 1
  14    8    9 1
  15    8   32 1
  16    8   33 1
  17    9   10 1
  18    9   13 2
  19   10   11 2
  20   11   12 1
  21   11   14 1
  22   12   13 1
  23   12   17 am
  24   13   34 1
  25   14   15 2
  26   14   35 1
  27   15   16 1
  28   15   36 1
  29   16   17 am
  30   16   19 1
  31   17   18 2
  32   19   20 ar
  33   19   24 ar
  34   20   21 ar
  35   20   37 1
  36   21   22 ar
  37   21   38 1
  38   22   23 ar
  39   22   25 1
  40   23   24 ar
  41   23   39 1
  42   24   40 1
  43   26   27 3

#	End of record

