#	Name: ASD08150620
#	Creating user name:	WinNT
#	Creation time:	15. 06. 2019 21:16

#	Modifying user name:	WinNT
#	Modification time:	15. 06. 2019 21:16

#	Program:	/corina/corina34_cracker 3.40 0067  02.08.2006

@<TRIPOS>MOLECULE
ASD08150620
  76   82    0    0    0
SMALL
NO_CHARGES


@<TRIPOS>ATOM
   1 N1            -0.2853     0.9044     0.0870 N.am    
   2 C2             0.6129     1.2055    -0.8708 C.2     
   3 C3             1.8502     0.5335    -0.9397 C.2     
   4 C4             2.1543    -0.4322    -0.0355 C.2     
   5 C5             1.2118    -0.7512     0.9738 C.ar    
   6 C6             1.4772    -1.7440     1.9362 C.ar    
   7 N7             0.6059    -2.0362     2.8662 N.ar    
   8 C8            -0.5797    -1.4152     2.9594 C.ar    
   9 C9            -0.9313    -0.4024     2.0334 C.ar    
  10 C10           -0.0108    -0.0631     1.0140 C.ar    
  11 C11           -2.1698     0.2380     2.1385 C.ar    
  12 C12           -3.0426    -0.1266     3.1511 C.ar    
  13 C13           -2.6874    -1.1295     4.0641 C.ar    
  14 C14           -1.4865    -1.7613     3.9747 C.ar    
  15 O15            0.3521     2.0707    -1.6894 O.2     
  16 C16           -4.3582     0.5475     3.2698 C.ar    
  17 C17           -1.5058     1.5906     0.1373 C.ar    
  18 C18           -1.6197     2.7508     0.8926 C.ar    
  19 C19           -2.8218     3.4268     0.9423 C.ar    
  20 C20           -3.9183     2.9468     0.2367 C.ar    
  21 C21           -3.8043     1.7866    -0.5186 C.ar    
  22 C22           -2.6001     1.1138    -0.5726 C.ar    
  23 N23           -5.1362     3.6312     0.2872 N.3     
  24 C24           -4.6434     1.6831     2.4950 C.ar    
  25 C25           -5.2978     4.5054    -0.8822 C.3     
  26 C26           -6.7120     5.0955    -0.8832 C.3     
  27 N27           -5.7959     2.2979     2.5789 N.ar    
  28 C28           -6.7584     1.8759     3.4057 C.ar    
  29 C29           -6.5467     0.7357     4.2213 C.ar    
  30 C30           -5.3183     0.0573     4.1433 C.ar    
  31 C31           -7.9898     2.5498     3.4822 C.ar    
  32 C32           -8.9543     2.1020     4.3315 C.ar    
  33 C33           -8.7440     0.9812     5.1326 C.ar    
  34 C34           -7.5652     0.3020     5.0869 C.ar    
  35 N35           -6.9485     5.7440     0.4155 N.am    
  36 C36           -6.6760     4.9732     1.6381 C.3     
  37 C37           -5.2632     4.3880     1.5399 C.3     
  38 C38           -7.4033     7.0109     0.4834 C.2     
  39 N39           -7.7479     7.6645    -0.6438 N.am    
  40 O40           -7.5028     7.5642     1.5615 O.2     
  41 C41           -8.3440     9.0003    -0.5628 C.3     
  42 C42           -8.6385     9.5138    -1.9737 C.3     
  43 O43           -9.6361     8.6908    -2.5816 O.3     
  44 C44           -4.9935     1.2656    -1.2836 C.3     
  45 F45           -4.6779     0.0250    -1.8479 F       
  46 F46           -6.0798     1.1196    -0.4141 F       
  47 F47           -5.3269     2.1685    -2.2989 F       
  48 H48            2.5583     0.7876    -1.7145 H       
  49 H49            3.1006    -0.9502    -0.0847 H       
  50 H50            2.4177    -2.2741     1.9055 H       
  51 H51           -2.4439     1.0112     1.4361 H       
  52 H52           -3.3768    -1.4039     4.8489 H       
  53 H53           -1.2294    -2.5319     4.6864 H       
  54 H54           -0.7675     3.1237     1.4414 H       
  55 H55           -2.9103     4.3286     1.5298 H       
  56 H56           -2.5102     0.2142    -1.1633 H       
  57 H57           -3.8940     2.0584     1.8139 H       
  58 H58           -4.5668     5.3127    -0.8366 H       
  59 H59           -5.1446     3.9265    -1.7930 H       
  60 H60           -6.8009     5.8319    -1.6819 H       
  61 H61           -7.4410     4.2990    -1.0329 H       
  62 H62           -5.1246    -0.8145     4.7506 H       
  63 H63           -8.1696     3.4206     2.8692 H       
  64 H64           -9.8982     2.6240     4.3858 H       
  65 H65           -9.5261     0.6475     5.7984 H       
  66 H66           -7.4137    -0.5655     5.7122 H       
  67 H67           -6.7412     5.6289     2.5065 H       
  68 H68           -7.4015     4.1651     1.7308 H       
  69 H69           -5.0850     3.7240     2.3857 H       
  70 H70           -4.5328     5.1969     1.5517 H       
  71 H71           -7.6012     7.2505    -1.5086 H       
  72 H72           -9.2721     8.9501     0.0066 H       
  73 H73           -7.6497     9.6786    -0.0669 H       
  74 H74           -8.9990    10.5409    -1.9187 H       
  75 H75           -7.7268     9.4801    -2.5702 H       
  76 H76           -9.8730     8.9585    -3.4800 H       
@<TRIPOS>BOND
   1    1    2 am
   2    1   10 1
   3    1   17 1
   4    2    3 1
   5    2   15 2
   6    3    4 2
   7    3   48 1
   8    4    5 1
   9    4   49 1
  10    5    6 ar
  11    5   10 ar
  12    6    7 ar
  13    6   50 1
  14    7    8 ar
  15    8    9 ar
  16    8   14 ar
  17    9   10 ar
  18    9   11 ar
  19   11   12 ar
  20   11   51 1
  21   12   13 ar
  22   12   16 1
  23   13   14 ar
  24   13   52 1
  25   14   53 1
  26   16   24 ar
  27   16   30 ar
  28   17   18 ar
  29   17   22 ar
  30   18   19 ar
  31   18   54 1
  32   19   20 ar
  33   19   55 1
  34   20   21 ar
  35   20   23 1
  36   21   22 ar
  37   21   44 1
  38   22   56 1
  39   23   25 1
  40   23   37 1
  41   24   27 ar
  42   24   57 1
  43   25   26 1
  44   25   58 1
  45   25   59 1
  46   26   35 1
  47   26   60 1
  48   26   61 1
  49   27   28 ar
  50   28   29 ar
  51   28   31 ar
  52   29   30 ar
  53   29   34 ar
  54   30   62 1
  55   31   32 ar
  56   31   63 1
  57   32   33 ar
  58   32   64 1
  59   33   34 ar
  60   33   65 1
  61   34   66 1
  62   35   36 1
  63   35   38 am
  64   36   37 1
  65   36   67 1
  66   36   68 1
  67   37   69 1
  68   37   70 1
  69   38   39 am
  70   38   40 2
  71   39   41 1
  72   39   71 1
  73   41   42 1
  74   41   72 1
  75   41   73 1
  76   42   43 1
  77   42   74 1
  78   42   75 1
  79   43   76 1
  80   44   45 1
  81   44   46 1
  82   44   47 1

#	End of record

