#	Name: ASD04880376
#	Creating user name:	WinNT
#	Creation time:	15. 06. 2019 20:53

#	Modifying user name:	WinNT
#	Modification time:	15. 06. 2019 20:53

#	Program:	/corina/corina34_cracker 3.40 0067  02.08.2006

@<TRIPOS>MOLECULE
ASD04880376
  38   40    0    0    0
SMALL
NO_CHARGES


@<TRIPOS>ATOM
   1 C1            -0.0053     1.3609     0.2989 C.ar    
   2 C2             0.0100    -0.0223     0.2655 C.ar    
   3 C3            -1.1745    -0.7275     0.2187 C.ar    
   4 C4            -2.3915    -0.0419     0.2050 C.ar    
   5 C5            -2.3993     1.3546     0.2389 C.ar    
   6 C6            -1.2072     2.0465     0.2910 C.ar    
   7 C7            -3.6621    -0.7889     0.1545 C.2     
   8 N8            -3.7691    -2.0722     0.1204 N.2     
   9 N9            -5.0833    -2.5330     0.0758 N.am    
  10 C10           -5.9933    -1.3765     0.0809 C.3     
  11 C11           -5.0400    -0.1666     0.1412 C.3     
  12 C12           -5.4596    -3.8265     0.0342 C.2     
  13 O13           -6.6378    -4.1193     0.1011 O.2     
  14 C14           -4.4401    -4.8889    -0.0926 C.ar    
  15 C15           -4.8105    -6.2314     0.0077 C.ar    
  16 C16           -3.1042    -4.5546    -0.3189 C.ar    
  17 C17           -2.1562    -5.5534    -0.4364 C.ar    
  18 C18           -2.5309    -6.8830    -0.3300 C.ar    
  19 C19           -3.8550    -7.2191    -0.1114 C.ar    
  20 F20           -0.8622    -5.2327    -0.6559 F       
  21 S21            1.5127     2.2534     0.3593 S.o2    
  22 N22            1.9752     2.5403    -1.2047 N.am    
  23 O23            1.2110     3.5204     0.9274 O.2     
  24 O24            2.4783     1.3662     0.9069 O.2     
  25 H25            0.9517    -0.5510     0.2758 H       
  26 H26           -1.1610    -1.8071     0.1922 H       
  27 H27           -3.3366     1.8911     0.2286 H       
  28 H28           -1.2117     3.1262     0.3172 H       
  29 H29           -6.5904    -1.3543    -0.8308 H       
  30 H30           -6.6359    -1.3980     0.9610 H       
  31 H31           -5.2133     0.4118     1.0487 H       
  32 H32           -5.1616     0.4604    -0.7421 H       
  33 H33           -5.8435    -6.4961     0.1786 H       
  34 H34           -2.8120    -3.5183    -0.4023 H       
  35 H35           -1.7870    -7.6605    -0.4228 H       
  36 H36           -4.1406    -8.2574    -0.0290 H       
  37 H37            2.4909     3.3330    -1.4203 H       
  38 H38            1.7304     1.9156    -1.9052 H       
@<TRIPOS>BOND
   1    1    2 ar
   2    1   21 1
   3    1    6 ar
   4    2    3 ar
   5    2   25 1
   6    3    4 ar
   7    3   26 1
   8    4    5 ar
   9    4    7 1
  10    5    6 ar
  11    5   27 1
  12    6   28 1
  13    7    8 2
  14    7   11 1
  15    8    9 1
  16    9   10 1
  17    9   12 am
  18   10   11 1
  19   10   29 1
  20   10   30 1
  21   11   31 1
  22   11   32 1
  23   12   13 2
  24   12   14 1
  25   14   15 ar
  26   14   16 ar
  27   15   19 ar
  28   15   33 1
  29   16   17 ar
  30   16   34 1
  31   17   18 ar
  32   17   20 1
  33   18   19 ar
  34   18   35 1
  35   19   36 1
  36   21   22 am
  37   21   23 2
  38   21   24 2
  39   22   37 1
  40   22   38 1

#	End of record

