#	Name: ASD01420345
#	Creating user name:	WinNT
#	Creation time:	15. 06. 2019 19:20

#	Modifying user name:	WinNT
#	Modification time:	15. 06. 2019 19:20

#	Program:	/corina/corina34_cracker 3.40 0067  02.08.2006

@<TRIPOS>MOLECULE
ASD01420345
  69   73    0    0    0
SMALL
NO_CHARGES


@<TRIPOS>ATOM
   1 C1            -0.0144     1.2120     0.0087 C.2     
   2 O2             0.2425     0.1772     0.5938 O.2     
   3 C3             2.3276     1.3992    -0.8859 C.3     
   4 N4             0.9261     1.8083    -0.7504 N.am    
   5 C5             0.7434     2.9899    -1.5992 C.3     
   6 C6             2.0668     3.2920    -2.2557 C.ar    
   7 C7             2.4379     4.2894    -3.1399 C.ar    
   8 C8             3.7418     4.3538    -3.6067 C.ar    
   9 C9             4.6732     3.4158    -3.1852 C.ar    
  10 C10            4.2987     2.4223    -2.3030 C.ar    
  11 C11            2.9958     2.3594    -1.8376 C.ar    
  12 C12            5.3102     1.4034    -1.8451 C.3     
  13 O13            4.1066     5.3331    -4.4755 O.3     
  14 C14           -1.3558     1.8104     0.1249 C.ar    
  15 C15           -2.4979     0.9967     0.0520 C.ar    
  16 C16           -3.7586     1.5595     0.1607 C.ar    
  17 C17           -3.8981     2.9254     0.3415 C.ar    
  18 C18           -2.7615     3.7461     0.4159 C.ar    
  19 C19           -1.4935     3.1862     0.3132 C.ar    
  20 C20           -2.9129     5.2029     0.6083 C.2     
  21 C21           -3.3071     5.9677    -0.4009 C.2     
  22 C22           -2.6195     5.8201     1.9515 C.3     
  23 O23           -5.1353     3.4714     0.4464 O.3     
  24 C24           -6.2478     2.5786     0.3615 C.3     
  25 C25           -7.5298     3.3590     0.4981 C.ar    
  26 C26           -8.1506     3.8706    -0.6261 C.ar    
  27 C27           -9.3265     4.5865    -0.5008 C.ar    
  28 C28           -9.8818     4.7903     0.7485 C.ar    
  29 C29           -9.2615     4.2779     1.8726 C.ar    
  30 C30           -8.0879     3.5583     1.7469 C.ar    
  31 O31           -2.3663    -0.3415    -0.1255 O.3     
  32 C32           -3.5700    -1.1088    -0.1906 C.3     
  33 C33           -3.2286    -2.5631    -0.3891 C.ar    
  34 C34           -3.0380    -3.3841     0.7066 C.ar    
  35 C35           -2.7248    -4.7182     0.5245 C.ar    
  36 C36           -2.6026    -5.2313    -0.7533 C.ar    
  37 C37           -2.7941    -4.4104    -1.8490 C.ar    
  38 C38           -3.1116    -3.0774    -1.6668 C.ar    
  39 H39            2.8199     1.4396     0.0858 H       
  40 H40            2.3799     0.3865    -1.2856 H       
  41 H41           -0.0087     2.7848    -2.3611 H       
  42 H42            0.4313     3.8379    -0.9897 H       
  43 H43            1.7112     5.0183    -3.4669 H       
  44 H44            5.6897     3.4627    -3.5470 H       
  45 H45            5.8071     1.7641    -0.9444 H       
  46 H46            4.8053     0.4618    -1.6292 H       
  47 H47            6.0498     1.2474    -2.6304 H       
  48 H48            4.4296     6.1381    -4.0478 H       
  49 H49           -4.6354     0.9315     0.1039 H       
  50 H50           -0.6174     3.8148     0.3746 H       
  51 H51           -3.5174     5.5254    -1.3635 H       
  52 H52           -3.4178     7.0327    -0.2603 H       
  53 H53           -1.5691     6.1074     1.9977 H       
  54 H54           -3.2440     6.7026     2.0901 H       
  55 H55           -2.8332     5.0966     2.7382 H       
  56 H56           -6.2329     2.0701    -0.6025 H       
  57 H57           -6.1841     1.8416     1.1620 H       
  58 H58           -7.7167     3.7114    -1.6022 H       
  59 H59           -9.8111     4.9868    -1.3790 H       
  60 H60          -10.8002     5.3502     0.8465 H       
  61 H61           -9.6952     4.4374     2.8488 H       
  62 H62           -7.6052     3.1548     2.6248 H       
  63 H63           -4.1273    -0.9900     0.7386 H       
  64 H64           -4.1779    -0.7610    -1.0258 H       
  65 H65           -3.1335    -2.9833     1.7049 H       
  66 H66           -2.5752    -5.3594     1.3805 H       
  67 H67           -2.3572    -6.2733    -0.8956 H       
  68 H68           -2.6983    -4.8112    -2.8472 H       
  69 H69           -3.2648    -2.4370    -2.5229 H       
@<TRIPOS>BOND
   1    1    2 2
   2    1    4 am
   3    1   14 1
   4    3    4 1
   5    3   11 1
   6    3   39 1
   7    3   40 1
   8    4    5 1
   9    5    6 1
  10    5   41 1
  11    5   42 1
  12    6    7 ar
  13    6   11 ar
  14    7    8 ar
  15    7   43 1
  16    8    9 ar
  17    8   13 1
  18    9   10 ar
  19    9   44 1
  20   10   11 ar
  21   10   12 1
  22   12   45 1
  23   12   46 1
  24   12   47 1
  25   13   48 1
  26   14   15 ar
  27   14   19 ar
  28   15   16 ar
  29   15   31 1
  30   16   17 ar
  31   16   49 1
  32   17   18 ar
  33   17   23 1
  34   18   19 ar
  35   18   20 1
  36   19   50 1
  37   20   21 2
  38   20   22 1
  39   21   51 1
  40   21   52 1
  41   22   53 1
  42   22   54 1
  43   22   55 1
  44   23   24 1
  45   24   25 1
  46   24   56 1
  47   24   57 1
  48   25   26 ar
  49   25   30 ar
  50   26   27 ar
  51   26   58 1
  52   27   28 ar
  53   27   59 1
  54   28   29 ar
  55   28   60 1
  56   29   30 ar
  57   29   61 1
  58   30   62 1
  59   31   32 1
  60   32   33 1
  61   32   63 1
  62   32   64 1
  63   33   34 ar
  64   33   38 ar
  65   34   35 ar
  66   34   65 1
  67   35   36 ar
  68   35   66 1
  69   36   37 ar
  70   36   67 1
  71   37   38 ar
  72   37   68 1
  73   38   69 1

#	End of record

