#	Name: ASD01610002
#	Creating user name:	WinNT
#	Creation time:	15. 06. 2019 19:22

#	Modifying user name:	WinNT
#	Modification time:	15. 06. 2019 19:22

#	Program:	/corina/corina34_cracker 3.40 0067  02.08.2006

@<TRIPOS>MOLECULE
ASD01610002
  34   36    0    0    0
SMALL
NO_CHARGES


@<TRIPOS>ATOM
   1 C1            -0.0187     1.5258     0.0104 C.3     
   2 C2             0.0021    -0.0041     0.0020 C.3     
   3 C3             1.4167     2.0553    -0.0004 C.3     
   4 C4             2.1328     1.5619    -1.2592 C.3     
   5 C5             2.1536     0.0321    -1.2676 C.3     
   6 C6             0.7182    -0.4975    -1.2568 C.3     
   7 C7             2.8936    -0.4747    -0.0281 C.3     
   8 C8             0.7421    -0.5109     1.2415 C.3     
   9 C9             2.1775     0.0187     1.2307 C.3     
  10 C10            2.1567     1.5485     1.2391 C.3     
  11 C11            1.3960     3.5852     0.0080 C.3     
  12 C12            2.8313     4.1148    -0.0029 C.3     
  13 N13            0.6855     4.0718    -1.1821 N.3     
  14 H14           -0.5459     1.8868    -0.8726 H       
  15 H15           -0.5289     1.8773     0.9072 H       
  16 H16           -1.0205    -0.3814     0.0098 H       
  17 H17            1.6057     1.9230    -2.1423 H       
  18 H18            3.1554     1.9392    -1.2670 H       
  19 H19            2.6638    -0.3194    -2.1644 H       
  20 H20            0.7330    -1.5874    -1.2628 H       
  21 H21            0.1910    -0.1364    -2.1398 H       
  22 H22            2.9084    -1.5646    -0.0341 H       
  23 H23            3.9162    -0.0975    -0.0359 H       
  24 H24            0.2319    -0.1594     2.1383 H       
  25 H25            0.7568    -1.6008     1.2356 H       
  26 H26            2.7046    -0.3424     2.1137 H       
  27 H27            3.1793     1.9258     1.2314 H       
  28 H28            1.6465     1.9000     2.1359 H       
  29 H29            0.8858     3.9367     0.9048 H       
  30 H30            3.3415     3.7632    -0.8997 H       
  31 H31            2.8166     5.2047     0.0031 H       
  32 H32            3.3585     3.7537     0.8802 H       
  33 H33           -0.2447     3.6839    -1.2318 H       
  34 H34            0.6581     5.0803    -1.1998 H       
@<TRIPOS>BOND
   1    1    2 1
   2    1    3 1
   3    1   14 1
   4    1   15 1
   5    2    6 1
   6    2    8 1
   7    2   16 1
   8    3    4 1
   9    3   10 1
  10    3   11 1
  11    4    5 1
  12    4   17 1
  13    4   18 1
  14    5    7 1
  15    5    6 1
  16    5   19 1
  17    6   20 1
  18    6   21 1
  19    7    9 1
  20    7   22 1
  21    7   23 1
  22    8    9 1
  23    8   24 1
  24    8   25 1
  25    9   10 1
  26    9   26 1
  27   10   27 1
  28   10   28 1
  29   11   12 1
  30   11   13 1
  31   11   29 1
  32   12   30 1
  33   12   31 1
  34   12   32 1
  35   13   33 1
  36   13   34 1

#	End of record

