#	Name: ASD03330506
#	Creating user name:	WinNT
#	Creation time:	15. 06. 2019 20:37

#	Modifying user name:	WinNT
#	Modification time:	15. 06. 2019 20:37

#	Program:	/corina/corina34_cracker 3.40 0067  02.08.2006

@<TRIPOS>MOLECULE
ASD03330506
  52   55    0    0    0
SMALL
NO_CHARGES


@<TRIPOS>ATOM
   1 C1            -0.0179     1.4655     0.0101 C.3     
   2 N2             0.0021    -0.0041     0.0020 N.3     
   3 C3             0.4507    -0.5225    -1.3030 C.3     
   4 C4             1.7235     0.1924    -1.6756 C.2     
   5 N5             2.1518     1.3326    -1.0777 N.pl3   
   6 C6             1.4183     2.0045    -0.0007 C.3     
   7 C7             2.6511    -0.1365    -2.6296 C.2     
   8 N8             3.6262     0.8109    -2.5887 N.2     
   9 C9             3.3278     1.6895    -1.6594 C.2     
  10 C10            4.1390     2.8746    -1.3035 C.ar    
  11 C11            2.6015    -1.2941    -3.5270 C.2     
  12 O12            1.6717    -2.0712    -3.4640 O.2     
  13 C13            3.4125    -2.7867    -5.3335 C.3     
  14 C14            3.7053    -1.5193    -4.5280 C.3     
  15 C15            4.5331    -3.0153    -6.3498 C.3     
  16 C16            5.1498     3.3140    -2.1587 C.ar    
  17 C17            5.9028     4.4198    -1.8211 C.ar    
  18 C18            5.6572     5.0924    -0.6374 C.ar    
  19 C19            4.6562     4.6616     0.2150 C.ar    
  20 C20            3.8924     3.5607    -0.1140 C.ar    
  21 C21           -1.3133    -0.5504     0.3615 C.3     
  22 C22            4.2447    -4.2637    -7.1432 C.ar    
  23 C23            3.5136    -4.1852    -8.3138 C.ar    
  24 C24            4.7160    -5.4865    -6.7034 C.ar    
  25 C25            4.4514    -6.6316    -7.4311 C.ar    
  26 C26            3.7152    -6.5540    -8.5985 C.ar    
  27 C27            3.2490    -5.3303    -9.0416 C.ar    
  28 H28           -0.5467     1.8256    -0.8724 H       
  29 H29           -0.5297     1.8160     0.9063 H       
  30 H30            0.6378    -1.5937    -1.2293 H       
  31 H31           -0.3130    -0.3323    -2.0572 H       
  32 H32            1.4061     3.0798    -0.1793 H       
  33 H33            1.8967     1.7955     0.9561 H       
  34 H34            3.3542    -3.6407    -4.6587 H       
  35 H35            2.4639    -2.6727    -5.8581 H       
  36 H36            3.7636    -0.6653    -5.2028 H       
  37 H37            4.6539    -1.6333    -4.0034 H       
  38 H38            4.5914    -2.1613    -7.0246 H       
  39 H39            5.4817    -3.1293    -5.8252 H       
  40 H40            5.3428     2.7896    -3.0829 H       
  41 H41            6.6859     4.7608    -2.4821 H       
  42 H42            6.2496     5.9572    -0.3774 H       
  43 H43            4.4692     5.1909     1.1376 H       
  44 H44            3.1112     3.2253     0.5521 H       
  45 H45           -2.0696    -0.1512    -0.3144 H       
  46 H46           -1.2901    -1.6371     0.2797 H       
  47 H47           -1.5563    -0.2682     1.3859 H       
  48 H48            3.1488    -3.2293    -8.6596 H       
  49 H49            5.2912    -5.5472    -5.7913 H       
  50 H50            4.8203    -7.5869    -7.0879 H       
  51 H51            3.5088    -7.4486    -9.1673 H       
  52 H52            2.6738    -5.2696    -9.9536 H       
@<TRIPOS>BOND
   1    1    2 1
   2    1    6 1
   3    1   28 1
   4    1   29 1
   5    2    3 1
   6    2   21 1
   7    3    4 1
   8    3   30 1
   9    3   31 1
  10    4    5 1
  11    4    7 2
  12    5    6 1
  13    5    9 1
  14    6   32 1
  15    6   33 1
  16    7    8 1
  17    7   11 1
  18    8    9 2
  19    9   10 1
  20   10   16 ar
  21   10   20 ar
  22   11   12 2
  23   11   14 1
  24   13   14 1
  25   13   15 1
  26   13   34 1
  27   13   35 1
  28   14   36 1
  29   14   37 1
  30   15   22 1
  31   15   38 1
  32   15   39 1
  33   16   17 ar
  34   16   40 1
  35   17   18 ar
  36   17   41 1
  37   18   19 ar
  38   18   42 1
  39   19   20 ar
  40   19   43 1
  41   20   44 1
  42   21   45 1
  43   21   46 1
  44   21   47 1
  45   22   23 ar
  46   22   24 ar
  47   23   27 ar
  48   23   48 1
  49   24   25 ar
  50   24   49 1
  51   25   26 ar
  52   25   50 1
  53   26   27 ar
  54   26   51 1
  55   27   52 1

#	End of record

