#	Name: ASD03090326
#	Creating user name:	WinNT
#	Creation time:	15. 06. 2019 20:28

#	Modifying user name:	WinNT
#	Modification time:	15. 06. 2019 20:28

#	Program:	/corina/corina34_cracker 3.40 0067  02.08.2006

@<TRIPOS>MOLECULE
ASD03090326
  58   60    0    0    0
SMALL
NO_CHARGES


@<TRIPOS>ATOM
   1 N1            -0.0133     1.1350     1.2712 N.ar    
   2 C2             0.0506    -0.1880     1.2655 C.ar    
   3 C3             1.2504    -0.8393     1.0094 C.ar    
   4 C4             2.3924    -0.0769     0.7571 C.ar    
   5 C5             2.2747     1.3187     0.7740 C.ar    
   6 C6             1.0463     1.8861     1.0368 C.ar    
   7 C7             3.6934    -0.7263     0.4795 C.2     
   8 N8             5.7280    -3.4330    -0.4627 N.pl3   
   9 C9             4.8956    -4.4887    -0.8481 C.ar    
  10 C10            3.6895    -4.2257    -1.4843 C.ar    
  11 C11            2.8647    -5.2699    -1.8661 C.ar    
  12 C12            3.2404    -6.5786    -1.6146 C.ar    
  13 C13            4.4473    -6.8458    -0.9773 C.ar    
  14 C14            5.2774    -5.8002    -0.5999 C.ar    
  15 N15            3.8702    -1.9736     0.0930 N.2     
  16 C16            5.1724    -2.2163    -0.0622 C.2     
  17 N17            5.8481    -1.1267     0.2231 N.2     
  18 N18            4.9090    -0.1427     0.5723 N.pl3   
  19 C19            5.1914     1.2392     0.9681 C.3     
  20 C20            5.2359     2.1139    -0.2583 C.2     
  21 N21            5.4823     3.4334    -0.1364 N.am    
  22 N22            4.8265    -8.1674    -0.7224 N.pl3   
  23 F23            1.6916    -5.0117    -2.4845 F       
  24 N24           -1.0958    -0.9329     1.5191 N.pl3   
  25 O25            5.0500     1.6305    -1.3549 O.2     
  26 C26            5.5255     4.2837    -1.3286 C.3     
  27 F27            2.4342    -7.5963    -1.9880 F       
  28 C28            5.8205     5.7269    -0.9152 C.3     
  29 C29           -1.0341    -2.3966     1.5148 C.3     
  30 C30           -2.4210    -2.9664     1.8195 C.3     
  31 C31            6.0980    -8.4481    -0.0511 C.3     
  32 C32            6.2695    -9.9605     0.1046 C.3     
  33 H33            1.2991    -1.9182     1.0058 H       
  34 H34            3.1356     1.9423     0.5835 H       
  35 H35            0.9494     2.9617     1.0512 H       
  36 H36            6.6913    -3.5461    -0.4737 H       
  37 H37            3.3945    -3.2055    -1.6810 H       
  38 H38            6.2150    -6.0059    -0.1049 H       
  39 H39            4.4077     1.5926     1.6382 H       
  40 H40            6.1531     1.2814     1.4795 H       
  41 H41            5.6310     3.8200     0.7408 H       
  42 H42            4.2477    -8.8983    -0.9901 H       
  43 H43           -1.9363    -0.4834     1.6989 H       
  44 H44            6.3092     3.9303    -1.9987 H       
  45 H45            4.5639     4.2415    -1.8400 H       
  46 H46            5.8527     6.3596    -1.8022 H       
  47 H47            5.0368     6.0803    -0.2451 H       
  48 H48            6.7821     5.7691    -0.4038 H       
  49 H49           -0.7061    -2.7435     0.5349 H       
  50 H50           -0.3283    -2.7327     2.2743 H       
  51 H51           -2.7490    -2.6194     2.7994 H       
  52 H52           -3.1268    -2.6302     1.0600 H       
  53 H53           -2.3751    -4.0554     1.8163 H       
  54 H54            6.9191    -8.0487    -0.6464 H       
  55 H55            6.1008    -7.9789     0.9328 H       
  56 H56            5.4484   -10.3599     0.6999 H       
  57 H57            6.2668   -10.4296    -0.8792 H       
  58 H58            7.2156   -10.1693     0.6041 H       
@<TRIPOS>BOND
   1    1    2 ar
   2    1    6 ar
   3    2    3 ar
   4    2   24 1
   5    3    4 ar
   6    3   33 1
   7    4    5 ar
   8    4    7 1
   9    5    6 ar
  10    5   34 1
  11    6   35 1
  12    7   15 2
  13    7   18 1
  14    8    9 1
  15    8   16 1
  16    8   36 1
  17    9   10 ar
  18    9   14 ar
  19   10   11 ar
  20   10   37 1
  21   11   12 ar
  22   11   23 1
  23   12   13 ar
  24   12   27 1
  25   13   14 ar
  26   13   22 1
  27   14   38 1
  28   15   16 1
  29   16   17 2
  30   17   18 1
  31   18   19 1
  32   19   20 1
  33   19   39 1
  34   19   40 1
  35   20   21 am
  36   20   25 2
  37   21   26 1
  38   21   41 1
  39   22   31 1
  40   22   42 1
  41   24   29 1
  42   24   43 1
  43   26   28 1
  44   26   44 1
  45   26   45 1
  46   28   46 1
  47   28   47 1
  48   28   48 1
  49   29   30 1
  50   29   49 1
  51   29   50 1
  52   30   51 1
  53   30   52 1
  54   30   53 1
  55   31   32 1
  56   31   54 1
  57   31   55 1
  58   32   56 1
  59   32   57 1
  60   32   58 1

#	End of record

