#	Name: ASD03081321
#	Creating user name:	WinNT
#	Creation time:	15. 06. 2019 20:27

#	Modifying user name:	WinNT
#	Modification time:	15. 06. 2019 20:27

#	Program:	/corina/corina34_cracker 3.40 0067  02.08.2006

@<TRIPOS>MOLECULE
ASD03081321
  29   31    0    0    0
SMALL
NO_CHARGES


@<TRIPOS>ATOM
   1 O1            -0.0162     1.3444     0.0094 O.3     
   2 C2             0.0021    -0.0041     0.0020 C.2     
   3 N3             1.2606    -0.3805    -0.0120 N.2     
   4 N4             2.0177     0.6598    -0.0137 N.2     
   5 C5             1.2725     1.7416    -0.0007 C.2     
   6 C6             0.8547     4.2023     0.0149 C.ar    
   7 C7             1.7573     3.1373     0.0014 C.ar    
   8 C8             3.1296     3.4143    -0.0097 C.ar    
   9 C9             3.5313     4.7386    -0.0067 C.ar    
  10 C10            2.5739     5.7366     0.0070 C.ar    
  11 N11            1.2868     5.4461     0.0168 N.ar    
  12 C12           -1.1769    -0.8945     0.0089 C.ar    
  13 C13           -1.0085    -2.2807    -0.0002 C.ar    
  14 C14           -2.1126    -3.1075     0.0068 C.ar    
  15 C15           -3.3861    -2.5671     0.0224 C.ar    
  16 C16           -3.5616    -1.1927     0.0315 C.ar    
  17 C17           -2.4633    -0.3538     0.0304 C.ar    
  18 C18            0.3773    -2.8725    -0.0181 C.3     
  19 F19           -4.8081    -0.6719     0.0466 F       
  20 H20           -0.2071     4.0044     0.0191 H       
  21 H21            3.8559     2.6151    -0.0199 H       
  22 H22            4.5816     4.9901    -0.0146 H       
  23 H23            2.8849     6.7709     0.0094 H       
  24 H24           -1.9826    -4.1796    -0.0002 H       
  25 H25           -4.2470    -3.2192     0.0270 H       
  26 H26           -2.6002     0.7175     0.0417 H       
  27 H27            0.7224    -3.0206     1.0051 H       
  28 H28            0.3564    -3.8309    -0.5368 H       
  29 H29            1.0554    -2.1940    -0.5357 H       
@<TRIPOS>BOND
   1    1    2 1
   2    1    5 1
   3    2    3 2
   4    2   12 1
   5    3    4 1
   6    4    5 2
   7    5    7 1
   8    6    7 ar
   9    6   11 ar
  10    6   20 1
  11    7    8 ar
  12    8    9 ar
  13    8   21 1
  14    9   10 ar
  15    9   22 1
  16   10   11 ar
  17   10   23 1
  18   12   13 ar
  19   12   17 ar
  20   13   14 ar
  21   13   18 1
  22   14   15 ar
  23   14   24 1
  24   15   16 ar
  25   15   25 1
  26   16   17 ar
  27   16   19 1
  28   17   26 1
  29   18   27 1
  30   18   28 1
  31   18   29 1

#	End of record

