#	Name: ASD00170016
#	Creating user name:	WinNT
#	Creation time:	15. 06. 2019 18:31

#	Modifying user name:	WinNT
#	Modification time:	15. 06. 2019 18:31

#	Program:	/corina/corina34_cracker 3.40 0067  02.08.2006

@<TRIPOS>MOLECULE
ASD00170016
  38   40    0    0    0
SMALL
NO_CHARGES


@<TRIPOS>ATOM
   1 C1            -0.0695     1.3005    -0.3507 C.2     
   2 N2            -0.0483    -0.0060    -0.3345 N.2     
   3 N3            -1.1645    -0.7657     0.0090 N.am    
   4 C4            -2.3405    -0.2158     0.3472 C.2     
   5 C5            -2.4911     1.2041     0.3668 C.2     
   6 C6            -1.3220     2.0172     0.0142 C.2     
   7 O7            -3.2832    -0.9302     0.6381 O.2     
   8 C8            -3.5882     1.9741     0.6773 C.2     
   9 S9            -3.2412     3.6341     0.5457 S.3     
  10 C10           -1.5825     3.3358     0.0674 C.2     
  11 N11           -4.8189     1.4625     1.0498 N.pl3   
  12 C12            1.1390     2.0586    -0.7215 C.2     
  13 O13            2.2720     1.4042    -1.0457 O.3     
  14 O14            1.1140     3.2734    -0.7351 O.2     
  15 C15           -1.0546    -2.1599     0.0005 C.ar    
  16 C16           -0.5038    -2.8080    -1.0977 C.ar    
  17 C17           -0.3962    -4.1850    -1.1026 C.ar    
  18 C18           -0.8365    -4.9183    -0.0162 C.ar    
  19 C19           -1.3859    -4.2762     1.0788 C.ar    
  20 C20           -1.4907    -2.8995     1.0929 C.ar    
  21 C21            3.4231     2.2151    -1.4004 C.3     
  22 C22            4.6055     1.3035    -1.7348 C.3     
  23 C23            0.2012    -4.8890    -2.2936 C.3     
  24 F24            1.5831    -5.0153    -2.1159 F       
  25 F25           -0.3708    -6.1595    -2.4196 F       
  26 F26           -0.0541    -4.1458    -3.4511 F       
  27 H27           -0.8632     4.1097    -0.1563 H       
  28 H28           -4.9487     0.5028     1.1049 H       
  29 H29           -5.5518     2.0637     1.2557 H       
  30 H30           -0.1603    -2.2359    -1.9469 H       
  31 H31           -0.7516    -5.9950    -0.0228 H       
  32 H32           -1.7291    -4.8520     1.9256 H       
  33 H33           -1.9198    -2.3987     1.9482 H       
  34 H34            3.1813     2.8294    -2.2677 H       
  35 H35            3.6865     2.8588    -0.5612 H       
  36 H36            4.3421     0.6597    -2.5740 H       
  37 H37            5.4696     1.9122    -2.0011 H       
  38 H38            4.8473     0.6891    -0.8675 H       
@<TRIPOS>BOND
   1    1    2 2
   2    1   12 1
   3    1    6 1
   4    2    3 1
   5    3    4 am
   6    3   15 1
   7    4    5 1
   8    4    7 2
   9    5    6 1
  10    5    8 2
  11    6   10 2
  12    8    9 1
  13    8   11 1
  14    9   10 1
  15   10   27 1
  16   11   28 1
  17   11   29 1
  18   12   13 1
  19   12   14 2
  20   13   21 1
  21   15   16 ar
  22   15   20 ar
  23   16   17 ar
  24   16   30 1
  25   17   18 ar
  26   17   23 1
  27   18   19 ar
  28   18   31 1
  29   19   20 ar
  30   19   32 1
  31   20   33 1
  32   21   22 1
  33   21   34 1
  34   21   35 1
  35   22   36 1
  36   22   37 1
  37   22   38 1
  38   23   24 1
  39   23   25 1
  40   23   26 1

#	End of record

