#	Name: ASD02038629
#	Creating user name:	WinNT
#	Creation time:	15. 06. 2019 20:17

#	Modifying user name:	WinNT
#	Modification time:	15. 06. 2019 20:17

#	Program:	/corina/corina34_cracker 3.40 0067  02.08.2006

@<TRIPOS>MOLECULE
ASD02038629
  48   49    0    0    0
SMALL
NO_CHARGES


@<TRIPOS>ATOM
   1 C1             0.0539     1.0932    -1.4862 C.ar    
   2 C2             0.0891    -0.2865    -1.3855 C.ar    
   3 C3             1.2983    -0.9387    -1.2315 C.ar    
   4 C4             2.4776    -0.2074    -1.1779 C.ar    
   5 C5             2.4380     1.1777    -1.2794 C.ar    
   6 C6             1.2271     1.8234    -1.4332 C.ar    
   7 N7             3.7010    -0.8630    -1.0219 N.pl3   
   8 C8             4.9442    -0.0900    -0.9656 C.3     
   9 C9             6.1293    -1.0421    -0.7920 C.3     
  10 N10            7.3725    -0.2692    -0.7357 N.am    
  11 C11            8.5530    -0.9018    -0.5851 C.2     
  12 C12            9.8319    -0.1067    -0.5272 C.3     
  13 C13           11.0169    -1.0588    -0.3536 C.3     
  14 C14           12.2958    -0.2637    -0.2957 C.ar    
  15 C15           12.7747     0.1849     0.9216 C.ar    
  16 C16           12.9907     0.0108    -1.4593 C.ar    
  17 C17           14.1630     0.7392    -1.4098 C.ar    
  18 C18           14.6440     1.1961    -0.1893 C.ar    
  19 C19           13.9464     0.9137     0.9783 C.ar    
  20 N20           15.8293     1.9330    -0.1357 N.am    
  21 S21           15.8438     3.5148    -0.6255 S.o2    
  22 O22           17.1850     3.9345    -0.4152 O.2     
  23 O23           15.2823     3.4827    -1.9305 O.2     
  24 C24           14.7252     4.3563     0.5282 C.3     
  25 Cl25          -1.3862    -1.1990    -1.4521 Cl      
  26 O26            8.5861    -2.1109    -0.4963 O.2     
  27 H27           -0.8914     1.6004    -1.6110 H       
  28 H28            1.3256    -2.0155    -1.1525 H       
  29 H29            3.3536     1.7490    -1.2378 H       
  30 H30            1.1962     2.9000    -1.5124 H       
  31 H31            3.7275    -1.8300    -0.9509 H       
  32 H32            5.0637     0.4738    -1.8908 H       
  33 H33            4.9055     0.5995    -0.1223 H       
  34 H34            6.0098    -1.6060     0.1332 H       
  35 H35            6.1680    -1.7316    -1.6353 H       
  36 H36            7.3460     0.6978    -0.8068 H       
  37 H37            9.9514     0.4572    -1.4524 H       
  38 H38            9.7932     0.5828     0.3161 H       
  39 H39           10.8974    -1.6226     0.5716 H       
  40 H40           11.0556    -1.7483    -1.1969 H       
  41 H41           12.2317    -0.0348     1.8290 H       
  42 H42           12.6165    -0.3451    -2.4078 H       
  43 H43           14.7055     0.9529    -2.3189 H       
  44 H44           14.3174     1.2678     1.9287 H       
  45 H45           16.6440     1.5182     0.1886 H       
  46 H46           15.0491     4.1669     1.5516 H       
  47 H47           14.7425     5.4287     0.3342 H       
  48 H48           13.7117     3.9788     0.3922 H       
@<TRIPOS>BOND
   1    1    2 ar
   2    1    6 ar
   3    1   27 1
   4    2    3 ar
   5    2   25 1
   6    3    4 ar
   7    3   28 1
   8    4    5 ar
   9    4    7 1
  10    5    6 ar
  11    5   29 1
  12    6   30 1
  13    7    8 1
  14    7   31 1
  15    8    9 1
  16    8   32 1
  17    8   33 1
  18    9   10 1
  19    9   34 1
  20    9   35 1
  21   10   11 am
  22   10   36 1
  23   11   12 1
  24   11   26 2
  25   12   13 1
  26   12   37 1
  27   12   38 1
  28   13   14 1
  29   13   39 1
  30   13   40 1
  31   14   15 ar
  32   14   16 ar
  33   15   19 ar
  34   15   41 1
  35   16   17 ar
  36   16   42 1
  37   17   18 ar
  38   17   43 1
  39   18   19 ar
  40   18   20 1
  41   19   44 1
  42   20   21 am
  43   20   45 1
  44   21   22 2
  45   21   23 2
  46   21   24 1
  47   24   46 1
  48   24   47 1
  49   24   48 1

#	End of record

