#	Name: ASD06170169
#	Creating user name:	WinNT
#	Creation time:	15. 06. 2019 21:05

#	Modifying user name:	WinNT
#	Modification time:	15. 06. 2019 21:05

#	Program:	/corina/corina34_cracker 3.40 0067  02.08.2006

@<TRIPOS>MOLECULE
ASD06170169
  58   62    0    0    0
SMALL
NO_CHARGES


@<TRIPOS>ATOM
   1 N1             0.1280     1.2259    -0.2141 N.pl3   
   2 N2            -0.0499    -0.0373     0.3580 N.am    
   3 C3             1.1629    -0.5514     0.6498 C.2     
   4 C4             2.1541     0.4535     0.2337 C.2     
   5 C5             1.4408     1.5158    -0.2871 C.2     
   6 C6             3.6133     0.3483     0.3498 C.2     
   7 O7             4.3215     1.2594    -0.0359 O.2     
   8 N8             4.1688    -0.7576     0.8835 N.am    
   9 C9            -1.2792    -0.6632     0.5891 C.ar    
  10 C10           -1.4702    -1.9845     0.2062 C.ar    
  11 C11           -2.6853    -2.5996     0.4358 C.ar    
  12 C12           -3.7112    -1.9012     1.0458 C.ar    
  13 C13           -3.5242    -0.5855     1.4283 C.ar    
  14 C14           -2.3095     0.0335     1.2071 C.ar    
  15 O15            1.3921    -1.6332     1.1577 O.2     
  16 C16            5.5508    -0.8573     0.9935 C.ar    
  17 N17            6.0783    -1.9512     1.5205 N.ar    
  18 C18            7.3891    -2.0809     1.6409 C.ar    
  19 C19            8.2141    -1.0494     1.2054 C.ar    
  20 C20            7.6235     0.0842     0.6573 C.ar    
  21 N21            6.3054     0.1419     0.5636 N.ar    
  22 O22            9.5660    -1.1467     1.3134 O.3     
  23 N23           11.5432    -3.4917    -1.4437 N.ar    
  24 C24           10.2544    -3.2751    -1.5647 C.ar    
  25 C25            9.5549    -2.4919    -0.6556 C.ar    
  26 C26           10.2227    -1.9167     0.4114 C.ar    
  27 C27           11.6105    -2.1563     0.5317 C.ar    
  28 C28           12.3546    -1.6077     1.5864 C.ar    
  29 C29           13.6895    -1.8572     1.6751 C.ar    
  30 C30           14.3323    -2.6563     0.7252 C.ar    
  31 C31           13.6296    -3.2090    -0.3216 C.ar    
  32 C32           12.2514    -2.9673    -0.4365 C.ar    
  33 O33           15.6658    -2.8897     0.8361 O.3     
  34 C34           16.3398    -2.2884     1.9434 C.3     
  35 C35            2.0325     2.7854    -0.8431 C.3     
  36 C36           -0.9535     2.1016    -0.6722 C.3     
  37 H37            3.6041    -1.4839     1.1910 H       
  38 H38           -0.6697    -2.5302    -0.2709 H       
  39 H39           -2.8345    -3.6270     0.1383 H       
  40 H40           -4.6606    -2.3843     1.2236 H       
  41 H41           -4.3274    -0.0428     1.9045 H       
  42 H42           -2.1626     1.0597     1.5101 H       
  43 H43            7.8131    -2.9757     2.0721 H       
  44 H44            8.2333     0.9046     0.3087 H       
  45 H45            9.7230    -3.7183    -2.3939 H       
  46 H46            8.4944    -2.3313    -0.7816 H       
  47 H47           11.8694    -0.9884     2.3263 H       
  48 H48           14.2589    -1.4326     2.4886 H       
  49 H49           14.1357    -3.8247    -1.0504 H       
  50 H50           17.3965    -2.5540     1.9134 H       
  51 H51           16.2359    -1.2048     1.8871 H       
  52 H52           15.9012    -2.6476     2.8744 H       
  53 H53            2.1323     3.5201    -0.0441 H       
  54 H54            3.0142     2.5736    -1.2667 H       
  55 H55            1.3788     3.1807    -1.6207 H       
  56 H56           -1.3261     2.6885     0.1674 H       
  57 H57           -0.5760     2.7715    -1.4447 H       
  58 H58           -1.7631     1.4963    -1.0800 H       
@<TRIPOS>BOND
   1    1    2 1
   2    1    5 1
   3    1   36 1
   4    2    3 am
   5    2    9 1
   6    3    4 1
   7    3   15 2
   8    4    5 2
   9    4    6 1
  10    5   35 1
  11    6    7 2
  12    6    8 am
  13    8   16 1
  14    8   37 1
  15    9   10 ar
  16    9   14 ar
  17   10   11 ar
  18   10   38 1
  19   11   12 ar
  20   11   39 1
  21   12   13 ar
  22   12   40 1
  23   13   14 ar
  24   13   41 1
  25   14   42 1
  26   16   17 ar
  27   16   21 ar
  28   17   18 ar
  29   18   19 ar
  30   18   43 1
  31   19   20 ar
  32   19   22 1
  33   20   21 ar
  34   20   44 1
  35   22   26 1
  36   23   24 ar
  37   23   32 ar
  38   24   25 ar
  39   24   45 1
  40   25   26 ar
  41   25   46 1
  42   26   27 ar
  43   27   28 ar
  44   27   32 ar
  45   28   29 ar
  46   28   47 1
  47   29   30 ar
  48   29   48 1
  49   30   31 ar
  50   30   33 1
  51   31   32 ar
  52   31   49 1
  53   33   34 1
  54   34   50 1
  55   34   51 1
  56   34   52 1
  57   35   53 1
  58   35   54 1
  59   35   55 1
  60   36   56 1
  61   36   57 1
  62   36   58 1

#	End of record

