#	Name: ASD03730049
#	Creating user name:	WinNT
#	Creation time:	15. 06. 2019 20:43

#	Modifying user name:	WinNT
#	Modification time:	15. 06. 2019 20:43

#	Program:	/corina/corina34_cracker 3.40 0067  02.08.2006

@<TRIPOS>MOLECULE
ASD03730049
  38   42    0    0    0
SMALL
NO_CHARGES


@<TRIPOS>ATOM
   1 C1            -0.0184     1.5028     0.0103 C.2     
   2 C2             0.0021    -0.0041     0.0020 C.3     
   3 O3             1.0197     2.1211     0.0037 O.2     
   4 O4            -1.1898     2.1580     0.0194 O.3     
   5 O5             6.2459     2.8794     2.0976 O.3     
   6 C6             7.6663     2.8233     2.3260 C.3     
   7 O7             7.8789     1.4934     2.8350 O.3     
   8 C8             6.8679     0.7368     2.3152 C.ar    
   9 C9             5.8636     1.5896     1.8629 C.ar    
  10 C10            6.7212    -0.6329     2.1884 C.ar    
  11 C11            5.5735    -1.1688     1.6121 C.ar    
  12 C12            4.5736    -0.3071     1.1716 C.ar    
  13 C13            4.7194     1.0592     1.2910 C.ar    
  14 O14            5.2412    -2.4710     1.3795 O.3     
  15 C15            3.4673    -1.1739     0.6323 C.3     
  16 C16            3.8195    -2.5682     1.1684 C.3     
  17 N17            1.3897    -0.4735    -0.0138 N.am    
  18 C18            2.1130    -0.7212     1.0965 C.2     
  19 C19            3.4026    -1.1504    -0.8661 C.ar    
  20 C20            4.3041    -1.4527    -1.8622 C.ar    
  21 C21            3.9367    -1.3289    -3.1903 C.ar    
  22 C22            2.6624    -0.9003    -3.5148 C.ar    
  23 C23            1.7562    -0.5954    -2.5207 C.ar    
  24 C24            2.1172    -0.7175    -1.1811 C.ar    
  25 O25            1.7424    -0.6020     2.2452 O.2     
  26 H26           -0.4983    -0.3791     0.8948 H       
  27 H27           -0.5153    -0.3696    -0.8850 H       
  28 H28           -1.1523     3.1243     0.0245 H       
  29 H29            8.2103     2.9676     1.3925 H       
  30 H30            7.9653     3.5680     3.0637 H       
  31 H31            7.5027    -1.2907     2.5390 H       
  32 H32            3.9391     1.7171     0.9379 H       
  33 H33            3.5894    -3.3363     0.4301 H       
  34 H34            3.3012    -2.7643     2.1070 H       
  35 H35            5.2987    -1.7870    -1.6065 H       
  36 H36            4.6432    -1.5667    -3.9717 H       
  37 H37            2.3756    -0.8035    -4.5515 H       
  38 H38            0.7631    -0.2608    -2.7820 H       
@<TRIPOS>BOND
   1    1    2 1
   2    1    3 2
   3    1    4 1
   4    2   17 1
   5    2   26 1
   6    2   27 1
   7    4   28 1
   8    5    6 1
   9    5    9 1
  10    6    7 1
  11    6   29 1
  12    6   30 1
  13    7    8 1
  14    8    9 ar
  15    8   10 ar
  16    9   13 ar
  17   10   11 ar
  18   10   31 1
  19   11   12 ar
  20   11   14 1
  21   12   13 ar
  22   12   15 1
  23   13   32 1
  24   14   16 1
  25   15   16 1
  26   15   18 1
  27   15   19 1
  28   16   33 1
  29   16   34 1
  30   17   18 am
  31   17   24 1
  32   18   25 2
  33   19   20 ar
  34   19   24 ar
  35   20   21 ar
  36   20   35 1
  37   21   22 ar
  38   21   36 1
  39   22   23 ar
  40   22   37 1
  41   23   24 ar
  42   23   38 1

#	End of record

