#	Name: ASD01913977
#	Creating user name:	WinNT
#	Creation time:	15. 06. 2019 20:02

#	Modifying user name:	WinNT
#	Modification time:	15. 06. 2019 20:02

#	Program:	/corina/corina34_cracker 3.40 0067  02.08.2006

@<TRIPOS>MOLECULE
ASD01913977
  38   41    0    0    0
SMALL
NO_CHARGES


@<TRIPOS>ATOM
   1 N1            -0.0540     1.2971     0.0089 N.2     
   2 N2            -0.0587     0.0061     0.0598 N.pl3   
   3 C3             1.1849    -0.4424     0.2975 C.2     
   4 C4             2.0041     0.6663     0.3926 C.2     
   5 C5             1.1704     1.7660     0.2036 C.2     
   6 C6             3.4777     0.5337     0.6476 C.3     
   7 C7             1.7749    -1.7836     0.4644 C.ar    
   8 C8             1.1005    -2.9490     0.1400 C.ar    
   9 C9             1.7272    -4.1697     0.3097 C.ar    
  10 C10            3.0207    -4.2216     0.7992 C.ar    
  11 C11            3.6978    -3.0636     1.1311 C.ar    
  12 C12            3.0851    -1.8307     0.9772 C.ar    
  13 O13            3.7248    -0.6930     1.3416 O.3     
  14 C14            1.5745     3.1867     0.2171 C.2     
  15 O15            2.7374     3.4861     0.4074 O.2     
  16 N16            0.6542     4.1511     0.0185 N.am    
  17 C17           -1.2415    -0.8405    -0.1147 C.3     
  18 C18            1.0173     5.4977     0.1278 C.ar    
  19 C19            2.2747     5.9152    -0.2886 C.ar    
  20 C20            2.6306     7.2451    -0.1795 C.ar    
  21 C21            1.7357     8.1614     0.3445 C.ar    
  22 C22            0.4821     7.7482     0.7601 C.ar    
  23 C23            0.1188     6.4205     0.6476 C.ar    
  24 Cl24           2.1867     9.8323     0.4813 Cl      
  25 H25            4.0129     0.5293    -0.3019 H       
  26 H26            3.8191     1.3714     1.2556 H       
  27 H27            0.0915    -2.9045    -0.2426 H       
  28 H28            1.2071    -5.0829     0.0604 H       
  29 H29            3.5064    -5.1782     0.9237 H       
  30 H30            4.7070    -3.1200     1.5117 H       
  31 H31           -0.2600     3.9114    -0.2003 H       
  32 H32           -1.3563    -1.0913    -1.1693 H       
  33 H33           -1.1222    -1.7555     0.4655 H       
  34 H34           -2.1259    -0.3045     0.2297 H       
  35 H35            2.9738     5.2004    -0.6969 H       
  36 H36            3.6083     7.5703    -0.5031 H       
  37 H37           -0.2143     8.4652     1.1690 H       
  38 H38           -0.8614     6.0993     0.9676 H       
@<TRIPOS>BOND
   1    1    2 1
   2    1    5 2
   3    2    3 1
   4    2   17 1
   5    3    4 2
   6    3    7 1
   7    4    5 1
   8    4    6 1
   9    5   14 1
  10    6   13 1
  11    6   25 1
  12    6   26 1
  13    7    8 ar
  14    7   12 ar
  15    8    9 ar
  16    8   27 1
  17    9   10 ar
  18    9   28 1
  19   10   11 ar
  20   10   29 1
  21   11   12 ar
  22   11   30 1
  23   12   13 1
  24   14   15 2
  25   14   16 am
  26   16   18 1
  27   16   31 1
  28   17   32 1
  29   17   33 1
  30   17   34 1
  31   18   19 ar
  32   18   23 ar
  33   19   20 ar
  34   19   35 1
  35   20   21 ar
  36   20   36 1
  37   21   22 ar
  38   21   24 1
  39   22   23 ar
  40   22   37 1
  41   23   38 1

#	End of record

