#	Name: ASD01880451
#	Creating user name:	WinNT
#	Creation time:	15. 06. 2019 19:40

#	Modifying user name:	WinNT
#	Modification time:	15. 06. 2019 19:40

#	Program:	/corina/corina34_cracker 3.40 0067  02.08.2006

@<TRIPOS>MOLECULE
ASD01880451
  49   53    0    0    0
SMALL
NO_CHARGES


@<TRIPOS>ATOM
   1 C1            -0.0169     1.3928     0.0097 C.ar    
   2 C2             0.0021    -0.0041     0.0020 C.ar    
   3 C3             1.2136    -0.6908    -0.0132 C.ar    
   4 C4             2.4023     0.0192    -0.0206 C.ar    
   5 C5             2.3728     1.4246    -0.0129 C.ar    
   6 C6             1.1521     2.1000     0.0023 C.ar    
   7 N7             3.6286    -0.6377    -0.0347 N.pl3   
   8 C8             4.7929     0.0687    -0.0412 C.2     
   9 N9             4.8014     1.4562    -0.0336 N.am    
  10 C10            3.6500     2.1584    -0.0202 C.2     
  11 N11            3.9495    -2.0027    -0.0447 N.2     
  12 C12            5.2608    -2.1201    -0.0567 C.2     
  13 C13            5.8180    -0.8301    -0.0548 C.2     
  14 C14            6.0810     2.1695    -0.0406 C.3     
  15 O15            3.6660     3.3750    -0.0139 O.2     
  16 C16           -1.2739    -0.7592     0.0106 C.ar    
  17 C17            6.0197    -3.3952    -0.0704 C.ar    
  18 C18            5.3417    -4.6123    -0.0719 C.ar    
  19 C19            6.0527    -5.7955    -0.0846 C.ar    
  20 C20            7.4355    -5.7741    -0.0959 C.ar    
  21 C21            8.1138    -4.5684    -0.0945 C.ar    
  22 C22            7.4131    -3.3796    -0.0877 C.ar    
  23 C23           -2.4898    -0.0774     0.0262 C.ar    
  24 C24           -3.6744    -0.7841     0.0337 C.ar    
  25 C25           -3.6571    -2.1697     0.0256 C.ar    
  26 C26           -2.4509    -2.8517     0.0105 C.ar    
  27 C27           -1.2614    -2.1533    -0.0029 C.ar    
  28 F28           -4.8198    -2.8578     0.0329 F       
  29 S29            5.1969    -7.3357    -0.0859 S.o2    
  30 O30            6.0991    -8.2964     0.4455 O.2     
  31 O31            3.9143    -7.0826     0.4710 O.2     
  32 N32            4.9453    -7.7553    -1.6679 N.am    
  33 H33           -0.9612     1.9169     0.0170 H       
  34 H34            1.2259    -1.7707    -0.0187 H       
  35 H35            1.1313     3.1798     0.0080 H       
  36 H36            6.8716    -0.5926    -0.0631 H       
  37 H37            6.3895     2.3520    -1.0699 H       
  38 H38            5.9695     3.1209     0.4795 H       
  39 H39            6.8360     1.5662     0.4634 H       
  40 H40            4.2619    -4.6301    -0.0627 H       
  41 H41            7.9878    -6.7022    -0.1055 H       
  42 H42            9.1937    -4.5575    -0.1030 H       
  43 H43            7.9436    -2.4389    -0.0869 H       
  44 H44           -2.5042     1.0025     0.0329 H       
  45 H45           -4.6168    -0.2567     0.0462 H       
  46 H46           -2.4422    -3.9316     0.0046 H       
  47 H47           -0.3218    -2.6856    -0.0150 H       
  48 H48            4.9030    -8.6909    -1.9207 H       
  49 H49            4.8401    -7.0656    -2.3418 H       
@<TRIPOS>BOND
   1    1    2 ar
   2    1    6 ar
   3    1   33 1
   4    2    3 ar
   5    2   16 1
   6    3    4 ar
   7    3   34 1
   8    4    5 ar
   9    4    7 1
  10    5    6 ar
  11    5   10 1
  12    6   35 1
  13    7    8 1
  14    7   11 1
  15    8    9 1
  16    8   13 2
  17    9   10 am
  18    9   14 1
  19   10   15 2
  20   11   12 2
  21   12   13 1
  22   12   17 1
  23   13   36 1
  24   14   37 1
  25   14   38 1
  26   14   39 1
  27   16   23 ar
  28   16   27 ar
  29   17   18 ar
  30   17   22 ar
  31   18   19 ar
  32   18   40 1
  33   19   20 ar
  34   19   29 1
  35   20   21 ar
  36   20   41 1
  37   21   22 ar
  38   21   42 1
  39   22   43 1
  40   23   24 ar
  41   23   44 1
  42   24   25 ar
  43   24   45 1
  44   25   26 ar
  45   25   28 1
  46   26   27 ar
  47   26   46 1
  48   27   47 1
  49   29   30 2
  50   29   31 2
  51   29   32 am
  52   32   48 1
  53   32   49 1

#	End of record

