#	Name: ASD03320189
#	Creating user name:	WinNT
#	Creation time:	15. 06. 2019 20:36

#	Modifying user name:	WinNT
#	Modification time:	15. 06. 2019 20:36

#	Program:	/corina/corina34_cracker 3.40 0067  02.08.2006

@<TRIPOS>MOLECULE
ASD03320189
  51   54    0    0    0
SMALL
NO_CHARGES


@<TRIPOS>ATOM
   1 C1            -0.0073     1.3431    -0.1945 C.ar    
   2 C2             0.0219    -0.0350     0.0266 C.ar    
   3 N3            -1.0907    -0.7398     0.0428 N.ar    
   4 C4            -2.2715    -0.1859    -0.1461 C.ar    
   5 C5            -2.3918     1.1846    -0.3733 C.ar    
   6 C6            -1.2406     1.9716    -0.3937 C.ar    
   7 C7             1.2458     2.1270    -0.2117 C.2     
   8 O8             1.2097     3.3267    -0.4051 O.2     
   9 N9             2.4284     1.5118    -0.0130 N.am    
  10 C10            3.6219     2.2354    -0.1262 C.ar    
  11 C11           -3.7266     1.7980    -0.5849 C.ar    
  12 C12            3.6728     3.5603     0.2867 C.ar    
  13 C13            4.8501     4.2732     0.1747 C.ar    
  14 C14            5.9816     3.6664    -0.3506 C.ar    
  15 C15            5.9315     2.3429    -0.7633 C.ar    
  16 C16            4.7566     1.6269    -0.6462 C.ar    
  17 O17            7.1402     4.3693    -0.4614 O.3     
  18 C18            8.2660     3.6820    -1.0110 C.3     
  19 F19            7.9623     3.2512    -2.3069 F       
  20 F20            9.3654     4.5462    -1.0525 F       
  21 F21            8.5726     2.5755    -0.2117 F       
  22 C22           -4.1192     2.9288     0.1352 C.ar    
  23 N23           -5.3170     3.4433    -0.0842 N.ar    
  24 C24           -6.1349     2.9046    -0.9666 C.ar    
  25 N25           -5.8040     1.8377    -1.6667 N.ar    
  26 C26           -4.6229     1.2638    -1.5139 C.ar    
  27 C27           -3.5088    -1.0457    -0.1166 C.3     
  28 C28           -3.4164    -2.1144    -1.2100 C.3     
  29 C29           -4.6394    -3.0310    -1.1216 C.3     
  30 O30           -4.7021    -3.6152     0.1811 O.3     
  31 C31           -4.8369    -2.6656     1.2405 C.3     
  32 C32           -3.6218    -1.7344     1.2470 C.3     
  33 H33            0.9688    -0.5294     0.1861 H       
  34 H34           -1.2992     3.0360    -0.5671 H       
  35 H35            2.4527     0.5677     0.2084 H       
  36 H36            2.7918     4.0330     0.6951 H       
  37 H37            4.8899     5.3036     0.4959 H       
  38 H38            6.8127     1.8713    -1.1725 H       
  39 H39            4.7177     0.5965    -0.9676 H       
  40 H40           -3.4547     3.3754     0.8601 H       
  41 H41           -7.1062     3.3509    -1.1206 H       
  42 H42           -4.3588     0.3900    -2.0910 H       
  43 H43           -4.3884    -0.4249    -0.2869 H       
  44 H44           -3.3913    -1.6338    -2.1880 H       
  45 H45           -2.5095    -2.7025    -1.0688 H       
  46 H46           -5.5433    -2.4494    -1.3030 H       
  47 H47           -4.5578    -3.8192    -1.8699 H       
  48 H48           -5.7434    -2.0793     1.0899 H       
  49 H49           -4.8976    -3.1907     2.1937 H       
  50 H50           -2.7191    -2.3148     1.4378 H       
  51 H51           -3.7436    -0.9820     2.0261 H       
@<TRIPOS>BOND
   1    1    2 ar
   2    1    7 1
   3    1    6 ar
   4    2    3 ar
   5    2   33 1
   6    3    4 ar
   7    4    5 ar
   8    4   27 1
   9    5    6 ar
  10    5   11 1
  11    6   34 1
  12    7    8 2
  13    7    9 am
  14    9   10 1
  15    9   35 1
  16   10   12 ar
  17   10   16 ar
  18   11   22 ar
  19   11   26 ar
  20   12   13 ar
  21   12   36 1
  22   13   14 ar
  23   13   37 1
  24   14   15 ar
  25   14   17 1
  26   15   16 ar
  27   15   38 1
  28   16   39 1
  29   17   18 1
  30   18   19 1
  31   18   20 1
  32   18   21 1
  33   22   23 ar
  34   22   40 1
  35   23   24 ar
  36   24   25 ar
  37   24   41 1
  38   25   26 ar
  39   26   42 1
  40   27   28 1
  41   27   32 1
  42   27   43 1
  43   28   29 1
  44   28   44 1
  45   28   45 1
  46   29   30 1
  47   29   46 1
  48   29   47 1
  49   30   31 1
  50   31   32 1
  51   31   48 1
  52   31   49 1
  53   32   50 1
  54   32   51 1

#	End of record

