#	Name: ASD05420020
#	Creating user name:	WinNT
#	Creation time:	15. 06. 2019 20:59

#	Modifying user name:	WinNT
#	Modification time:	15. 06. 2019 20:59

#	Program:	/corina/corina34_cracker 3.40 0067  02.08.2006

@<TRIPOS>MOLECULE
ASD05420020
  60   62    0    0    0
SMALL
NO_CHARGES


@<TRIPOS>ATOM
   1 C1            -0.0127     1.3981     0.0282 C.ar    
   2 C2             0.0151     0.0037     0.0096 C.ar    
   3 C3             1.2303    -0.6630     0.0128 C.ar    
   4 C4             2.4163     0.0589     0.0345 C.ar    
   5 C5             2.3851     1.4469     0.0534 C.ar    
   6 C6             1.1740     2.1136     0.0498 C.ar    
   7 N7             3.6435    -0.6128     0.0377 N.pl3   
   8 C8             4.8950     0.1483     0.0606 C.3     
   9 C9             6.0625    -0.8046     0.0594 C.ar    
  10 C10            6.6086    -1.2241    -1.1408 C.ar    
  11 C11            7.6776    -2.0965    -1.1478 C.ar    
  12 C12            8.2077    -2.5548     0.0572 C.ar    
  13 C13            7.6539    -2.1284     1.2633 C.ar    
  14 C14            6.5881    -1.2522     1.2585 C.ar    
  15 B15            9.4236    -3.5479     0.0559 Du      
  16 O16           10.0899    -4.1160     1.1925 O.3     
  17 N17           -1.1816    -0.7207    -0.0118 N.pl3   
  18 O18           10.1079    -4.0910    -1.0821 O.3     
  19 C19           11.5015    -4.0861    -0.7070 C.3     
  20 C20           11.4892    -4.1030     0.8397 C.3     
  21 C21           12.2033    -5.3338    -1.2469 C.3     
  22 C22           12.1883    -2.8206    -1.2244 C.3     
  23 C23           12.1679    -2.8479     1.3920 C.3     
  24 C24           12.1842    -5.3610     1.3646 C.3     
  25 N25           -1.2423     2.0767     0.0192 N.am    
  26 C26           -1.3170     3.3295    -0.4720 C.2     
  27 O27           -0.3084     3.8993    -0.8393 O.2     
  28 O28           -2.5093     3.9499    -0.5559 O.3     
  29 C29           -3.9471     5.8350    -1.1122 C.3     
  30 C30           -2.5144     5.2981    -1.0949 C.3     
  31 H31            1.2547    -1.7426    -0.0013 H       
  32 H32            3.3085     2.0067     0.0706 H       
  33 H33            1.1527     3.1933     0.0643 H       
  34 H34            3.6657    -1.5825     0.0248 H       
  35 H35            4.9473     0.7881    -0.8203 H       
  36 H36            4.9295     0.7640     0.9594 H       
  37 H37            6.1971    -0.8684    -2.0738 H       
  38 H38            8.1025    -2.4239    -2.0851 H       
  39 H39            8.0605    -2.4807     2.1997 H       
  40 H40            6.1607    -0.9183     2.1925 H       
  41 H41           -2.0315    -0.2533    -0.0136 H       
  42 H42           -1.1613    -1.6904    -0.0247 H       
  43 H43           12.1508    -5.3378    -2.3356 H       
  44 H44           13.2473    -5.3277    -0.9336 H       
  45 H45           11.7119    -6.2248    -0.8562 H       
  46 H46           11.6864    -1.9426    -0.8179 H       
  47 H47           13.2323    -2.8199    -0.9111 H       
  48 H48           12.1356    -2.7978    -2.3129 H       
  49 H49           11.6355    -1.9633     1.0424 H       
  50 H50           12.1509    -2.8752     2.4815 H       
  51 H51           13.2007    -2.8109     1.0455 H       
  52 H52           13.2173    -5.3770     1.0175 H       
  53 H53           12.1670    -5.3576     2.4544 H       
  54 H54           11.6632    -6.2446     0.9957 H       
  55 H55           -2.0377     1.6437     0.3665 H       
  56 H56           -4.5685     5.1921    -1.7356 H       
  57 H57           -4.3424     5.8482    -0.0965 H       
  58 H58           -3.9509     6.8471    -1.5168 H       
  59 H59           -1.8930     5.9410    -0.4715 H       
  60 H60           -2.1191     5.2848    -2.1106 H       
@<TRIPOS>BOND
   1    1    2 ar
   2    1    6 ar
   3    1   25 1
   4    2    3 ar
   5    2   17 1
   6    3    4 ar
   7    3   31 1
   8    4    5 ar
   9    4    7 1
  10    5    6 ar
  11    5   32 1
  12    6   33 1
  13    7    8 1
  14    7   34 1
  15    8    9 1
  16    8   35 1
  17    8   36 1
  18    9   10 ar
  19    9   14 ar
  20   10   11 ar
  21   10   37 1
  22   11   12 ar
  23   11   38 1
  24   12   13 ar
  25   12   15 1
  26   13   14 ar
  27   13   39 1
  28   14   40 1
  29   15   16 1
  30   15   18 1
  31   16   20 1
  32   17   41 1
  33   17   42 1
  34   18   19 1
  35   19   20 1
  36   19   21 1
  37   19   22 1
  38   20   23 1
  39   20   24 1
  40   21   43 1
  41   21   44 1
  42   21   45 1
  43   22   46 1
  44   22   47 1
  45   22   48 1
  46   23   49 1
  47   23   50 1
  48   23   51 1
  49   24   52 1
  50   24   53 1
  51   24   54 1
  52   25   26 am
  53   25   55 1
  54   26   27 2
  55   26   28 1
  56   28   30 1
  57   29   30 1
  58   29   56 1
  59   29   57 1
  60   29   58 1
  61   30   59 1
  62   30   60 1

#	End of record

