#	Name: ASD03080120
#	Creating user name:	WinNT
#	Creation time:	15. 06. 2019 20:26

#	Modifying user name:	WinNT
#	Modification time:	15. 06. 2019 20:26

#	Program:	/corina/corina34_cracker 3.40 0067  02.08.2006

@<TRIPOS>MOLECULE
ASD03080120
  26   28    0    0    0
SMALL
NO_CHARGES


@<TRIPOS>ATOM
   1 Cl1            0.0021    -0.0041     0.0020 Cl      
   2 C2            -0.0215     1.7317     0.0116 C.ar    
   3 C3             1.1677     2.4393     0.0040 C.ar    
   4 C4             1.1522     3.8230     0.0116 C.ar    
   5 Cl5            2.6461     4.7071     0.0021 Cl      
   6 C6            -0.0520     4.5018     0.0263 C.ar    
   7 C7            -1.2464     3.7942     0.0334 C.ar    
   8 C8            -1.2282     2.4060     0.0209 C.ar    
   9 N9            -2.4689     4.4803     0.0483 N.pl3   
  10 N10           -2.6042     5.7604     0.0560 N.2     
  11 N11           -3.8613     6.0488     0.0684 N.2     
  12 C12           -4.5355     4.8899     0.0684 C.2     
  13 N13           -3.6334     3.9283     0.0508 N.2     
  14 C14           -6.0104     4.7220     0.0809 C.ar    
  15 C15           -6.8516     5.8373     0.0938 C.ar    
  16 C16           -8.2202     5.6275     0.1046 C.ar    
  17 C17           -8.7060     4.3330     0.1023 C.ar    
  18 N18           -7.8865     3.2993     0.0904 N.ar    
  19 C19           -6.5780     3.4498     0.0740 C.ar    
  20 H20            2.1095     1.9108    -0.0075 H       
  21 H21           -0.0636     5.5817     0.0325 H       
  22 H22           -2.1561     1.8534     0.0261 H       
  23 H23           -6.4447     6.8377     0.0957 H       
  24 H24           -8.9008     6.4660     0.1151 H       
  25 H25           -9.7729     4.1656     0.1107 H       
  26 H26           -5.9393     2.5789     0.0643 H       
@<TRIPOS>BOND
   1    1    2 1
   2    2    3 ar
   3    2    8 ar
   4    3    4 ar
   5    3   20 1
   6    4    5 1
   7    4    6 ar
   8    6    7 ar
   9    6   21 1
  10    7    8 ar
  11    7    9 1
  12    8   22 1
  13    9   10 1
  14    9   13 1
  15   10   11 2
  16   11   12 1
  17   12   13 2
  18   12   14 1
  19   14   15 ar
  20   14   19 ar
  21   15   16 ar
  22   15   23 1
  23   16   17 ar
  24   16   24 1
  25   17   18 ar
  26   17   25 1
  27   18   19 ar
  28   19   26 1

#	End of record

