#	Name: ASD01900039
#	Creating user name:	WinNT
#	Creation time:	15. 06. 2019 19:51

#	Modifying user name:	WinNT
#	Modification time:	15. 06. 2019 19:51

#	Program:	/corina/corina34_cracker 3.40 0067  02.08.2006

@<TRIPOS>MOLECULE
ASD01900039
  38   40    0    0    0
SMALL
NO_CHARGES


@<TRIPOS>ATOM
   1 C1             0.4692     1.9043    -0.1573 C.3     
   2 C2             0.2765     0.3941    -0.0056 C.3     
   3 C3             0.8222    -0.3168    -1.2457 C.3     
   4 C4             2.3125    -0.0054    -1.3976 C.3     
   5 C5             2.5051     1.5048    -1.5492 C.3     
   6 C6             1.9594     2.2156    -0.3091 C.3     
   7 C7             3.9730     1.8114    -1.6988 C.2     
   8 C8             3.0531    -0.4862    -0.1763 C.2     
   9 O9             3.6739     0.3016     0.5056 O.2     
  10 N10            3.0256    -1.7915     0.1581 N.am    
  11 C11            3.7910    -2.2544     1.2341 C.ar    
  12 C12            3.9682    -1.4556     2.3560 C.ar    
  13 C13            4.7244    -1.9154     3.4179 C.ar    
  14 C14            5.3050    -3.1703     3.3633 C.ar    
  15 C15            5.1300    -3.9683     2.2463 C.ar    
  16 C16            4.3699    -3.5155     1.1842 C.ar    
  17 Cl17           5.8601    -5.5420     2.1818 Cl      
  18 Cl18           4.9464    -0.9175     4.8209 Cl      
  19 N19            4.3928     2.9329    -2.3273 N.am    
  20 C20            5.7285     3.0877    -2.3924 C.2     
  21 S21            6.3775     1.7048    -1.5978 S.3     
  22 N22            4.8702     1.0177    -1.2282 N.2     
  23 O23            6.3444     4.0063    -2.9032 O.2     
  24 H24           -0.0665     2.2520    -1.0406 H       
  25 H25            0.0804     2.4107     0.7262 H       
  26 H26            0.8122     0.0463     0.8777 H       
  27 H27           -0.7852     0.1723     0.1026 H       
  28 H28            0.6850    -1.3927    -1.1377 H       
  29 H29            0.2865     0.0310    -2.1290 H       
  30 H30            2.7013    -0.5118    -2.2810 H       
  31 H31            1.9695     1.8525    -2.4325 H       
  32 H32            2.0967     3.2915    -0.4172 H       
  33 H33            2.4951     1.8679     0.5742 H       
  34 H34            2.4752    -2.4101    -0.3472 H       
  35 H35            3.5158    -0.4759     2.3989 H       
  36 H36            5.8961    -3.5274     4.1937 H       
  37 H37            4.2334    -4.1388     0.3128 H       
  38 H38            3.7757     3.5794    -2.7043 H       
@<TRIPOS>BOND
   1    1    2 1
   2    1    6 1
   3    1   24 1
   4    1   25 1
   5    2    3 1
   6    2   26 1
   7    2   27 1
   8    3    4 1
   9    3   28 1
  10    3   29 1
  11    4    5 1
  12    4    8 1
  13    4   30 1
  14    5    6 1
  15    5    7 1
  16    5   31 1
  17    6   32 1
  18    6   33 1
  19    7   19 1
  20    7   22 2
  21    8    9 2
  22    8   10 am
  23   10   11 1
  24   10   34 1
  25   11   12 ar
  26   11   16 ar
  27   12   13 ar
  28   12   35 1
  29   13   14 ar
  30   13   18 1
  31   14   15 ar
  32   14   36 1
  33   15   16 ar
  34   15   17 1
  35   16   37 1
  36   19   20 am
  37   19   38 1
  38   20   21 1
  39   20   23 2
  40   21   22 1

#	End of record

