#	Name: ASD01230133
#	Creating user name:	WinNT
#	Creation time:	15. 06. 2019 19:11

#	Modifying user name:	WinNT
#	Modification time:	15. 06. 2019 19:11

#	Program:	/corina/corina34_cracker 3.40 0067  02.08.2006

@<TRIPOS>MOLECULE
ASD01230133
  62   65    0    0    0
SMALL
NO_CHARGES


@<TRIPOS>ATOM
   1 P1             0.6047     1.9161    -0.4005 P.3     
   2 O2             0.7767     0.4462    -0.3850 O.2     
   3 O3             2.0373     2.6220    -0.6038 O.3     
   4 O4            -0.3737     2.3293    -1.6105 O.3     
   5 N5            -0.0658     2.4178     1.0594 N.3     
   6 N6            -2.1550     5.1647     1.5351 N.am    
   7 C7            -1.6699     4.2336     0.6958 C.2     
   8 C8            -0.2514     3.8749     1.0803 C.3     
   9 C9            -0.0995     4.4192     2.5197 C.3     
  10 C10           -1.1594     5.5428     2.5450 C.3     
  11 O11           -2.2806     3.7508    -0.2342 O.2     
  12 C12           -3.5023     5.7336     1.4490 C.3     
  13 C13            3.0261     2.0979     0.1673 C.ar    
  14 C14            3.7946     1.0456    -0.3088 C.ar    
  15 C15            4.7991     0.5146     0.4769 C.ar    
  16 C16            5.0389     1.0310     1.7369 C.ar    
  17 C17            4.2741     2.0795     2.2139 C.ar    
  18 C18            3.2725     2.6181     1.4296 C.ar    
  19 C19           -1.6415     1.7086    -1.8329 C.3     
  20 O20           -1.5592     2.0221    -4.2537 O.3     
  21 C21           -2.3081     2.3354    -3.0592 C.3     
  22 C22           -3.7017     1.7108    -3.2918 C.3     
  23 C23           -3.8225     1.6247    -4.8298 C.3     
  24 C24           -2.4876     2.2075    -5.3444 C.3     
  25 C25           -3.9789     0.1692    -5.2746 C.3     
  26 O26           -4.7238     2.5533    -2.7557 O.3     
  27 F27           -4.9017     2.3924    -5.2805 F       
  28 C28           -2.4889     1.8256    -7.7470 C.2     
  29 N29           -2.0933     1.1775    -8.8412 N.2     
  30 C30           -1.2385     0.1665    -8.7578 C.2     
  31 C31           -0.7437    -0.2256    -7.4970 C.2     
  32 C32           -1.1553     0.4433    -6.3939 C.2     
  33 N33           -2.0347     1.4753    -6.5297 N.am    
  34 O34           -3.2718     2.7553    -7.8504 O.2     
  35 N35           -0.8374    -0.4958    -9.8948 N.pl3   
  36 H36           -0.9356     1.9399     1.2411 H       
  37 H37            0.4594     4.3587     0.4104 H       
  38 H38           -0.3307     3.6482     3.2547 H       
  39 H39            0.9003     4.8224     2.6808 H       
  40 H40           -0.7029     6.4979     2.2855 H       
  41 H41           -1.6240     5.6010     3.5293 H       
  42 H42           -4.0332     5.2849     0.6095 H       
  43 H43           -4.0432     5.5280     2.3728 H       
  44 H44           -3.4328     6.8113     1.3008 H       
  45 H45            3.6075     0.6416    -1.2928 H       
  46 H46            5.3974    -0.3049     0.1069 H       
  47 H47            5.8247     0.6145     2.3497 H       
  48 H48            4.4629     2.4807     3.1987 H       
  49 H49            2.6785     3.4402     1.8007 H       
  50 H50           -1.4987     0.6414    -2.0027 H       
  51 H51           -2.2764     1.8557    -0.9592 H       
  52 H52           -2.3919     3.4151    -2.9361 H       
  53 H53           -3.7534     0.7164    -2.8484 H       
  54 H54           -2.5990     3.2677    -5.5718 H       
  55 H55           -4.8832    -0.2503    -4.8337 H       
  56 H56           -4.0514     0.1272    -6.3614 H       
  57 H57           -3.1136    -0.4063    -4.9457 H       
  58 H58           -4.6594     2.6908    -1.8007 H       
  59 H59           -0.0474    -1.0468    -7.4123 H       
  60 H60           -0.7908     0.1616    -5.4170 H       
  61 H61           -1.1797    -0.2240   -10.7607 H       
  62 H62           -0.2122    -1.2347    -9.8306 H       
@<TRIPOS>BOND
   1    1    2 2
   2    1    3 1
   3    1    4 1
   4    1    5 1
   5    3   13 1
   6    4   19 1
   7    5    8 1
   8    5   36 1
   9    6    7 am
  10    6   10 1
  11    6   12 1
  12    7    8 1
  13    7   11 2
  14    8    9 1
  15    8   37 1
  16    9   10 1
  17    9   38 1
  18    9   39 1
  19   10   40 1
  20   10   41 1
  21   12   42 1
  22   12   43 1
  23   12   44 1
  24   13   14 ar
  25   13   18 ar
  26   14   15 ar
  27   14   45 1
  28   15   16 ar
  29   15   46 1
  30   16   17 ar
  31   16   47 1
  32   17   18 ar
  33   17   48 1
  34   18   49 1
  35   19   21 1
  36   19   50 1
  37   19   51 1
  38   20   21 1
  39   20   24 1
  40   21   22 1
  41   21   52 1
  42   22   23 1
  43   22   26 1
  44   22   53 1
  45   23   25 1
  46   23   27 1
  47   23   24 1
  48   24   33 1
  49   24   54 1
  50   25   55 1
  51   25   56 1
  52   25   57 1
  53   26   58 1
  54   28   29 1
  55   28   33 am
  56   28   34 2
  57   29   30 2
  58   30   31 1
  59   30   35 1
  60   31   32 2
  61   31   59 1
  62   32   33 1
  63   32   60 1
  64   35   61 1
  65   35   62 1

#	End of record

