#	Name: ASD04882405
#	Creating user name:	WinNT
#	Creation time:	15. 06. 2019 20:54

#	Modifying user name:	WinNT
#	Modification time:	15. 06. 2019 20:54

#	Program:	/corina/corina34_cracker 3.40 0067  02.08.2006

@<TRIPOS>MOLECULE
ASD04882405
  85   90    0    0    0
SMALL
NO_CHARGES


@<TRIPOS>ATOM
   1 C1            -0.0793     1.4073     0.0181 C.ar    
   2 C2             0.0069     0.0133    -0.0328 C.ar    
   3 C3            -1.1505    -0.7567    -0.0444 C.ar    
   4 C4            -2.3858    -0.1491    -0.0063 C.ar    
   5 C5            -2.4792     1.2445     0.0447 C.ar    
   6 C6            -1.3170     2.0207     0.0623 C.ar    
   7 N7             1.2539    -0.6052    -0.0725 N.3     
   8 C8             1.9508    -0.3045    -1.3296 C.3     
   9 C9             1.1295    -2.0540     0.1322 C.3     
  10 C10            2.5233    -2.6786     0.2277 C.3     
  11 C11            3.2957    -2.3911    -1.0627 C.3     
  12 C12            3.3691    -0.8768    -1.2777 C.3     
  13 C13           -3.8027     1.8952     0.0857 C.2     
  14 O14           -3.8829     3.1077     0.1300 O.2     
  15 C15            4.6899    -2.9521    -0.9508 C.ar    
  16 C16            5.7276    -2.1448    -0.5238 C.ar    
  17 C17            4.9300    -4.2755    -1.2698 C.ar    
  18 C18            6.2089    -4.7901    -1.1672 C.ar    
  19 C19            7.2477    -3.9812    -0.7460 C.ar    
  20 C20            7.0064    -2.6594    -0.4212 C.ar    
  21 N21           -4.9227     1.1456     0.0739 N.am    
  22 C22           -6.2369     1.7917     0.1145 C.3     
  23 C23           -7.3316     0.7230     0.0910 C.3     
  24 C24           -8.7041     1.3978     0.1334 C.3     
  25 N25            1.0882     2.1821     0.0302 N.am    
  26 C26            1.1079     3.3807    -0.5858 C.2     
  27 O27            0.0916     3.8245    -1.0854 O.2     
  28 C28            2.3611     4.1537    -0.6540 C.2     
  29 C29            2.5296     5.3707    -1.2395 C.2     
  30 O30            3.8180     5.7100    -1.0732 O.3     
  31 C31            4.4278     4.7238    -0.4007 C.2     
  32 N32            3.5658     3.7875    -0.1383 N.2     
  33 C33            5.8822     4.7063    -0.0061 C.3     
  34 N34           -9.7522     0.3745     0.1109 N.am    
  35 C35          -10.2803    -0.1946     1.2082 C.2     
  36 C36          -10.3649    -0.1566    -1.1124 C.3     
  37 C37          -11.0601    -1.4694    -0.6888 C.3     
  38 C38          -11.3272    -1.2129     0.8137 C.3     
  39 O39           -9.9632     0.0695     2.3487 O.2     
  40 C40            6.9195     4.7790    -1.1283 C.3     
  41 C41            6.6879     5.9890    -0.2210 C.3     
  42 N42            2.6056    -3.0134    -2.1953 N.am    
  43 C43            3.1575    -2.9751    -3.4243 C.2     
  44 C44            2.5056    -3.7113    -4.5663 C.3     
  45 O45            4.1787    -2.3481    -3.6112 O.2     
  46 H46           -1.0808    -1.8337    -0.0838 H       
  47 H47           -3.2832    -0.7500    -0.0161 H       
  48 H48           -1.3860     3.0978     0.1016 H       
  49 H49            1.4084    -0.7531    -2.1618 H       
  50 H50            1.9998     0.7756    -1.4683 H       
  51 H51            0.5820    -2.2447     1.0552 H       
  52 H52            0.5909    -2.4944    -0.7069 H       
  53 H53            3.0575    -2.2486     1.0750 H       
  54 H54            2.4307    -3.7561     0.3640 H       
  55 H55            3.8808    -0.6670    -2.2170 H       
  56 H56            3.9166    -0.4185    -0.4541 H       
  57 H57            5.5392    -1.1119    -0.2706 H       
  58 H58            4.1184    -4.9075    -1.5989 H       
  59 H59            6.3964    -5.8243    -1.4158 H       
  60 H60            8.2468    -4.3834    -0.6655 H       
  61 H61            7.8180    -2.0274    -0.0921 H       
  62 H62           -4.8587     0.1784     0.0385 H       
  63 H63           -6.3240     2.3810     1.0274 H       
  64 H64           -6.3478     2.4445    -0.7513 H       
  65 H65           -7.2445     0.1337    -0.8218 H       
  66 H66           -7.2207     0.0702     0.9568 H       
  67 H67           -8.7912     1.9871     1.0463 H       
  68 H68           -8.8149     2.0506    -0.7324 H       
  69 H69            1.8821     1.8558     0.4819 H       
  70 H70            1.7714     5.9526    -1.7425 H       
  71 H71            6.1255     4.0988     0.8656 H       
  72 H72          -11.0977     0.5489    -1.5042 H       
  73 H73           -9.5986    -0.3599    -1.8605 H       
  74 H74          -11.9952    -1.6083    -1.2314 H       
  75 H75          -10.3985    -2.3242    -0.8294 H       
  76 H76          -11.2005    -2.1318     1.3860 H       
  77 H77          -12.3281    -0.8066     0.9593 H       
  78 H78            7.8455     4.2197    -0.9948 H       
  79 H79            6.5501     4.8396    -2.1520 H       
  80 H80            6.1662     6.8456    -0.6478 H       
  81 H81            7.4616     6.2257     0.5095 H       
  82 H82            1.7515    -3.4531    -2.0607 H       
  83 H83            1.6060    -4.2124    -4.2092 H       
  84 H84            2.2398    -3.0028    -5.3508 H       
  85 H85            3.1997    -4.4512    -4.9649 H       
@<TRIPOS>BOND
   1    1    2 ar
   2    1   25 1
   3    1    6 ar
   4    2    3 ar
   5    2    7 1
   6    3    4 ar
   7    3   46 1
   8    4    5 ar
   9    4   47 1
  10    5    6 ar
  11    5   13 1
  12    6   48 1
  13    7    8 1
  14    7    9 1
  15    8   12 1
  16    8   49 1
  17    8   50 1
  18    9   10 1
  19    9   51 1
  20    9   52 1
  21   10   11 1
  22   10   53 1
  23   10   54 1
  24   11   12 1
  25   11   15 1
  26   11   42 1
  27   12   55 1
  28   12   56 1
  29   13   14 2
  30   13   21 am
  31   15   16 ar
  32   15   17 ar
  33   16   20 ar
  34   16   57 1
  35   17   18 ar
  36   17   58 1
  37   18   19 ar
  38   18   59 1
  39   19   20 ar
  40   19   60 1
  41   20   61 1
  42   21   22 1
  43   21   62 1
  44   22   23 1
  45   22   63 1
  46   22   64 1
  47   23   24 1
  48   23   65 1
  49   23   66 1
  50   24   34 1
  51   24   67 1
  52   24   68 1
  53   25   26 am
  54   25   69 1
  55   26   27 2
  56   26   28 1
  57   28   29 2
  58   28   32 1
  59   29   30 1
  60   29   70 1
  61   30   31 1
  62   31   32 2
  63   31   33 1
  64   33   40 1
  65   33   41 1
  66   33   71 1
  67   34   35 am
  68   34   36 1
  69   35   39 2
  70   35   38 1
  71   36   37 1
  72   36   72 1
  73   36   73 1
  74   37   38 1
  75   37   74 1
  76   37   75 1
  77   38   76 1
  78   38   77 1
  79   40   41 1
  80   40   78 1
  81   40   79 1
  82   41   80 1
  83   41   81 1
  84   42   43 am
  85   42   82 1
  86   43   44 1
  87   43   45 2
  88   44   83 1
  89   44   84 1
  90   44   85 1

#	End of record

