#	Name: ASD01883070
#	Creating user name:	WinNT
#	Creation time:	15. 06. 2019 19:45

#	Modifying user name:	WinNT
#	Modification time:	15. 06. 2019 19:45

#	Program:	/corina/corina34_cracker 3.40 0067  02.08.2006

@<TRIPOS>MOLECULE
ASD01883070
  43   45    0    0    0
SMALL
NO_CHARGES


@<TRIPOS>ATOM
   1 N1            -0.0162     1.3417     0.0094 N.am    
   2 C2             0.0021    -0.0041     0.0020 C.2     
   3 C3            -1.2161    -0.7274     0.0102 C.2     
   4 C4            -2.4261    -0.0112     0.0261 C.2     
   5 C5            -2.3786     1.3968     0.0332 C.2     
   6 C6            -1.1850     2.0325     0.0299 C.2     
   7 O7             1.0657    -0.6000    -0.0122 O.2     
   8 C8            -1.2151    -2.1594     0.0021 C.1     
   9 N9            -1.2144    -3.2953    -0.0044 N.1     
  10 C10            1.2513     2.0764     0.0013 C.3     
  11 C11            1.6723     2.3359    -1.4223 C.ar    
  12 C12            1.2651     3.4907    -2.0639 C.ar    
  13 C13            1.6512     3.7287    -3.3696 C.ar    
  14 C14            2.4450     2.8123    -4.0337 C.ar    
  15 C15            2.8529     1.6579    -3.3918 C.ar    
  16 C16            2.4703     1.4220    -2.0846 C.ar    
  17 C17           -3.7218    -0.7213     0.0347 C.ar    
  18 C18           -4.5708    -0.6162     1.1391 C.ar    
  19 C19           -5.7778    -1.2797     1.1433 C.ar    
  20 C20           -6.1513    -2.0534     0.0510 C.ar    
  21 C21           -5.3094    -2.1609    -1.0494 C.ar    
  22 C22           -4.1037    -1.4950    -1.0640 C.ar    
  23 O23           -7.3417    -2.7063     0.0591 O.3     
  24 C24           -7.6630    -3.4838    -1.0960 C.3     
  25 C25            2.8651     3.0713    -5.4576 C.3     
  26 F26            4.0750     3.7738    -5.4663 F       
  27 F27            3.0287     1.8525    -6.1246 F       
  28 F28            1.8818     3.8282    -6.1036 F       
  29 H29           -3.2949     1.9683     0.0453 H       
  30 H30           -1.1610     3.1122     0.0354 H       
  31 H31            1.1242     3.0258     0.5214 H       
  32 H32            2.0168     1.4859     0.5046 H       
  33 H33            0.6450     4.2067    -1.5451 H       
  34 H34            1.3325     4.6306    -3.8711 H       
  35 H35            3.4728     0.9418    -3.9107 H       
  36 H36            2.7891     0.5201    -1.5831 H       
  37 H37           -4.2809    -0.0157     1.9887 H       
  38 H38           -6.4347    -1.1990     1.9968 H       
  39 H39           -5.6031    -2.7634    -1.8962 H       
  40 H40           -3.4501    -1.5788    -1.9197 H       
  41 H41           -8.6382    -3.9512    -0.9596 H       
  42 H42           -7.6895    -2.8373    -1.9733 H       
  43 H43           -6.9064    -4.2558    -1.2363 H       
@<TRIPOS>BOND
   1    1    2 am
   2    1   10 1
   3    1    6 1
   4    2    3 1
   5    2    7 2
   6    3    4 2
   7    3    8 1
   8    4    5 1
   9    4   17 1
  10    5    6 2
  11    5   29 1
  12    6   30 1
  13    8    9 3
  14   10   11 1
  15   10   31 1
  16   10   32 1
  17   11   12 ar
  18   11   16 ar
  19   12   13 ar
  20   12   33 1
  21   13   14 ar
  22   13   34 1
  23   14   15 ar
  24   14   25 1
  25   15   16 ar
  26   15   35 1
  27   16   36 1
  28   17   18 ar
  29   17   22 ar
  30   18   19 ar
  31   18   37 1
  32   19   20 ar
  33   19   38 1
  34   20   21 ar
  35   20   23 1
  36   21   22 ar
  37   21   39 1
  38   22   40 1
  39   23   24 1
  40   24   41 1
  41   24   42 1
  42   24   43 1
  43   25   26 1
  44   25   27 1
  45   25   28 1

#	End of record

