#	Name: ASD06170021
#	Creating user name:	WinNT
#	Creation time:	15. 06. 2019 21:05

#	Modifying user name:	WinNT
#	Modification time:	15. 06. 2019 21:05

#	Program:	/corina/corina34_cracker 3.40 0067  02.08.2006

@<TRIPOS>MOLECULE
ASD06170021
  70   75    0    0    0
SMALL
NO_CHARGES


@<TRIPOS>ATOM
   1 N1            -0.2658     1.5540    -0.8571 N.pl3   
   2 N2             0.0667     0.2288    -0.5608 N.am    
   3 C3             1.4084     0.0991    -0.6194 C.2     
   4 C4             1.9414     1.4243    -0.9736 C.2     
   5 C5             0.8519     2.2637    -1.1025 C.2     
   6 C6             3.3530     1.7835    -1.1540 C.2     
   7 O7             3.6576     2.9243    -1.4481 O.2     
   8 N8             4.3117     0.8499    -0.9938 N.am    
   9 C9             0.2030     5.4499    -3.1223 C.3     
  10 C10            0.2134     3.9519    -2.8066 C.3     
  11 C11            0.9053     3.7270    -1.4586 C.3     
  12 C12            0.1812     4.5428    -0.3831 C.3     
  13 C13            0.1720     6.0179    -0.7925 C.3     
  14 O14           -0.4577     6.1530    -2.0682 O.3     
  15 C15           -0.8396    -0.7915    -0.2543 C.ar    
  16 C16           -0.8529    -1.9595    -1.0056 C.ar    
  17 C17           -1.7487    -2.9652    -0.6999 C.ar    
  18 C18           -2.6321    -2.8100     0.3526 C.ar    
  19 C19           -2.6217    -1.6481     1.1023 C.ar    
  20 C20           -1.7242    -0.6411     0.8058 C.ar    
  21 O21            2.0514    -0.9143    -0.4189 O.2     
  22 C22           -1.6287     2.0896    -0.9004 C.3     
  23 C23            5.6568     1.2153    -1.0469 C.ar    
  24 C24            6.0186     2.5401    -0.8289 C.ar    
  25 C25            7.3551     2.8915    -0.8839 C.ar    
  26 C26            8.2918     1.8976    -1.1573 C.ar    
  27 C27            7.8578     0.5981    -1.3640 C.ar    
  28 N28            6.5750     0.2965    -1.2989 N.ar    
  29 O29            9.6161     2.1991    -1.2211 O.3     
  30 N30           11.5046     3.2803     2.2823 N.ar    
  31 C31           10.2578     2.8710     2.3037 C.ar    
  32 C32            9.5892     2.4990     1.1444 C.ar    
  33 C33           10.2434     2.5564    -0.0738 C.ar    
  34 C34           11.5859     2.9986    -0.0849 C.ar    
  35 C35           12.3138     3.0833    -1.2808 C.ar    
  36 C36           13.6049     3.5129    -1.2588 C.ar    
  37 C37           14.2185     3.8727    -0.0554 C.ar    
  38 C38           13.5308     3.8000     1.1348 C.ar    
  39 C39           12.1975     3.3605     1.1402 C.ar    
  40 O40           15.5084     4.2984    -0.0606 O.3     
  41 C41           16.1689     4.3516    -1.3266 C.3     
  42 H42            4.0663    -0.0761    -0.8415 H       
  43 H43            1.2280     5.8095    -3.2125 H       
  44 H44           -0.3259     5.6200    -4.0601 H       
  45 H45           -0.8110     3.5831    -2.7562 H       
  46 H46            0.7555     3.4188    -3.5876 H       
  47 H47            1.9447     4.0487    -1.5240 H       
  48 H48           -0.8439     4.1859    -0.2838 H       
  49 H49            0.7002     4.4322     0.5690 H       
  50 H50           -0.3792     6.5973    -0.0518 H       
  51 H51            1.1966     6.3850    -0.8522 H       
  52 H52           -0.1637    -2.0810    -1.8282 H       
  53 H53           -1.7596    -3.8737    -1.2838 H       
  54 H54           -3.3319    -3.5978     0.5893 H       
  55 H55           -3.3134    -1.5297     1.9233 H       
  56 H56           -1.7134     0.2641     1.3947 H       
  57 H57           -2.3424     1.2799    -0.7484 H       
  58 H58           -1.7515     2.8346    -0.1142 H       
  59 H59           -1.8063     2.5530    -1.8709 H       
  60 H60            5.2654     3.2853    -0.6196 H       
  61 H61            7.6652     3.9128    -0.7190 H       
  62 H62            8.5783    -0.1778    -1.5768 H       
  63 H63            9.7374     2.8218     3.2487 H       
  64 H64            8.5631     2.1659     1.1936 H       
  65 H65           11.8509     2.8079    -2.2169 H       
  66 H66           14.1621     3.5764    -2.1818 H       
  67 H67           14.0140     4.0803     2.0592 H       
  68 H68           17.1901     4.7071    -1.1890 H       
  69 H69           16.1875     3.3556    -1.7690 H       
  70 H70           15.6330     5.0328    -1.9876 H       
@<TRIPOS>BOND
   1    1    2 1
   2    1    5 1
   3    1   22 1
   4    2    3 am
   5    2   15 1
   6    3    4 1
   7    3   21 2
   8    4    5 2
   9    4    6 1
  10    5   11 1
  11    6    7 2
  12    6    8 am
  13    8   23 1
  14    8   42 1
  15    9   10 1
  16    9   14 1
  17    9   43 1
  18    9   44 1
  19   10   11 1
  20   10   45 1
  21   10   46 1
  22   11   12 1
  23   11   47 1
  24   12   13 1
  25   12   48 1
  26   12   49 1
  27   13   14 1
  28   13   50 1
  29   13   51 1
  30   15   16 ar
  31   15   20 ar
  32   16   17 ar
  33   16   52 1
  34   17   18 ar
  35   17   53 1
  36   18   19 ar
  37   18   54 1
  38   19   20 ar
  39   19   55 1
  40   20   56 1
  41   22   57 1
  42   22   58 1
  43   22   59 1
  44   23   24 ar
  45   23   28 ar
  46   24   25 ar
  47   24   60 1
  48   25   26 ar
  49   25   61 1
  50   26   27 ar
  51   26   29 1
  52   27   28 ar
  53   27   62 1
  54   29   33 1
  55   30   31 ar
  56   30   39 ar
  57   31   32 ar
  58   31   63 1
  59   32   33 ar
  60   32   64 1
  61   33   34 ar
  62   34   35 ar
  63   34   39 ar
  64   35   36 ar
  65   35   65 1
  66   36   37 ar
  67   36   66 1
  68   37   38 ar
  69   37   40 1
  70   38   39 ar
  71   38   67 1
  72   40   41 1
  73   41   68 1
  74   41   69 1
  75   41   70 1

#	End of record

