#	Name: ASD01320017
#	Creating user name:	WinNT
#	Creation time:	15. 06. 2019 19:15

#	Modifying user name:	WinNT
#	Modification time:	15. 06. 2019 19:15

#	Program:	/corina/corina34_cracker 3.40 0067  02.08.2006

@<TRIPOS>MOLECULE
ASD01320017
  45   47    0    0    0
SMALL
NO_CHARGES


@<TRIPOS>ATOM
   1 C1            -0.0064     1.6760     0.1797 C.ar    
   2 C2             0.0104     0.2963     0.2625 C.ar    
   3 C3             1.2037    -0.3927     0.1154 C.ar    
   4 C4             2.3853     0.3085    -0.1164 C.ar    
   5 C5             2.3611     1.6932    -0.1988 C.ar    
   6 C6             1.1665     2.3733    -0.0504 C.ar    
   7 O7             1.2215    -1.7497     0.1976 O.3     
   8 C8             0.0415    -2.3920     0.3875 C.ar    
   9 C9            -0.8095    -2.6082    -0.6894 C.ar    
  10 C10           -2.0187    -3.2660    -0.4965 C.ar    
  11 C11           -2.3730    -3.7096     0.7932 C.ar    
  12 C12           -1.5080    -3.4848     1.8632 C.ar    
  13 C13           -0.3083    -2.8358     1.6575 C.ar    
  14 N14            3.5939    -0.3826    -0.2652 N.am    
  15 C15            4.7544     0.2061     0.0857 C.2     
  16 C16            6.0157    -0.5635     0.0440 C.ar    
  17 O17            4.7638     1.3700     0.4367 O.2     
  18 C18            7.2192     0.0431     0.4068 C.ar    
  19 C19            8.3930    -0.6809     0.3655 C.ar    
  20 C20            8.3788    -2.0052    -0.0344 C.ar    
  21 C21            7.1890    -2.6126    -0.3954 C.ar    
  22 C22            6.0076    -1.9019    -0.3531 C.ar    
  23 Br23           1.1352     4.2607    -0.1630 Br      
  24 C24           -2.9287    -3.4986    -1.6386 C.2     
  25 O25           -3.3111    -4.6234    -1.8910 O.2     
  26 O26           -3.3335    -2.4631    -2.3990 O.3     
  27 N27            9.6703    -0.0392     0.7494 N.pl3   
  28 O28            9.6844     1.1268     1.1013 O.2     
  29 O29           10.7073    -0.6771     0.7135 O.2     
  30 C30           -3.6544    -4.4087     1.0104 C.2     
  31 O31           -4.4566    -4.5025     0.1028 O.2     
  32 O32           -3.9346    -4.9429     2.2152 O.3     
  33 H33           -0.9380     2.2109     0.2904 H       
  34 H34           -0.9068    -0.2449     0.4422 H       
  35 H35            3.2752     2.2397    -0.3780 H       
  36 H36           -0.5319    -2.2653    -1.6752 H       
  37 H37           -1.7755    -3.8230     2.8534 H       
  38 H38            0.3588    -2.6637     2.4892 H       
  39 H39            3.5960    -1.2850    -0.6210 H       
  40 H40            7.2317     1.0770     0.7188 H       
  41 H41            9.3004    -2.5673    -0.0653 H       
  42 H42            7.1848    -3.6468    -0.7066 H       
  43 H43            5.0796    -2.3772    -0.6348 H       
  44 H44           -3.9282    -2.6645    -3.1344 H       
  45 H45           -4.7863    -5.3911     2.3093 H       
@<TRIPOS>BOND
   1    1    2 ar
   2    1    6 ar
   3    1   33 1
   4    2    3 ar
   5    2   34 1
   6    3    4 ar
   7    3    7 1
   8    4    5 ar
   9    4   14 1
  10    5    6 ar
  11    5   35 1
  12    6   23 1
  13    7    8 1
  14    8    9 ar
  15    8   13 ar
  16    9   10 ar
  17    9   36 1
  18   10   11 ar
  19   10   24 1
  20   11   12 ar
  21   11   30 1
  22   12   13 ar
  23   12   37 1
  24   13   38 1
  25   14   15 am
  26   14   39 1
  27   15   16 1
  28   15   17 2
  29   16   18 ar
  30   16   22 ar
  31   18   19 ar
  32   18   40 1
  33   19   20 ar
  34   19   27 1
  35   20   21 ar
  36   20   41 1
  37   21   22 ar
  38   21   42 1
  39   22   43 1
  40   24   25 2
  41   24   26 1
  42   26   44 1
  43   27   28 2
  44   27   29 2
  45   30   31 2
  46   30   32 1
  47   32   45 1

#	End of record

