#	Name: ASD09116262
#	Creating user name:	WinNT
#	Creation time:	15. 06. 2019 21:21

#	Modifying user name:	WinNT
#	Modification time:	15. 06. 2019 21:21

#	Program:	/corina/corina34_cracker 3.40 0067  02.08.2006

@<TRIPOS>MOLECULE
ASD09116262
  65   71    0    0    0
SMALL
NO_CHARGES


@<TRIPOS>ATOM
   1 N1            -0.0297     1.4195     0.1500 N.pl3   
   2 N2            -0.0211     0.0209     0.2743 N.2     
   3 C3             1.2666     1.8083     0.1172 C.2     
   4 N4             2.0153     0.7302     0.2139 N.2     
   5 C5             1.2356    -0.3527     0.3091 C.2     
   6 N6             1.7235     3.1085     0.0019 N.pl3   
   7 C7             3.0915     3.3795     0.0958 C.ar    
   8 C8             3.6344     4.4642    -0.5811 C.ar    
   9 C9             4.9864     4.7294    -0.4858 C.ar    
  10 C10            5.7996     3.9162     0.2822 C.ar    
  11 C11            5.2625     2.8352     0.9571 C.ar    
  12 C12            3.9103     2.5680     0.8710 C.ar    
  13 C13           -1.1526     2.2451     0.0701 C.ar    
  14 N14           -1.0704     3.5132     0.4443 N.ar    
  15 N15           -2.0763     4.3123     0.4000 N.ar    
  16 C16           -3.2635     3.9105    -0.0248 C.ar    
  17 C17           -3.4395     2.5939    -0.4603 C.ar    
  18 C18           -2.3617     1.7354    -0.4099 C.ar    
  19 C19           -4.4373     4.8141    -0.0259 C.ar    
  20 C20           -5.6326     4.3679     0.5401 C.ar    
  21 C21           -5.6822     3.0093     1.1836 C.3     
  22 C22           -5.7583     1.9003     0.1377 C.3     
  23 C23           -4.7719     2.1593    -0.9980 C.3     
  24 C24           -4.3632     6.0862    -0.5823 C.ar    
  25 C25           -5.4823     6.8961    -0.5881 C.ar    
  26 C26           -6.6707     6.4422    -0.0453 C.ar    
  27 C27           -6.7462     5.1799     0.5175 C.ar    
  28 N28            1.6865    -1.6670     0.4268 N.pl3   
  29 C29            7.2745     4.2084     0.3835 C.3     
  30 C30            7.5286     5.1461     1.5655 C.3     
  31 C31            7.2117     4.4504     2.8721 C.2     
  32 N32            8.3498     4.4102     3.5852 N.am    
  33 C33            9.4178     5.0042     2.9093 C.ar    
  34 C34            8.9995     5.4769     1.6722 C.ar    
  35 C35           10.7496     5.1746     3.2824 C.ar    
  36 C36           11.6328     5.8047     2.4305 C.ar    
  37 C37           11.2045     6.2725     1.1994 C.ar    
  38 C38            9.8817     6.1047     0.8217 C.ar    
  39 F39           12.0735     6.8892     0.3689 F       
  40 O40            6.1329     4.0122     3.2118 O.2     
  41 H41            1.0946     3.8324    -0.1442 H       
  42 H42            3.0000     5.0993    -1.1816 H       
  43 H43            5.4091     5.5726    -1.0118 H       
  44 H44            5.9004     2.2020     1.5557 H       
  45 H45            3.4914     1.7239     1.3986 H       
  46 H46           -2.4509     0.7053    -0.7220 H       
  47 H47           -4.7865     2.8682     1.7884 H       
  48 H48           -6.5592     2.9520     1.8284 H       
  49 H49           -5.5211     0.9462     0.6084 H       
  50 H50           -6.7692     1.8581    -0.2678 H       
  51 H51           -5.1688     2.9404    -1.6464 H       
  52 H52           -4.6437     1.2447    -1.5769 H       
  53 H53           -3.4353     6.4395    -1.0074 H       
  54 H54           -5.4291     7.8859    -1.0171 H       
  55 H55           -7.5447     7.0765    -0.0603 H       
  56 H56           -7.6774     4.8312     0.9389 H       
  57 H57            2.6382    -1.8535     0.4446 H       
  58 H58            1.0483    -2.3947     0.4910 H       
  59 H59            7.8199     3.2769     0.5350 H       
  60 H60            7.6149     4.6832    -0.5367 H       
  61 H61            6.9370     6.0559     1.4640 H       
  62 H62            8.4213     4.0145     4.4679 H       
  63 H63           11.0910     4.8128     4.2410 H       
  64 H64           12.6637     5.9342     2.7254 H       
  65 H65            9.5429     6.4675    -0.1374 H       
@<TRIPOS>BOND
   1    1    2 1
   2    1    3 1
   3    1   13 1
   4    2    5 2
   5    3    4 2
   6    3    6 1
   7    4    5 1
   8    5   28 1
   9    6    7 1
  10    6   41 1
  11    7    8 ar
  12    7   12 ar
  13    8    9 ar
  14    8   42 1
  15    9   10 ar
  16    9   43 1
  17   10   11 ar
  18   10   29 1
  19   11   12 ar
  20   11   44 1
  21   12   45 1
  22   13   14 ar
  23   13   18 ar
  24   14   15 ar
  25   15   16 ar
  26   16   17 ar
  27   16   19 1
  28   17   18 ar
  29   17   23 1
  30   18   46 1
  31   19   20 ar
  32   19   24 ar
  33   20   21 1
  34   20   27 ar
  35   21   22 1
  36   21   47 1
  37   21   48 1
  38   22   23 1
  39   22   49 1
  40   22   50 1
  41   23   51 1
  42   23   52 1
  43   24   25 ar
  44   24   53 1
  45   25   26 ar
  46   25   54 1
  47   26   27 ar
  48   26   55 1
  49   27   56 1
  50   28   57 1
  51   28   58 1
  52   29   30 1
  53   29   59 1
  54   29   60 1
  55   30   31 1
  56   30   34 1
  57   30   61 1
  58   31   32 am
  59   31   40 2
  60   32   33 1
  61   32   62 1
  62   33   34 ar
  63   33   35 ar
  64   34   38 ar
  65   35   36 ar
  66   35   63 1
  67   36   37 ar
  68   36   64 1
  69   37   38 ar
  70   37   39 1
  71   38   65 1

#	End of record

