#	Name: ASD00310351
#	Creating user name:	WinNT
#	Creation time:	15. 06. 2019 18:34

#	Modifying user name:	WinNT
#	Modification time:	15. 06. 2019 18:34

#	Program:	/corina/corina34_cracker 3.40 0067  02.08.2006

@<TRIPOS>MOLECULE
ASD00310351
  35   38    0    0    0
SMALL
NO_CHARGES


@<TRIPOS>ATOM
   1 N1            -0.0153     1.2794     0.0091 N.pl3   
   2 N2             0.0021    -0.0041     0.0020 N.2     
   3 C3             1.2292    -0.4800    -0.0123 C.2     
   4 C4             2.1243     0.6858    -0.0145 C.ar    
   5 C5             3.5012     0.8765    -0.0263 C.ar    
   6 C6             4.0086     2.1688    -0.0238 C.ar    
   7 C7             3.1373     3.2656    -0.0096 C.ar    
   8 C8             1.7845     3.0822     0.0020 C.ar    
   9 C9             1.2548     1.7947    -0.0003 C.ar    
  10 C10            1.6260    -1.8977    -0.0237 C.2     
  11 O11            2.8034    -2.1991    -0.0361 O.2     
  12 O12            0.6837    -2.8614    -0.0203 O.3     
  13 C13            9.6636     3.1943    -0.2769 C.3     
  14 C14            9.6099     4.4897    -1.1140 C.3     
  15 C15            8.2636     4.3498    -1.8555 C.3     
  16 C16            7.4125     3.4665    -0.9682 C.ar    
  17 C17            6.0448     3.2622    -0.9581 C.ar    
  18 C18            5.4758     2.3885    -0.0357 C.ar    
  19 C19            6.2912     1.7215     0.8768 C.ar    
  20 C20            7.6537     1.9314     0.8595 C.ar    
  21 C21            8.2173     2.8020    -0.0603 C.ar    
  22 Cl22           3.7851     4.8762    -0.0060 Cl      
  23 H23           -0.8235     1.8157     0.0160 H       
  24 H24            4.1694     0.0281    -0.0369 H       
  25 H25            1.1244     3.9369     0.0129 H       
  26 H26            0.9927    -3.7777    -0.0282 H       
  27 H27           10.1898     2.4120    -0.8239 H       
  28 H28           10.1518     3.3820     0.6794 H       
  29 H29            9.6074     5.3682    -0.4687 H       
  30 H30           10.4391     4.5291    -1.8205 H       
  31 H31            7.7956     5.3267    -1.9773 H       
  32 H32            8.4139     3.8778    -2.8265 H       
  33 H33            5.4170     3.7812    -1.6672 H       
  34 H34            5.8569     1.0424     1.5956 H       
  35 H35            8.2855     1.4148     1.5669 H       
@<TRIPOS>BOND
   1    1    2 1
   2    1    9 1
   3    1   23 1
   4    2    3 2
   5    3    4 1
   6    3   10 1
   7    4    5 ar
   8    4    9 ar
   9    5    6 ar
  10    5   24 1
  11    6    7 ar
  12    6   18 1
  13    7    8 ar
  14    7   22 1
  15    8    9 ar
  16    8   25 1
  17   10   11 2
  18   10   12 1
  19   12   26 1
  20   13   14 1
  21   13   21 1
  22   13   27 1
  23   13   28 1
  24   14   15 1
  25   14   29 1
  26   14   30 1
  27   15   16 1
  28   15   31 1
  29   15   32 1
  30   16   17 ar
  31   16   21 ar
  32   17   18 ar
  33   17   33 1
  34   18   19 ar
  35   19   20 ar
  36   19   34 1
  37   20   21 ar
  38   20   35 1

#	End of record

