#	Name: ASD05720195
#	Creating user name:	WinNT
#	Creation time:	15. 06. 2019 21:02

#	Modifying user name:	WinNT
#	Modification time:	15. 06. 2019 21:02

#	Program:	/corina/corina34_cracker 3.40 0067  02.08.2006

@<TRIPOS>MOLECULE
ASD05720195
  55   60    0    0    0
SMALL
NO_CHARGES


@<TRIPOS>ATOM
   1 O1            -0.0161     1.3334     0.0094 O.3     
   2 C2             0.0021    -0.0041     0.0020 C.2     
   3 N3             1.2348    -0.5293    -0.0126 N.am    
   4 C4             2.2183     0.5645    -0.0161 C.3     
   5 C5             1.3508     1.8379    -0.0010 C.3     
   6 O6            -1.0069    -0.6808     0.0084 O.2     
   7 C7             3.0997    -3.5830    -0.0446 C.2     
   8 N8             2.7934    -2.2820    -0.0358 N.2     
   9 C9             1.5348    -1.8852    -0.0220 C.2     
  10 C10            0.4948    -2.8369    -0.0165 C.2     
  11 C11            0.8012    -4.1542    -0.0253 C.2     
  12 N12            2.1144    -4.5345    -0.0395 N.pl3   
  13 N13            2.7294    -5.7914    -0.0515 N.2     
  14 C14            4.0306    -5.6364    -0.0634 C.2     
  15 C15            4.3226    -4.2670    -0.0650 C.2     
  16 C16            5.6706    -3.6561    -0.0831 C.ar    
  17 C17            6.6407    -4.0788     0.8272 C.ar    
  18 C18            7.8966    -3.5089     0.8095 C.ar    
  19 C19            8.1963    -2.5093    -0.1195 C.ar    
  20 C20            7.2260    -2.0883    -1.0281 C.ar    
  21 C21            5.9737    -2.6612    -1.0144 C.ar    
  22 N22           11.2830    -0.6691    -0.6320 N.pl3   
  23 N23            9.9472    -0.9508    -0.9614 N.2     
  24 C24            9.5460    -1.8958    -0.1389 C.2     
  25 N25           10.5598    -2.2120     0.6787 N.2     
  26 C26           11.6046    -1.4818     0.3903 C.2     
  27 F27            8.8363    -3.9168     1.6903 F       
  28 C28            2.4559     0.5142    -2.5315 C.2     
  29 C29            3.0621     0.5136    -1.2636 C.2     
  30 C30            4.4224     0.4669    -1.1741 C.2     
  31 C31            5.1854     0.4206    -2.3493 C.2     
  32 C32            4.5702     0.4225    -3.5549 C.2     
  33 N33            3.2161     0.4690    -3.6420 N.am    
  34 O34            1.2395     0.5506    -2.6260 O.2     
  35 C35            2.5748     0.4695    -4.9592 C.3     
  36 C36            2.4021     1.9111    -5.4417 C.3     
  37 H37            2.8457     0.5180     0.8740 H       
  38 H38            1.5314     2.4339    -0.8956 H       
  39 H39            1.5485     2.4243     0.8964 H       
  40 H40           -0.5367    -2.5172    -0.0049 H       
  41 H41            0.0174    -4.8972    -0.0209 H       
  42 H42            4.7584    -6.4342    -0.0738 H       
  43 H43            6.4080    -4.8513     1.5451 H       
  44 H44            7.4581    -1.3156    -1.7461 H       
  45 H45            5.2243    -2.3375    -1.7215 H       
  46 H46           11.8615    -0.0190    -1.0605 H       
  47 H47           12.5623    -1.5238     0.8878 H       
  48 H48            4.9063     0.4660    -0.2085 H       
  49 H49            6.2633     0.3837    -2.2927 H       
  50 H50            5.1627     0.3867    -4.4571 H       
  51 H51            3.1973    -0.0783    -5.6666 H       
  52 H52            1.5982    -0.0093    -4.8880 H       
  53 H53            1.9249     1.9115    -6.4218 H       
  54 H54            1.7796     2.4590    -4.7343 H       
  55 H55            3.3787     2.3899    -5.5130 H       
@<TRIPOS>BOND
   1    1    2 1
   2    1    5 1
   3    2    3 am
   4    2    6 2
   5    3    4 1
   6    3    9 1
   7    4    5 1
   8    4   29 1
   9    4   37 1
  10    5   38 1
  11    5   39 1
  12    7    8 1
  13    7   12 1
  14    7   15 2
  15    8    9 2
  16    9   10 1
  17   10   11 2
  18   10   40 1
  19   11   12 1
  20   11   41 1
  21   12   13 1
  22   13   14 2
  23   14   15 1
  24   14   42 1
  25   15   16 1
  26   16   17 ar
  27   16   21 ar
  28   17   18 ar
  29   17   43 1
  30   18   19 ar
  31   18   27 1
  32   19   20 ar
  33   19   24 1
  34   20   21 ar
  35   20   44 1
  36   21   45 1
  37   22   23 1
  38   22   26 1
  39   22   46 1
  40   23   24 2
  41   24   25 1
  42   25   26 2
  43   26   47 1
  44   28   29 1
  45   28   33 am
  46   28   34 2
  47   29   30 2
  48   30   31 1
  49   30   48 1
  50   31   32 2
  51   31   49 1
  52   32   33 1
  53   32   50 1
  54   33   35 1
  55   35   36 1
  56   35   51 1
  57   35   52 1
  58   36   53 1
  59   36   54 1
  60   36   55 1

#	End of record

