#	Name: ASD00111068
#	Creating user name:	WinNT
#	Creation time:	15. 06. 2019 18:30

#	Modifying user name:	WinNT
#	Modification time:	15. 06. 2019 18:30

#	Program:	/corina/corina34_cracker 3.40 0067  02.08.2006

@<TRIPOS>MOLECULE
ASD00111068
  46   48    0    0    0
SMALL
NO_CHARGES


@<TRIPOS>ATOM
   1 N1             0.2932     1.5589     0.0548 N.am    
   2 C2             0.1636     0.1068    -0.0171 C.3     
   3 C3             0.6303    -0.5204     1.3012 C.3     
   4 C4             2.1405    -0.6030     1.2902 C.ar    
   5 C5             2.8972     0.5386     1.3936 C.ar    
   6 C6             2.2272     1.8888     1.5194 C.3     
   7 C7             1.5781     2.2409     0.1751 C.3     
   8 C8             4.2782     0.4635     1.3841 C.ar    
   9 C9             4.8992    -0.7720     1.2698 C.ar    
  10 C10            4.1328    -1.9244     1.1655 C.ar    
  11 C11            2.7528    -1.8391     1.1761 C.ar    
  12 C12            0.1722     0.3491     2.4738 C.3     
  13 Br13           4.9754    -3.6100     1.0082 Br      
  14 O14            6.2558    -0.8536     1.2596 O.3     
  15 C15            6.9804     0.3732     1.3703 C.3     
  16 C16            8.4597     0.0872     1.3411 C.ar    
  17 C17            9.1358     0.0652     0.1356 C.ar    
  18 C18           10.4927    -0.1972     0.1088 C.ar    
  19 C19           11.1737    -0.4369     1.2876 C.ar    
  20 C20           10.4978    -0.4140     2.4933 C.ar    
  21 C21            9.1417    -0.1474     2.5204 C.ar    
  22 C22           -0.8271     2.3062     0.0019 C.2     
  23 O23           -1.9097     1.7696    -0.1029 O.2     
  24 C24           -0.7347     3.8087     0.0731 C.3     
  25 F25           -2.0188     4.3589    -0.0005 F       
  26 F26           -0.1358     4.1824     1.2810 F       
  27 F27            0.0364     4.2796    -0.9950 F       
  28 H28           -0.8793    -0.1557    -0.1943 H       
  29 H29            0.7760    -0.2717    -0.8355 H       
  30 H30            0.2100    -1.5213     1.3989 H       
  31 H31            1.4630     1.8470     2.2955 H       
  32 H32            2.9708     2.6436     1.7753 H       
  33 H33            2.2330     1.9264    -0.6375 H       
  34 H34            1.4233     3.3184     0.1186 H       
  35 H35            4.8707     1.3628     1.4656 H       
  36 H36            2.1543    -2.7345     1.0953 H       
  37 H37           -0.7892    -0.0114     2.8397 H       
  38 H38            0.9091     0.2958     3.2752 H       
  39 H39            0.0703     1.3824     2.1420 H       
  40 H40            6.7199     1.0255     0.5368 H       
  41 H41            6.7235     0.8633     2.3094 H       
  42 H42            8.6037     0.2525    -0.7854 H       
  43 H43           11.0208    -0.2151    -0.8331 H       
  44 H44           12.2338    -0.6426     1.2667 H       
  45 H45           11.0298    -0.6017     3.4142 H       
  46 H46            8.6144    -0.1258     3.4627 H       
@<TRIPOS>BOND
   1    1    2 1
   2    1    7 1
   3    1   22 am
   4    2    3 1
   5    2   28 1
   6    2   29 1
   7    3    4 1
   8    3   12 1
   9    3   30 1
  10    4    5 ar
  11    4   11 ar
  12    5    6 1
  13    5    8 ar
  14    6    7 1
  15    6   31 1
  16    6   32 1
  17    7   33 1
  18    7   34 1
  19    8    9 ar
  20    8   35 1
  21    9   10 ar
  22    9   14 1
  23   10   11 ar
  24   10   13 1
  25   11   36 1
  26   12   37 1
  27   12   38 1
  28   12   39 1
  29   14   15 1
  30   15   16 1
  31   15   40 1
  32   15   41 1
  33   16   17 ar
  34   16   21 ar
  35   17   18 ar
  36   17   42 1
  37   18   19 ar
  38   18   43 1
  39   19   20 ar
  40   19   44 1
  41   20   21 ar
  42   20   45 1
  43   21   46 1
  44   22   23 2
  45   22   24 1
  46   24   25 1
  47   24   26 1
  48   24   27 1

#	End of record

