#	Name: ASD03330685
#	Creating user name:	WinNT
#	Creation time:	15. 06. 2019 20:37

#	Modifying user name:	WinNT
#	Modification time:	15. 06. 2019 20:37

#	Program:	/corina/corina34_cracker 3.40 0067  02.08.2006

@<TRIPOS>MOLECULE
ASD03330685
  69   71    0    0    0
SMALL
NO_CHARGES


@<TRIPOS>ATOM
   1 C1            -0.3205     1.1675     0.8863 C.2     
   2 N2            -0.3456    -0.1653     1.1224 N.pl3   
   3 C3             0.9844     1.5573     0.9195 C.2     
   4 N4             1.7358     0.4602     1.1568 N.2     
   5 C5             0.9451    -0.5806     1.2744 C.2     
   6 C6             1.3804    -1.9714     1.5298 C.ar    
   7 C7             1.4864     2.9298     0.7296 C.2     
   8 O8             0.7063     3.8391     0.5205 O.2     
   9 C9             3.3090     4.5417     0.5991 C.3     
  10 N10            2.8099     3.1773     0.7878 N.am    
  11 C11            3.4708     4.8233    -0.8960 C.3     
  12 C12            2.0975     4.8038    -1.5703 C.3     
  13 C13            4.1143     6.1978    -1.0894 C.3     
  14 C14            4.6428     4.6881     1.2851 C.2     
  15 N15            5.1763     5.9124     1.4667 N.am    
  16 O16            5.2360     3.7043     1.6738 O.2     
  17 C17           -1.5534    -0.9908     1.2096 C.3     
  18 C18           -2.4715    -0.6654     0.0274 C.3     
  19 C19           -3.3825     0.5034     0.3890 C.3     
  20 N20           -2.6986     1.4482     1.2745 N.3     
  21 C21           -1.5215     2.0375     0.6193 C.3     
  22 C22            2.6306    -2.4062     1.0890 C.ar    
  23 C23            0.5448    -2.8518     2.2175 C.ar    
  24 C24            0.9565    -4.1476     2.4525 C.ar    
  25 C25            2.1953    -4.5742     2.0082 C.ar    
  26 C26            3.0307    -3.7044     1.3303 C.ar    
  27 C27           -3.6194     2.4931     1.7415 C.3     
  28 C28            6.5051     6.0504     2.0680 C.3     
  29 C29            6.8717     7.5330     2.1599 C.3     
  30 C30            4.3623     3.7499    -1.5236 C.3     
  31 C31            5.9154     8.2360     3.1255 C.3     
  32 C32            8.3069     7.6727     2.6715 C.3     
  33 H33            2.6002     5.2503     1.0276 H       
  34 H34            3.4321     2.4521     0.9546 H       
  35 H35            1.4623     5.5685    -1.1232 H       
  36 H36            2.2128     5.0044    -2.6354 H       
  37 H37            1.6390     3.8245    -1.4325 H       
  38 H38            5.0752     6.2247    -0.5754 H       
  39 H39            4.2660     6.3817    -2.1530 H       
  40 H40            3.4603     6.9664    -0.6775 H       
  41 H41            4.6806     6.7020     1.1992 H       
  42 H42           -1.2774    -2.0447     1.1772 H       
  43 H43           -2.0733    -0.7781     2.1438 H       
  44 H44           -1.8662    -0.3987    -0.8390 H       
  45 H45           -3.0791    -1.5385    -0.2108 H       
  46 H46           -3.6813     1.0198    -0.5232 H       
  47 H47           -4.2718     0.1220     0.8909 H       
  48 H48           -1.3440     3.0361     1.0187 H       
  49 H49           -1.6952     2.0992    -0.4550 H       
  50 H50            3.2837    -1.7282     0.5597 H       
  51 H51           -0.4222    -2.5197     2.5655 H       
  52 H52            0.3106    -4.8301     2.9847 H       
  53 H53            2.5133    -5.5892     2.1952 H       
  54 H54            3.9964    -4.0436     0.9856 H       
  55 H55           -4.4424     2.0339     2.2891 H       
  56 H56           -3.0858     3.1812     2.3971 H       
  57 H57           -4.0134     3.0397     0.8846 H       
  58 H58            6.4987     5.6151     3.0673 H       
  59 H59            7.2389     5.5323     1.4507 H       
  60 H60            6.7918     7.9889     1.1731 H       
  61 H61            3.9039     2.7707    -1.3859 H       
  62 H62            4.4776     3.9506    -2.5888 H       
  63 H63            5.3407     3.7638    -1.0433 H       
  64 H64            6.1767     9.2922     3.1909 H       
  65 H65            4.8930     8.1365     2.7610 H       
  66 H66            5.9954     7.7801     4.1123 H       
  67 H67            8.9882     7.1719     1.9836 H       
  68 H68            8.5681     8.7289     2.7370 H       
  69 H69            8.3868     7.2168     3.6583 H       
@<TRIPOS>BOND
   1    1    2 1
   2    1    3 2
   3    1   21 1
   4    2   17 1
   5    2    5 1
   6    3    4 1
   7    3    7 1
   8    4    5 2
   9    5    6 1
  10    6   22 ar
  11    6   23 ar
  12    7    8 2
  13    7   10 am
  14    9   10 1
  15    9   11 1
  16    9   14 1
  17    9   33 1
  18   10   34 1
  19   11   12 1
  20   11   13 1
  21   11   30 1
  22   12   35 1
  23   12   36 1
  24   12   37 1
  25   13   38 1
  26   13   39 1
  27   13   40 1
  28   14   15 am
  29   14   16 2
  30   15   28 1
  31   15   41 1
  32   17   18 1
  33   17   42 1
  34   17   43 1
  35   18   19 1
  36   18   44 1
  37   18   45 1
  38   19   20 1
  39   19   46 1
  40   19   47 1
  41   20   21 1
  42   20   27 1
  43   21   48 1
  44   21   49 1
  45   22   26 ar
  46   22   50 1
  47   23   24 ar
  48   23   51 1
  49   24   25 ar
  50   24   52 1
  51   25   26 ar
  52   25   53 1
  53   26   54 1
  54   27   55 1
  55   27   56 1
  56   27   57 1
  57   28   29 1
  58   28   58 1
  59   28   59 1
  60   29   31 1
  61   29   32 1
  62   29   60 1
  63   30   61 1
  64   30   62 1
  65   30   63 1
  66   31   64 1
  67   31   65 1
  68   31   66 1
  69   32   67 1
  70   32   68 1
  71   32   69 1

#	End of record

