#	Name: ASD05730041
#	Creating user name:	WinNT
#	Creation time:	15. 06. 2019 21:02

#	Modifying user name:	WinNT
#	Modification time:	15. 06. 2019 21:02

#	Program:	/corina/corina34_cracker 3.40 0067  02.08.2006

@<TRIPOS>MOLECULE
ASD05730041
  75   81    0    0    0
SMALL
NO_CHARGES


@<TRIPOS>ATOM
   1 N1             0.0229     1.3956    -0.0233 N.3     
   2 C2             0.0320    -0.0037    -0.0225 C.ar    
   3 C3             0.1299    -0.6969     1.1770 C.ar    
   4 C4             0.1383    -2.0775     1.1777 C.ar    
   5 C5             0.0489    -2.7731    -0.0209 C.ar    
   6 C6            -0.0486    -2.0801    -1.2203 C.ar    
   7 C7            -0.0628    -0.6994    -1.2207 C.ar    
   8 N8             0.0574    -4.1738    -0.0201 N.pl3   
   9 C9            -0.6944    -4.8695    -0.9466 C.ar    
  10 N10           -0.5825    -6.1881    -0.9981 N.ar    
  11 C11           -1.2895    -6.8915    -1.8753 C.ar    
  12 C12           -2.1607    -6.2059    -2.7495 C.ar    
  13 C13           -2.2434    -4.8085    -2.6552 C.ar    
  14 N14           -1.5073    -4.1918    -1.7498 N.ar    
  15 N15           -1.1795    -8.2578    -1.9360 N.am    
  16 C16           -1.8986    -8.9660    -2.8278 C.2     
  17 C17           -2.8111    -8.2859    -3.7492 C.2     
  18 C18           -2.9285    -6.9227    -3.6952 C.2     
  19 C19           -0.2702    -8.9533    -1.0218 C.3     
  20 O20           -1.7889   -10.1785    -2.8684 O.2     
  21 C21           -3.6007    -9.0658    -4.7309 C.ar    
  22 C22           -4.9637    -9.2750    -4.5249 C.ar    
  23 C23            1.2108     1.9290     0.6503 C.3     
  24 C24           -1.0202    -9.3240     0.2593 C.3     
  25 C25           -2.9846    -9.5888    -5.8677 C.ar    
  26 C26           -3.7250   -10.3142    -6.7782 C.ar    
  27 C27           -5.0762   -10.5229    -6.5656 C.ar    
  28 C28           -5.6939   -10.0023    -5.4428 C.ar    
  29 C29            1.2002     3.4661     0.6484 C.3     
  30 N30           -0.0446     3.8976     1.2653 N.3     
  31 C31           -1.1908     3.4351     0.4368 C.3     
  32 C32           -1.2356     1.9166     0.5442 C.3     
  33 S33           -5.7523    -8.6126    -3.0952 S.o2    
  34 O34           -7.1129    -8.9976    -3.2354 O.2     
  35 C35           -4.9825    -9.4897    -1.7064 C.3     
  36 O36           -5.3753    -7.2425    -3.0901 O.2     
  37 C37           -0.2731   -10.1637     1.2974 C.3     
  38 C38           -0.5474    -8.6826     1.5654 C.3     
  39 C39           -0.2547     5.3319     1.4523 C.3     
  40 C40           -1.7891     5.5413     1.4269 C.3     
  41 C41           -2.3804     4.1391     1.1116 C.3     
  42 H42            0.1998    -0.1559     2.1091 H       
  43 H43            0.2148    -2.6166     2.1104 H       
  44 H44           -0.1178    -2.6211    -2.1525 H       
  45 H45           -0.1386    -0.1604    -2.1535 H       
  46 H46            0.5913    -4.6551     0.6311 H       
  47 H47           -2.8984    -4.2496    -3.3071 H       
  48 H48           -3.5961    -6.4030    -4.3664 H       
  49 H49            0.1027    -9.8592    -1.4996 H       
  50 H50            0.5676    -8.3007    -0.7763 H       
  51 H51            1.2289     1.5724     1.6802 H       
  52 H52            2.1038     1.5764     0.1343 H       
  53 H53           -2.0894    -9.5015     0.1435 H       
  54 H54           -1.9301    -9.4259    -6.0350 H       
  55 H55           -3.2491   -10.7196    -7.6588 H       
  56 H56           -5.6518   -11.0908    -7.2815 H       
  57 H57           -6.7488   -10.1688    -5.2820 H       
  58 H58            2.0472     3.8426     1.2218 H       
  59 H59            1.2527     3.8351    -0.3760 H       
  60 H60           -1.0768     3.7487    -0.6009 H       
  61 H61           -2.0843     1.5303    -0.0203 H       
  62 H62           -1.3203     1.6217     1.5901 H       
  63 H63           -3.9096    -9.2975    -1.7051 H       
  64 H64           -5.4156    -9.1384    -0.7698 H       
  65 H65           -5.1597   -10.5602    -1.8096 H       
  66 H66           -0.8508   -10.8933     1.8648 H       
  67 H67            0.7527   -10.4520     1.0677 H       
  68 H68            0.2978    -7.9965     1.5121 H       
  69 H69           -1.3057    -8.4378     2.3092 H       
  70 H70            0.1522     5.6495     2.4123 H       
  71 H71            0.2143     5.8894     0.6415 H       
  72 H72           -2.1400     5.8908     2.3979 H       
  73 H73           -2.0617     6.2517     0.6464 H       
  74 H74           -3.2254     4.2177     0.4275 H       
  75 H75           -2.6695     3.6236     2.0274 H       
@<TRIPOS>BOND
   1    1    2 1
   2    1   23 1
   3    1   32 1
   4    2    3 ar
   5    2    7 ar
   6    3    4 ar
   7    3   42 1
   8    4    5 ar
   9    4   43 1
  10    5    6 ar
  11    5    8 1
  12    6    7 ar
  13    6   44 1
  14    7   45 1
  15    8    9 1
  16    8   46 1
  17    9   10 ar
  18    9   14 ar
  19   10   11 ar
  20   11   12 ar
  21   11   15 1
  22   12   13 ar
  23   12   18 1
  24   13   14 ar
  25   13   47 1
  26   15   16 am
  27   15   19 1
  28   16   17 1
  29   16   20 2
  30   17   18 2
  31   17   21 1
  32   18   48 1
  33   19   24 1
  34   19   49 1
  35   19   50 1
  36   21   22 ar
  37   21   25 ar
  38   22   33 1
  39   22   28 ar
  40   23   29 1
  41   23   51 1
  42   23   52 1
  43   24   37 1
  44   24   38 1
  45   24   53 1
  46   25   26 ar
  47   25   54 1
  48   26   27 ar
  49   26   55 1
  50   27   28 ar
  51   27   56 1
  52   28   57 1
  53   29   30 1
  54   29   58 1
  55   29   59 1
  56   30   31 1
  57   30   39 1
  58   31   32 1
  59   31   41 1
  60   31   60 1
  61   32   61 1
  62   32   62 1
  63   33   34 2
  64   33   35 1
  65   33   36 2
  66   35   63 1
  67   35   64 1
  68   35   65 1
  69   37   38 1
  70   37   66 1
  71   37   67 1
  72   38   68 1
  73   38   69 1
  74   39   40 1
  75   39   70 1
  76   39   71 1
  77   40   41 1
  78   40   72 1
  79   40   73 1
  80   41   74 1
  81   41   75 1

#	End of record

