#	Name: ASD03320165
#	Creating user name:	WinNT
#	Creation time:	15. 06. 2019 20:36

#	Modifying user name:	WinNT
#	Modification time:	15. 06. 2019 20:36

#	Program:	/corina/corina34_cracker 3.40 0067  02.08.2006

@<TRIPOS>MOLECULE
ASD03320165
  39   41    0    0    0
SMALL
NO_CHARGES


@<TRIPOS>ATOM
   1 C1            -0.0077     1.3442    -0.1946 C.ar    
   2 C2             0.0217    -0.0349     0.0277 C.ar    
   3 C3            -1.1522    -0.7587     0.0442 C.ar    
   4 C4            -2.3658    -0.1240    -0.1588 C.ar    
   5 C5            -2.4072     1.2551    -0.3817 C.ar    
   6 C6            -1.2276     1.9899    -0.3945 C.ar    
   7 C7             1.2505     2.1178    -0.2119 C.2     
   8 O8             1.2237     3.3178    -0.4056 O.2     
   9 N9             2.4283     1.4934    -0.0131 N.am    
  10 C10            3.6274     2.2078    -0.1264 C.ar    
  11 C11           -3.7082     1.9340    -0.5991 C.ar    
  12 C12            3.6886     3.5323     0.2864 C.ar    
  13 C13            4.8715     4.2359     0.1748 C.ar    
  14 C14            5.9985     3.6200    -0.3496 C.ar    
  15 C15            5.9380     2.2971    -0.7627 C.ar    
  16 C16            4.7573     1.5904    -0.6464 C.ar    
  17 O17            7.1629     4.3135    -0.4592 O.3     
  18 C18            8.2836     3.6171    -1.0079 C.3     
  19 F19            7.9775     3.1891    -2.3042 F       
  20 F20            9.3900     4.4724    -1.0483 F       
  21 F21            8.5804     2.5080    -0.2086 F       
  22 F22           -3.5119    -0.8391    -0.1418 F       
  23 C23           -4.6267     1.4440    -1.5318 C.ar    
  24 C24           -5.8252     2.1057    -1.7022 C.ar    
  25 N25           -6.1083     3.1858    -0.9994 N.ar    
  26 C26           -5.2694     3.6807    -0.1094 C.ar    
  27 C27           -4.0513     3.0778     0.1274 C.ar    
  28 H28            0.9655    -0.5352     0.1867 H       
  29 H29           -1.1247    -1.8246     0.2158 H       
  30 H30           -1.2549     3.0559    -0.5661 H       
  31 H31            2.4453     0.5492     0.2085 H       
  32 H32            2.8112     4.0120     0.6944 H       
  33 H33            4.9192     5.2661     0.4955 H       
  34 H34            6.8157     1.8184    -1.1712 H       
  35 H35            4.7105     0.5604    -0.9677 H       
  36 H36           -4.4014     0.5605    -2.1108 H       
  37 H37           -6.5411     1.7349    -2.4207 H       
  38 H38           -5.5415     4.5675     0.4438 H       
  39 H39           -3.3694     3.4883     0.8574 H       
@<TRIPOS>BOND
   1    1    2 ar
   2    1    7 1
   3    1    6 ar
   4    2    3 ar
   5    2   28 1
   6    3    4 ar
   7    3   29 1
   8    4    5 ar
   9    4   22 1
  10    5    6 ar
  11    5   11 1
  12    6   30 1
  13    7    8 2
  14    7    9 am
  15    9   10 1
  16    9   31 1
  17   10   12 ar
  18   10   16 ar
  19   11   23 ar
  20   11   27 ar
  21   12   13 ar
  22   12   32 1
  23   13   14 ar
  24   13   33 1
  25   14   15 ar
  26   14   17 1
  27   15   16 ar
  28   15   34 1
  29   16   35 1
  30   17   18 1
  31   18   19 1
  32   18   20 1
  33   18   21 1
  34   23   24 ar
  35   23   36 1
  36   24   25 ar
  37   24   37 1
  38   25   26 ar
  39   26   27 ar
  40   26   38 1
  41   27   39 1

#	End of record

