#	Name: ASD01882735
#	Creating user name:	WinNT
#	Creation time:	15. 06. 2019 19:45

#	Modifying user name:	WinNT
#	Modification time:	15. 06. 2019 19:45

#	Program:	/corina/corina34_cracker 3.40 0067  02.08.2006

@<TRIPOS>MOLECULE
ASD01882735
  36   37    0    0    0
SMALL
NO_CHARGES


@<TRIPOS>ATOM
   1 O1            -0.0173     1.4248     0.0099 O.3     
   2 C2             0.0021    -0.0041     0.0020 C.3     
   3 C3             1.2831     0.8325    -0.0057 C.3     
   4 C4            -0.3680    -0.7292     1.2974 C.3     
   5 O5            -1.5561    -1.4961     1.0913 O.3     
   6 C6            -2.0239    -2.2063     2.1517 C.ar    
   7 C7            -3.1739    -2.9736     2.0220 C.ar    
   8 C8            -3.6470    -3.6946     3.1020 C.ar    
   9 C9            -2.9763    -3.6516     4.3106 C.ar    
  10 C10           -1.8315    -2.8879     4.4418 C.ar    
  11 C11           -1.3503    -2.1703     3.3632 C.ar    
  12 C12           -3.4946    -4.4383     5.4869 C.3     
  13 C13           -2.5768    -4.2190     6.6913 C.3     
  14 C14           -3.1030    -5.0177     7.8855 C.3     
  15 C15           -4.9092    -3.9682     5.8314 C.3     
  16 C16           -3.5238    -5.9263     5.1322 C.3     
  17 Cl17          -4.0166    -3.0268     0.5052 Cl      
  18 H18           -0.2792    -0.5108    -0.9211 H       
  19 H19            1.8523     0.8812    -0.9340 H       
  20 H20            1.8699     0.8713     0.9120 H       
  21 H21            0.4467    -1.3924     1.5881 H       
  22 H22           -0.5402     0.0024     2.0869 H       
  23 H23           -4.5414    -4.2917     3.0022 H       
  24 H24           -1.3099    -2.8559     5.3869 H       
  25 H25           -0.4532    -1.5778     3.4653 H       
  26 H26           -1.5690    -4.5539     6.4458 H       
  27 H27           -2.5560    -3.1589     6.9439 H       
  28 H28           -3.1238    -6.0778     7.6328 H       
  29 H29           -2.4492    -4.8615     8.7435 H       
  30 H30           -4.1108    -4.6828     8.1309 H       
  31 H31           -5.5630    -4.1244     4.9733 H       
  32 H32           -5.2841    -4.5372     6.6822 H       
  33 H33           -4.8884    -2.9081     6.0840 H       
  34 H34           -2.5160    -6.2612     4.8868 H       
  35 H35           -3.8987    -6.4953     5.9830 H       
  36 H36           -4.1776    -6.0825     4.2742 H       
@<TRIPOS>BOND
   1    1    2 1
   2    1    3 1
   3    2    3 1
   4    2    4 1
   5    2   18 1
   6    3   19 1
   7    3   20 1
   8    4    5 1
   9    4   21 1
  10    4   22 1
  11    5    6 1
  12    6    7 ar
  13    6   11 ar
  14    7    8 ar
  15    7   17 1
  16    8    9 ar
  17    8   23 1
  18    9   10 ar
  19    9   12 1
  20   10   11 ar
  21   10   24 1
  22   11   25 1
  23   12   13 1
  24   12   15 1
  25   12   16 1
  26   13   14 1
  27   13   26 1
  28   13   27 1
  29   14   28 1
  30   14   29 1
  31   14   30 1
  32   15   31 1
  33   15   32 1
  34   15   33 1
  35   16   34 1
  36   16   35 1
  37   16   36 1

#	End of record

