#	Name: ASD09116353
#	Creating user name:	WinNT
#	Creation time:	15. 06. 2019 21:21

#	Modifying user name:	WinNT
#	Modification time:	15. 06. 2019 21:21

#	Program:	/corina/corina34_cracker 3.40 0067  02.08.2006

@<TRIPOS>MOLECULE
ASD09116353
  79   86    0    0    0
SMALL
NO_CHARGES


@<TRIPOS>ATOM
   1 N1            -0.0601     1.5220    -0.5070 N.2     
   2 N2            -0.0824     0.2283    -1.0526 N.pl3   
   3 C3             1.1951     1.9007    -0.4710 C.2     
   4 N4             1.9609     0.9194    -0.9623 N.2     
   5 C5             1.2046    -0.0970    -1.3178 C.2     
   6 N6             1.6463    -1.2868    -1.8645 N.pl3   
   7 C7            -1.2088    -0.5653    -1.2771 C.ar    
   8 N8             1.6572     3.1283     0.0031 N.pl3   
   9 C9             3.0333     3.3746     0.0839 C.ar    
  10 C10            3.5174     4.6678    -0.0675 C.ar    
  11 C11            3.9130     2.3271     0.3210 C.ar    
  12 C12            5.2709     2.5691     0.4014 C.ar    
  13 C13            5.7566     3.8594     0.2447 C.ar    
  14 C14            4.8757     4.9104     0.0123 C.ar    
  15 N15            7.1339     4.1045     0.3268 N.3     
  16 F16            5.3479     6.1668    -0.1407 F       
  17 N17           -1.1802    -1.5080    -2.2073 N.ar    
  18 N18           -2.1924    -2.2591    -2.4600 N.ar    
  19 C19           -3.3325    -2.1320    -1.8003 C.ar    
  20 C20           -3.4486    -1.1775    -0.7857 C.ar    
  21 C21           -2.3644    -0.3691    -0.5168 C.ar    
  22 C22           -4.5173    -2.9591    -2.1261 C.ar    
  23 C23           -5.7482    -2.3291    -2.3164 C.ar    
  24 C24           -5.8285    -0.8290    -2.2415 C.3     
  25 C25           -5.7972    -0.3412    -0.7956 C.3     
  26 C26           -4.7233    -1.0778     0.0006 C.3     
  27 C27           -4.4186    -4.3415    -2.2391 C.ar    
  28 C28           -5.5470    -5.0868    -2.5214 C.ar    
  29 C29           -6.7688    -4.4605    -2.6887 C.ar    
  30 C30           -6.8697    -3.0839    -2.5854 C.ar    
  31 C31            7.4749     4.8126     1.5894 C.3     
  32 C32            8.9282     5.2969     1.4618 C.3     
  33 C33            9.8495     4.0782     1.3572 C.3     
  34 C34            9.3806     3.1722     0.2151 C.3     
  35 C35            7.8968     2.8319     0.4271 C.3     
  36 C36            7.4384     3.7052     2.6677 C.3     
  37 C37            7.7172     2.3964     1.8997 C.3     
  38 C38           11.2806     4.5443     1.0823 C.3     
  39 C39           11.7685     5.4511     2.2257 C.3     
  40 C40           13.0006     4.7578     2.8430 C.3     
  41 C41           13.5339     3.8494     1.7074 C.3     
  42 C42           12.2333     3.3315     1.0446 C.3     
  43 H43            2.5937    -1.4280    -2.0179 H       
  44 H44            1.0090    -1.9808    -2.0950 H       
  45 H45            1.0254     3.8115     0.2768 H       
  46 H46            2.8327     5.4833    -0.2479 H       
  47 H47            3.5357     1.3225     0.4431 H       
  48 H48            5.9546     1.7538     0.5866 H       
  49 H49           -2.4094     0.3923     0.2478 H       
  50 H50           -4.9845    -0.3993    -2.7811 H       
  51 H51           -6.7555    -0.4977    -2.7096 H       
  52 H52           -5.5841     0.7277    -0.7820 H       
  53 H53           -6.7696    -0.5184    -0.3360 H       
  54 H54           -5.0776    -2.0810     0.2375 H       
  55 H55           -4.5312    -0.5381     0.9279 H       
  56 H56           -3.4646    -4.8301    -2.1065 H       
  57 H57           -5.4749    -6.1605    -2.6120 H       
  58 H58           -7.6491    -5.0490    -2.9011 H       
  59 H59           -7.8270    -2.6012    -2.7159 H       
  60 H60            6.7868     5.6306     1.8024 H       
  61 H61            9.0313     5.9104     0.5669 H       
  62 H62            9.1962     5.8827     2.3411 H       
  63 H63            9.8237     3.5226     2.2946 H       
  64 H64            9.5041     3.6902    -0.7360 H       
  65 H65            9.9688     2.2545     0.2120 H       
  66 H66            7.5425     2.0818    -0.2800 H       
  67 H67            8.2123     3.8784     3.4155 H       
  68 H68            6.4563     3.6667     3.1388 H       
  69 H69            6.8721     1.7144     1.9932 H       
  70 H70            8.6281     1.9260     2.2699 H       
  71 H71           11.3224     5.0823     0.1353 H       
  72 H72           12.0477     6.4290     1.8335 H       
  73 H73           10.9856     5.5592     2.9765 H       
  74 H74           13.7515     5.4954     3.1260 H       
  75 H75           12.7089     4.1586     3.7056 H       
  76 H76           14.1261     4.4264     0.9971 H       
  77 H77           14.1155     3.0226     2.1151 H       
  78 H78           11.8178     2.5020     1.6168 H       
  79 H79           12.4243     3.0283     0.0152 H       
@<TRIPOS>BOND
   1    1    2 1
   2    1    3 2
   3    2    7 1
   4    2    5 1
   5    3    4 1
   6    3    8 1
   7    4    5 2
   8    5    6 1
   9    6   43 1
  10    6   44 1
  11    7   17 ar
  12    7   21 ar
  13    8    9 1
  14    8   45 1
  15    9   10 ar
  16    9   11 ar
  17   10   14 ar
  18   10   46 1
  19   11   12 ar
  20   11   47 1
  21   12   13 ar
  22   12   48 1
  23   13   14 ar
  24   13   15 1
  25   14   16 1
  26   15   31 1
  27   15   35 1
  28   17   18 ar
  29   18   19 ar
  30   19   20 ar
  31   19   22 1
  32   20   21 ar
  33   20   26 1
  34   21   49 1
  35   22   23 ar
  36   22   27 ar
  37   23   24 1
  38   23   30 ar
  39   24   25 1
  40   24   50 1
  41   24   51 1
  42   25   26 1
  43   25   52 1
  44   25   53 1
  45   26   54 1
  46   26   55 1
  47   27   28 ar
  48   27   56 1
  49   28   29 ar
  50   28   57 1
  51   29   30 ar
  52   29   58 1
  53   30   59 1
  54   31   32 1
  55   31   36 1
  56   31   60 1
  57   32   33 1
  58   32   61 1
  59   32   62 1
  60   33   34 1
  61   33   38 1
  62   33   63 1
  63   34   35 1
  64   34   64 1
  65   34   65 1
  66   35   37 1
  67   35   66 1
  68   36   37 1
  69   36   67 1
  70   36   68 1
  71   37   69 1
  72   37   70 1
  73   38   39 1
  74   38   42 1
  75   38   71 1
  76   39   40 1
  77   39   72 1
  78   39   73 1
  79   40   41 1
  80   40   74 1
  81   40   75 1
  82   41   42 1
  83   41   76 1
  84   41   77 1
  85   42   78 1
  86   42   79 1

#	End of record

