#	Name: ASD08070219
#	Creating user name:	WinNT
#	Creation time:	15. 06. 2019 21:14

#	Modifying user name:	WinNT
#	Modification time:	15. 06. 2019 21:14

#	Program:	/corina/corina34_cracker 3.40 0067  02.08.2006

@<TRIPOS>MOLECULE
ASD08070219
  38   39    0    0    0
SMALL
NO_CHARGES


@<TRIPOS>ATOM
   1 C1            -0.0167     1.3781     0.0096 C.ar    
   2 C2             0.0021    -0.0041     0.0020 C.ar    
   3 C3             1.2070    -0.6821    -0.0131 C.ar    
   4 C4             2.4082     0.0340    -0.0207 C.ar    
   5 C5             2.3812     1.4299    -0.0130 C.ar    
   6 C6             1.1703     2.0939     0.0021 C.ar    
   7 C7             3.6993    -0.6830    -0.0364 C.2     
   8 N8             4.8551     0.0102    -0.0437 N.am    
   9 O9             3.7195    -1.8985    -0.0427 O.2     
  10 C10            6.5072    -1.0512    -1.5015 C.3     
  11 C11            6.1358    -0.7010    -0.0592 C.3     
  12 C12            7.3421     1.4761    -0.2773 C.3     
  13 C13            7.2220     0.1913     0.5448 C.3     
  14 F14            1.2239    -2.0330    -0.0201 F       
  15 C15            6.6273     0.2336    -2.3236 C.3     
  16 C16            8.4283     2.3684     0.3268 C.3     
  17 C17            7.7135     1.1258    -1.7196 C.3     
  18 C18            6.8506     0.5416     1.9871 C.3     
  19 F19            1.1426     3.4446     0.0092 F       
  20 H20           -0.9607     1.9027     0.0169 H       
  21 H21           -0.9265    -0.5556     0.0083 H       
  22 H22            3.3051     1.9891    -0.0184 H       
  23 H23            4.8389     0.9801    -0.0386 H       
  24 H24            7.4600    -1.5804    -1.5131 H       
  25 H25            5.7333    -1.6869    -1.9318 H       
  26 H26            6.0502    -1.6163     0.5265 H       
  27 H27            6.3892     2.0052    -0.2657 H       
  28 H28            8.1749    -0.3379     0.5333 H       
  29 H29            6.8918    -0.0160    -3.3511 H       
  30 H30            5.6744     0.7627    -2.3120 H       
  31 H31            9.3812     1.8392     0.3152 H       
  32 H32            8.5139     3.2837    -0.2589 H       
  33 H33            8.1638     2.6179     1.3543 H       
  34 H34            7.7991     2.0411    -2.3052 H       
  35 H35            8.6664     0.5967    -1.7311 H       
  36 H36            5.8977     1.0707     1.9987 H       
  37 H37            6.7650    -0.3737     2.5728 H       
  38 H38            7.6245     1.1772     2.4175 H       
@<TRIPOS>BOND
   1    1    2 ar
   2    1    6 ar
   3    1   20 1
   4    2    3 ar
   5    2   21 1
   6    3    4 ar
   7    3   14 1
   8    4    5 ar
   9    4    7 1
  10    5    6 ar
  11    5   22 1
  12    6   19 1
  13    7    8 am
  14    7    9 2
  15    8   11 1
  16    8   23 1
  17   10   11 1
  18   10   15 1
  19   10   24 1
  20   10   25 1
  21   11   13 1
  22   11   26 1
  23   12   13 1
  24   12   16 1
  25   12   17 1
  26   12   27 1
  27   13   18 1
  28   13   28 1
  29   15   17 1
  30   15   29 1
  31   15   30 1
  32   16   31 1
  33   16   32 1
  34   16   33 1
  35   17   34 1
  36   17   35 1
  37   18   36 1
  38   18   37 1
  39   18   38 1

#	End of record

