#	Name: ASD03092969
#	Creating user name:	WinNT
#	Creation time:	15. 06. 2019 20:33

#	Modifying user name:	WinNT
#	Modification time:	15. 06. 2019 20:33

#	Program:	/corina/corina34_cracker 3.40 0067  02.08.2006

@<TRIPOS>MOLECULE
ASD03092969
  40   40    0    0    0
SMALL
NO_CHARGES


@<TRIPOS>ATOM
   1 Cl1            0.0000     0.0000     0.0000 Cl      
   2 H2             0.0000     1.3700     0.0000 H       
   3 N3            12.2221    15.4853     6.6700 N.3     
   4 C4            12.2420    14.0165     6.6620 C.3     
   5 C5            10.8066    13.4869     6.6728 C.3     
   6 C6            10.8274    11.9570     6.6644 C.3     
   7 C7            11.4494    11.4466     7.9671 C.3     
   8 C8            11.4119     9.9167     7.9794 C.3     
   9 N9            10.0211     9.4590     7.8679 N.3     
  10 C10            9.9336     8.0000     8.0153 C.3     
  11 C11            8.5443     7.5411     7.6543 C.ar    
  12 C12            7.5647     7.4716     8.6271 C.ar    
  13 C13            6.2903     7.0506     8.2960 C.ar    
  14 C14            5.9954     6.6996     6.9918 C.ar    
  15 C15            6.9748     6.7699     6.0188 C.ar    
  16 C16            8.2480     7.1950     6.3491 C.ar    
  17 C17            9.4177     9.8972     6.6028 C.3     
  18 C18            9.3957    11.4265     6.5494 C.3     
  19 H19           13.1591    15.8597     6.6631 H       
  20 H20           11.6837    15.8439     5.8957 H       
  21 H21           12.7522    13.6649     5.7652 H       
  22 H22           12.7692    13.6554     7.5450 H       
  23 H23           10.2965    13.8384     7.5696 H       
  24 H24           10.2795    13.8480     5.7898 H       
  25 H25           11.4153    11.6054     5.8166 H       
  26 H26           12.4831    11.7858     8.0342 H       
  27 H27           10.8838    11.8313     8.8157 H       
  28 H28           11.9893     9.5325     7.1385 H       
  29 H29           11.8411     9.5504     8.9120 H       
  30 H30           10.6570     7.5239     7.3534 H       
  31 H31           10.1501     7.7255     9.0477 H       
  32 H32            7.7951     7.7459     9.6460 H       
  33 H33            5.5252     6.9957     9.0562 H       
  34 H34            5.0000     6.3700     6.7333 H       
  35 H35            6.7445     6.4953     5.0000 H       
  36 H36            9.0122     7.2536     5.5882 H       
  37 H37           10.0044     9.5131     5.7684 H       
  38 H38            8.3985     9.5168     6.5356 H       
  39 H39            8.7977    11.8109     7.3757 H       
  40 H40            8.9620    11.7514     5.6037 H       
@<TRIPOS>BOND
   1    1    2 1
   2    3    4 1
   3    3   19 1
   4    3   20 1
   5    4    5 1
   6    4   21 1
   7    4   22 1
   8    5    6 1
   9    5   23 1
  10    5   24 1
  11    6   18 1
  12    6    7 1
  13    6   25 1
  14    7    8 1
  15    7   26 1
  16    7   27 1
  17    8    9 1
  18    8   28 1
  19    8   29 1
  20    9   10 1
  21    9   17 1
  22   10   11 1
  23   10   30 1
  24   10   31 1
  25   11   16 ar
  26   11   12 ar
  27   12   13 ar
  28   12   32 1
  29   13   14 ar
  30   13   33 1
  31   14   15 ar
  32   14   34 1
  33   15   16 ar
  34   15   35 1
  35   16   36 1
  36   17   18 1
  37   17   37 1
  38   17   38 1
  39   18   39 1
  40   18   40 1

#	End of record

