#	Name: ASD03731692
#	Creating user name:	WinNT
#	Creation time:	15. 06. 2019 20:46

#	Modifying user name:	WinNT
#	Modification time:	15. 06. 2019 20:46

#	Program:	/corina/corina34_cracker 3.40 0067  02.08.2006

@<TRIPOS>MOLECULE
ASD03731692
  34   35    0    0    0
SMALL
NO_CHARGES


@<TRIPOS>ATOM
   1 C1            -0.4041     1.1039    -1.9612 C.2     
   2 C2            -0.2825    -0.2741    -1.4506 C.ar    
   3 C3             0.9013    -0.9943    -1.6490 C.ar    
   4 C4             1.0104    -2.2839    -1.1687 C.ar    
   5 C5            -0.0519    -2.8663    -0.4905 C.ar    
   6 C6            -1.2312    -2.1532    -0.2911 C.ar    
   7 C7            -1.3472    -0.8632    -0.7619 C.ar    
   8 O8             0.5248     1.6163    -2.5555 O.2     
   9 N9            -1.5468     1.7935    -1.7739 N.am    
  10 S10           -1.6834     3.3411    -2.3472 S.o2    
  11 O11           -2.9856     3.7483    -1.9501 O.2     
  12 O12           -0.5266     4.0015    -1.8524 O.2     
  13 C13           -1.5937     3.1653    -4.1504 C.3     
  14 F14           -2.2617    -2.7252     0.3692 F       
  15 F15            1.9350    -0.4286    -2.3097 F       
  16 O16            0.0593    -4.1350    -0.0206 O.3     
  17 C17            1.2604    -4.7559    -0.1403 C.ar    
  18 C18            2.2114    -4.6251     0.8648 C.ar    
  19 C19            3.4314    -5.2534     0.7473 C.ar    
  20 C20            3.7124    -6.0234    -0.3847 C.ar    
  21 C21            2.7533    -6.1524    -1.3931 C.ar    
  22 C22            1.5337    -5.5254    -1.2651 C.ar    
  23 C23            4.9797    -6.6781    -0.5112 C.1     
  24 N24            5.9850    -7.1974    -0.6116 N.1     
  25 H25            1.9232    -2.8407    -1.3211 H       
  26 H26           -2.2608    -0.3097    -0.6030 H       
  27 H27           -2.2893     1.3834    -1.3033 H       
  28 H28           -2.4100     2.5303    -4.4947 H       
  29 H29           -1.6763     4.1475    -4.6158 H       
  30 H30           -0.6408     2.7125    -4.4244 H       
  31 H31            1.9936    -4.0296     1.7390 H       
  32 H32            4.1699    -5.1510     1.5286 H       
  33 H33            2.9667    -6.7462    -2.2696 H       
  34 H34            0.7904    -5.6281    -2.0418 H       
@<TRIPOS>BOND
   1    1    2 1
   2    1    8 2
   3    1    9 am
   4    2    3 ar
   5    2    7 ar
   6    3    4 ar
   7    3   15 1
   8    4    5 ar
   9    4   25 1
  10    5    6 ar
  11    5   16 1
  12    6    7 ar
  13    6   14 1
  14    7   26 1
  15    9   10 am
  16    9   27 1
  17   10   11 2
  18   10   12 2
  19   10   13 1
  20   13   28 1
  21   13   29 1
  22   13   30 1
  23   16   17 1
  24   17   18 ar
  25   17   22 ar
  26   18   19 ar
  27   18   31 1
  28   19   20 ar
  29   19   32 1
  30   20   21 ar
  31   20   23 1
  32   21   22 ar
  33   21   33 1
  34   22   34 1
  35   23   24 3

#	End of record

