#	Name: ASD01813150
#	Creating user name:	WinNT
#	Creation time:	15. 06. 2019 19:29

#	Modifying user name:	WinNT
#	Modification time:	15. 06. 2019 19:29

#	Program:	/corina/corina34_cracker 3.40 0067  02.08.2006

@<TRIPOS>MOLECULE
ASD01813150
  48   51    0    0    0
SMALL
NO_CHARGES


@<TRIPOS>ATOM
   1 C1            -0.0173     1.4248     0.0099 C.3     
   2 O2             0.0021    -0.0041     0.0020 O.3     
   3 C3             0.6049    -0.6062    -1.0541 C.ar    
   4 C4             1.1722     0.1556    -2.0611 C.ar    
   5 C5             1.7873    -0.4602    -3.1388 C.ar    
   6 C6             1.8452    -1.8350    -3.2283 C.ar    
   7 C7             1.2827    -2.6242    -2.2296 C.ar    
   8 N8             1.3361    -3.9993    -2.3112 N.pl3   
   9 C9             1.9960    -4.6082    -3.4688 C.3     
  10 C10            3.4581    -4.8105    -3.1646 C.ar    
  11 C11            4.3675    -3.8099    -3.4562 C.ar    
  12 C12            5.7076    -3.9898    -3.1792 C.ar    
  13 C13            6.1438    -5.1820    -2.6049 C.ar    
  14 C14            5.2233    -6.1865    -2.3132 C.ar    
  15 C15            3.8848    -5.9939    -2.5895 C.ar    
  16 C16            7.5834    -5.3812    -2.3053 C.ar    
  17 C17            8.5031    -4.3746    -2.5921 C.ar    
  18 C18            9.8409    -4.5651    -2.3110 C.ar    
  19 C19           10.2692    -5.7528    -1.7460 C.ar    
  20 C20            9.3606    -6.7556    -1.4597 C.ar    
  21 C21            8.0196    -6.5734    -1.7309 C.ar    
  22 C22            0.8106    -4.8024    -1.3767 C.2     
  23 C23            0.1729    -4.3082    -0.2573 C.2     
  24 C24           -0.3906    -5.2221     0.7460 C.2     
  25 O25           -1.0113    -4.7271     1.8356 O.3     
  26 O26           -0.2970    -6.4246     0.5936 O.2     
  27 C27            0.0669    -2.8496    -0.0847 C.2     
  28 O28           -0.4862    -2.3635     0.8865 O.2     
  29 C29            0.6631    -2.0032    -1.1313 C.ar    
  30 H30            1.0053     1.8021     0.0021 H       
  31 H31           -0.5445     1.7859    -0.8732 H       
  32 H32           -0.5275     1.7763     0.9067 H       
  33 H33            1.1349     1.2335    -2.0065 H       
  34 H34            2.2267     0.1439    -3.9187 H       
  35 H35            2.3276    -2.3002    -4.0752 H       
  36 H36            1.5334    -5.5709    -3.6859 H       
  37 H37            1.8922    -3.9520    -4.3329 H       
  38 H38            4.0283    -2.8864    -3.9017 H       
  39 H39            6.4169    -3.2080    -3.4077 H       
  40 H40            5.5561    -7.1126    -1.8682 H       
  41 H41            3.1700    -6.7703    -2.3601 H       
  42 H42            8.1699    -3.4471    -3.0339 H       
  43 H43           10.5546    -3.7855    -2.5328 H       
  44 H44           11.3170    -5.8978    -1.5280 H       
  45 H45            9.7004    -7.6812    -1.0189 H       
  46 H46            7.3104    -7.3553    -1.5028 H       
  47 H47            0.8882    -5.8720    -1.5039 H       
  48 H48           -1.3659    -5.3673     2.4676 H       
@<TRIPOS>BOND
   1    1    2 1
   2    1   30 1
   3    1   31 1
   4    1   32 1
   5    2    3 1
   6    3   29 ar
   7    3    4 ar
   8    4    5 ar
   9    4   33 1
  10    5    6 ar
  11    5   34 1
  12    6    7 ar
  13    6   35 1
  14    7   29 ar
  15    7    8 1
  16    8    9 1
  17    8   22 1
  18    9   10 1
  19    9   36 1
  20    9   37 1
  21   10   15 ar
  22   10   11 ar
  23   11   12 ar
  24   11   38 1
  25   12   13 ar
  26   12   39 1
  27   13   14 ar
  28   13   16 1
  29   14   15 ar
  30   14   40 1
  31   15   41 1
  32   16   21 ar
  33   16   17 ar
  34   17   18 ar
  35   17   42 1
  36   18   19 ar
  37   18   43 1
  38   19   20 ar
  39   19   44 1
  40   20   21 ar
  41   20   45 1
  42   21   46 1
  43   22   23 2
  44   22   47 1
  45   23   24 1
  46   23   27 1
  47   24   25 1
  48   24   26 2
  49   25   48 1
  50   27   28 2
  51   27   29 1

#	End of record

