#	Name: ASD01150018
#	Creating user name:	WinNT
#	Creation time:	15. 06. 2019 19:03

#	Modifying user name:	WinNT
#	Modification time:	15. 06. 2019 19:03

#	Program:	/corina/corina34_cracker 3.40 0067  02.08.2006

@<TRIPOS>MOLECULE
ASD01150018
  47   49    0    0    0
SMALL
NO_CHARGES


@<TRIPOS>ATOM
   1 N1            -0.0159     1.3205     0.0093 N.ar    
   2 C2             0.0021    -0.0041     0.0020 C.ar    
   3 C3             1.2323    -0.6642    -0.0133 C.ar    
   4 C4             2.4026     0.1171    -0.0203 C.ar    
   5 N5             2.2882     1.4414    -0.0120 N.ar    
   6 C6             1.1034     2.0174     0.0024 C.ar    
   7 C7             1.8580    -2.8210     1.0659 C.ar    
   8 C8             1.9243    -4.1905     1.0594 C.ar    
   9 C9             1.4363    -4.9083    -0.0367 C.ar    
  10 C10            0.8810    -4.2286    -1.1250 C.ar    
  11 C11            0.8157    -2.8591    -1.1164 C.ar    
  12 C12            1.3033    -2.1433    -0.0214 C.ar    
  13 C13            6.0383    -0.4434     0.5540 C.3     
  14 C14            4.8585     0.3444    -0.0420 C.3     
  15 C15            5.2504     0.6950    -1.4923 C.3     
  16 C16            6.3052    -0.3746    -1.8698 C.3     
  17 C17            7.1060    -0.5440    -0.5549 C.3     
  18 N18            3.6487    -0.4818    -0.0349 N.pl3   
  19 C19            1.0248     3.5223     0.0112 C.3     
  20 C20            1.5076    -6.3817    -0.0450 C.2     
  21 O21            1.0370    -7.0730    -1.1016 O.3     
  22 C22            1.1399    -8.5201    -1.0412 C.3     
  23 C23            0.5586    -9.1265    -2.3200 C.3     
  24 O24            1.9905    -6.9719     0.9008 O.2     
  25 Cl25          -1.4815    -0.9055     0.0119 Cl      
  26 H26            2.2309    -2.2665     1.9143 H       
  27 H27            2.3538    -4.7145     1.9005 H       
  28 H28            0.5040    -4.7821    -1.9723 H       
  29 H29            0.3871    -2.3338    -1.9571 H       
  30 H30            6.4438     0.0866     1.4158 H       
  31 H31            5.7107    -1.4404     0.8485 H       
  32 H32            4.6914     1.2567     0.5305 H       
  33 H33            4.3836     0.6245    -2.1494 H       
  34 H34            5.6857     1.6932    -1.5391 H       
  35 H35            5.8226    -1.3105    -2.1515 H       
  36 H36            6.9503    -0.0149    -2.6714 H       
  37 H37            7.8410     0.2541    -0.4504 H       
  38 H38            7.5934    -1.5186    -0.5279 H       
  39 H39            3.7219    -1.4491    -0.0405 H       
  40 H40            0.9960     3.8906    -1.0143 H       
  41 H41            0.1220     3.8359     0.5354 H       
  42 H42            1.8995     3.9288     0.5189 H       
  43 H43            2.1874    -8.8063    -0.9470 H       
  44 H44            0.5836    -8.8882    -0.1791 H       
  45 H45            0.6358   -10.2128    -2.2747 H       
  46 H46           -0.4889    -8.8403    -2.4143 H       
  47 H47            1.1148    -8.7583    -3.1821 H       
@<TRIPOS>BOND
   1    1    2 ar
   2    1    6 ar
   3    2    3 ar
   4    2   25 1
   5    3    4 ar
   6    3   12 1
   7    4    5 ar
   8    4   18 1
   9    5    6 ar
  10    6   19 1
  11    7    8 ar
  12    7   12 ar
  13    7   26 1
  14    8    9 ar
  15    8   27 1
  16    9   10 ar
  17    9   20 1
  18   10   11 ar
  19   10   28 1
  20   11   12 ar
  21   11   29 1
  22   13   14 1
  23   13   17 1
  24   13   30 1
  25   13   31 1
  26   14   15 1
  27   14   18 1
  28   14   32 1
  29   15   16 1
  30   15   33 1
  31   15   34 1
  32   16   17 1
  33   16   35 1
  34   16   36 1
  35   17   37 1
  36   17   38 1
  37   18   39 1
  38   19   40 1
  39   19   41 1
  40   19   42 1
  41   20   21 1
  42   20   24 2
  43   21   22 1
  44   22   23 1
  45   22   43 1
  46   22   44 1
  47   23   45 1
  48   23   46 1
  49   23   47 1

#	End of record

