#	Name: ASD06170251
#	Creating user name:	WinNT
#	Creation time:	15. 06. 2019 21:05

#	Modifying user name:	WinNT
#	Modification time:	15. 06. 2019 21:05

#	Program:	/corina/corina34_cracker 3.40 0067  02.08.2006

@<TRIPOS>MOLECULE
ASD06170251
  71   76    0    0    0
SMALL
NO_CHARGES


@<TRIPOS>ATOM
   1 N1            -0.6427     1.5789     0.4207 N.am    
   2 N2            -0.6695     0.2326     0.0460 N.pl3   
   3 C3             0.4780    -0.0817    -0.6188 C.2     
   4 C4             1.2674     1.0661    -0.6829 C.2     
   5 C5             0.5146     2.1274    -0.0003 C.2     
   6 C6             2.5875     1.1893    -1.3075 C.2     
   7 O7             3.0809     0.2357    -1.8808 O.2     
   8 N8             3.2551     2.3585    -1.2470 N.am    
   9 C9            -1.7646    -0.6994     0.3258 C.3     
  10 C10            0.8251    -1.4062    -1.1734 C.ar    
  11 C11            4.4790     2.4974    -1.9015 C.ar    
  12 C12            5.2159     1.3651    -2.2288 C.ar    
  13 C13            6.4285     1.5142    -2.8779 C.ar    
  14 C14            6.8655     2.8014    -3.1795 C.ar    
  15 C15            6.0773     3.8842    -2.8224 C.ar    
  16 N16            4.9233     3.7056    -2.2089 N.ar    
  17 O17            8.0513     2.9939    -3.8163 O.3     
  18 N18            8.1886     2.2556    -7.8714 N.ar    
  19 C19            9.3310     2.5629    -7.2458 C.ar    
  20 C20            9.3273     2.8235    -5.8541 C.ar    
  21 C21            8.1043     2.7530    -5.1493 C.ar    
  22 C22            6.9625     2.4299    -5.8615 C.ar    
  23 C23            7.0476     2.1870    -7.2264 C.ar    
  24 O24            0.8684     3.2815     0.1554 O.2     
  25 C25           -1.7031     2.2816     1.1475 C.3     
  26 C26           -1.8547     1.6796     2.5207 C.ar    
  27 C27           -3.1117     1.5377     3.0782 C.ar    
  28 C28           10.5263     3.1446    -5.2003 C.ar    
  29 C29           11.6877     3.2042    -5.9065 C.ar    
  30 C30           11.7029     2.9492    -7.2813 C.ar    
  31 C31           10.5435     2.6316    -7.9511 C.ar    
  32 C32           14.0447     3.3508    -7.2130 C.3     
  33 O33           12.8756     3.0161    -7.9635 O.3     
  34 C34            2.0092    -2.0545    -0.8019 C.ar    
  35 C35           -0.0236    -2.0514    -2.0812 C.ar    
  36 C36            0.3407    -3.2887    -2.5742 C.ar    
  37 N37            1.4682    -3.8613    -2.2012 N.ar    
  38 C38            2.2935    -3.2917    -1.3453 C.ar    
  39 C39           -0.7373     1.2641     3.2206 C.ar    
  40 C40           -0.8765     0.7120     4.4802 C.ar    
  41 C41           -2.1329     0.5757     5.0402 C.ar    
  42 C42           -3.2508     0.9856     4.3379 C.ar    
  43 C43           -1.3381     3.7618     1.2770 C.3     
  44 H44            2.8845     3.1034    -0.7483 H       
  45 H45           -2.5223    -0.6141    -0.4531 H       
  46 H46           -1.3781    -1.7184     0.3467 H       
  47 H47           -2.2083    -0.4592     1.2920 H       
  48 H48            4.8466     0.3814    -1.9791 H       
  49 H49            7.0225     0.6524    -3.1441 H       
  50 H50            6.4097     4.8855    -3.0532 H       
  51 H51            6.0092     2.3659    -5.3579 H       
  52 H52            6.1501     1.9358    -7.7721 H       
  53 H53           -2.6423     2.1852     0.6028 H       
  54 H54           -3.9850     1.8586     2.5298 H       
  55 H55           10.5274     3.3443    -4.1390 H       
  56 H56           12.6086     3.4517    -5.3994 H       
  57 H57           10.5658     2.4368    -9.0131 H       
  58 H58           13.9149     4.3321    -6.7567 H       
  59 H59           14.2016     2.6055    -6.4332 H       
  60 H60           14.9092     3.3700    -7.8765 H       
  61 H61            2.6900    -1.5938    -0.1013 H       
  62 H62           -0.9491    -1.5887    -2.3907 H       
  63 H63           -0.3070    -3.7946    -3.2749 H       
  64 H64            3.2064    -3.7979    -1.0684 H       
  65 H65            0.2443     1.3706     2.7830 H       
  66 H66           -0.0035     0.3867     5.0266 H       
  67 H67           -2.2417     0.1440     6.0241 H       
  68 H68           -4.2325     0.8791     4.7754 H       
  69 H69           -2.1049     4.2757     1.8567 H       
  70 H70           -0.3767     3.8561     1.7819 H       
  71 H71           -1.2727     4.2080     0.2847 H       
@<TRIPOS>BOND
   1    1    2 1
   2    1    5 am
   3    1   25 1
   4    2    3 1
   5    2    9 1
   6    3    4 2
   7    3   10 1
   8    4    5 1
   9    4    6 1
  10    5   24 2
  11    6    7 2
  12    6    8 am
  13    8   11 1
  14    8   44 1
  15    9   45 1
  16    9   46 1
  17    9   47 1
  18   10   34 ar
  19   10   35 ar
  20   11   12 ar
  21   11   16 ar
  22   12   13 ar
  23   12   48 1
  24   13   14 ar
  25   13   49 1
  26   14   15 ar
  27   14   17 1
  28   15   16 ar
  29   15   50 1
  30   17   21 1
  31   18   19 ar
  32   18   23 ar
  33   19   20 ar
  34   19   31 ar
  35   20   21 ar
  36   20   28 ar
  37   21   22 ar
  38   22   23 ar
  39   22   51 1
  40   23   52 1
  41   25   26 1
  42   25   43 1
  43   25   53 1
  44   26   27 ar
  45   26   39 ar
  46   27   42 ar
  47   27   54 1
  48   28   29 ar
  49   28   55 1
  50   29   30 ar
  51   29   56 1
  52   30   31 ar
  53   30   33 1
  54   31   57 1
  55   32   33 1
  56   32   58 1
  57   32   59 1
  58   32   60 1
  59   34   38 ar
  60   34   61 1
  61   35   36 ar
  62   35   62 1
  63   36   37 ar
  64   36   63 1
  65   37   38 ar
  66   38   64 1
  67   39   40 ar
  68   39   65 1
  69   40   41 ar
  70   40   66 1
  71   41   42 ar
  72   41   67 1
  73   42   68 1
  74   43   69 1
  75   43   70 1
  76   43   71 1

#	End of record

