#	Name: ASD01230397
#	Creating user name:	WinNT
#	Creation time:	15. 06. 2019 19:14

#	Modifying user name:	WinNT
#	Modification time:	15. 06. 2019 19:14

#	Program:	/corina/corina34_cracker 3.40 0067  02.08.2006

@<TRIPOS>MOLECULE
ASD01230397
  27   28    0    0    0
SMALL
NO_CHARGES


@<TRIPOS>ATOM
   1 C1            -0.0168     1.3840     0.0097 C.ar    
   2 C2             0.0021    -0.0041     0.0020 C.ar    
   3 C3             1.2048    -0.6788    -0.0127 C.ar    
   4 C4             2.4025     0.0347    -0.0203 C.ar    
   5 C5             2.3802     1.4285    -0.0131 C.ar    
   6 C6             1.1742     2.0974     0.0021 C.ar    
   7 O7            -1.2035     2.0460     0.0189 O.3     
   8 C8             3.9508    -1.7172     0.8821 C.ar    
   9 C9             3.6975    -0.6876    -0.0356 C.ar    
  10 C10            4.6842    -0.3550    -0.9633 C.ar    
  11 C11            5.8778    -1.0600    -0.9375 C.ar    
  12 C12            6.0548    -2.0618    -0.0034 C.ar    
  13 N13            5.1067    -2.3601     0.8653 N.ar    
  14 C14            6.9729    -0.7361    -1.9209 C.3     
  15 N15            2.9842    -2.0603     1.8178 N.pl3   
  16 H16           -0.9261    -0.5562     0.0080 H       
  17 H17            1.2188    -1.7587    -0.0179 H       
  18 H18            3.3064     1.9841    -0.0186 H       
  19 H19            1.1562     3.1772     0.0078 H       
  20 H20           -1.5428     2.2327     0.9049 H       
  21 H21            4.5224     0.4323    -1.6846 H       
  22 H22            6.9847    -2.6108     0.0165 H       
  23 H23            7.6269     0.0266    -1.4982 H       
  24 H24            7.5515    -1.6359    -2.1297 H       
  25 H25            6.5322    -0.3647    -2.8461 H       
  26 H26            2.1370    -1.5884     1.8353 H       
  27 H27            3.1562    -2.7720     2.4541 H       
@<TRIPOS>BOND
   1    1    2 ar
   2    1    6 ar
   3    1    7 1
   4    2    3 ar
   5    2   16 1
   6    3    4 ar
   7    3   17 1
   8    4    5 ar
   9    4    9 1
  10    5    6 ar
  11    5   18 1
  12    6   19 1
  13    7   20 1
  14    8    9 ar
  15    8   13 ar
  16    8   15 1
  17    9   10 ar
  18   10   11 ar
  19   10   21 1
  20   11   12 ar
  21   11   14 1
  22   12   13 ar
  23   12   22 1
  24   14   23 1
  25   14   24 1
  26   14   25 1
  27   15   26 1
  28   15   27 1

#	End of record

