#	Name: ASD01910299
#	Creating user name:	WinNT
#	Creation time:	15. 06. 2019 19:55

#	Modifying user name:	WinNT
#	Modification time:	15. 06. 2019 19:55

#	Program:	/corina/corina34_cracker 3.40 0067  02.08.2006

@<TRIPOS>MOLECULE
ASD01910299
  43   46    0    0    0
SMALL
NO_CHARGES


@<TRIPOS>ATOM
   1 C1             2.3841     0.1596     1.9046 C.ar    
   2 C2             2.3615    -1.1725     1.5245 C.ar    
   3 C3             3.3250    -1.6666     0.6602 C.ar    
   4 C4             4.3118    -0.8333     0.1748 C.ar    
   5 C5             4.3381     0.5069     0.5545 C.ar    
   6 C6             3.3671     0.9998     1.4234 C.ar    
   7 C7             5.3982     1.4070     0.0351 C.2     
   8 N8             5.5460     2.6883     0.3071 N.2     
   9 N9             6.5806     3.1108    -0.3347 N.pl3   
  10 N10            7.0929     2.1381    -1.0044 N.2     
  11 N11            6.3948     1.0735    -0.7971 N.2     
  12 C12            7.0931     4.4830    -0.3068 C.3     
  13 C13            8.5267     4.4820     0.2289 C.3     
  14 C14            9.0514     5.9184     0.2893 C.3     
  15 C15            9.0631     6.5133    -1.1223 C.3     
  16 N16            7.7183     6.3860    -1.7003 N.am    
  17 C17            7.0826     5.0617    -1.7251 C.3     
  18 C18            7.0801     7.4636    -2.1982 C.2     
  19 C19            7.6762     8.8041    -2.0563 C.2     
  20 O20            6.0123     7.3299    -2.7647 O.2     
  21 F21            1.3975    -1.9919     1.9982 F       
  22 C22            8.3308     9.3967    -0.8797 C.2     
  23 N23            8.6875    10.5909    -1.2499 N.2     
  24 O24            8.3820    10.8262    -2.3932 O.3     
  25 C25            7.7630     9.8061    -2.9918 C.2     
  26 C26            7.2512     9.7659    -4.4087 C.3     
  27 H27            1.6285     0.5419     2.5750 H       
  28 H28            3.3039    -2.7057     0.3663 H       
  29 H29            5.0629    -1.2194    -0.4983 H       
  30 H30            3.3840     2.0381     1.7202 H       
  31 H31            6.4633     5.0934     0.3404 H       
  32 H32            8.5405     4.0480     1.2286 H       
  33 H33            9.1609     3.8912    -0.4321 H       
  34 H34            8.4033     6.5158     0.9305 H       
  35 H35           10.0640     5.9191     0.6928 H       
  36 H36            9.3414     7.5661    -1.0729 H       
  37 H37            9.7794     5.9726    -1.7408 H       
  38 H38            7.6373     4.4025    -2.3928 H       
  39 H39            6.0541     5.1565    -2.0735 H       
  40 H40            8.4827     8.9376     0.0859 H       
  41 H41            7.4614    10.7169    -4.8980 H       
  42 H42            7.7467     8.9608    -4.9512 H       
  43 H43            6.1754     9.5909    -4.4015 H       
@<TRIPOS>BOND
   1    1    2 ar
   2    1    6 ar
   3    1   27 1
   4    2    3 ar
   5    2   21 1
   6    3    4 ar
   7    3   28 1
   8    4    5 ar
   9    4   29 1
  10    5    6 ar
  11    5    7 1
  12    6   30 1
  13    7    8 2
  14    7   11 1
  15    8    9 1
  16    9   10 1
  17    9   12 1
  18   10   11 2
  19   12   13 1
  20   12   17 1
  21   12   31 1
  22   13   14 1
  23   13   32 1
  24   13   33 1
  25   14   15 1
  26   14   34 1
  27   14   35 1
  28   15   16 1
  29   15   36 1
  30   15   37 1
  31   16   17 1
  32   16   18 am
  33   17   38 1
  34   17   39 1
  35   18   19 1
  36   18   20 2
  37   19   22 1
  38   19   25 2
  39   22   23 2
  40   22   40 1
  41   23   24 1
  42   24   25 1
  43   25   26 1
  44   26   41 1
  45   26   42 1
  46   26   43 1

#	End of record

