#	Name: ASD01411100
#	Creating user name:	WinNT
#	Creation time:	15. 06. 2019 19:19

#	Modifying user name:	WinNT
#	Modification time:	15. 06. 2019 19:19

#	Program:	/corina/corina34_cracker 3.40 0067  02.08.2006

@<TRIPOS>MOLECULE
ASD01411100
  46   48    0    0    0
SMALL
NO_CHARGES


@<TRIPOS>ATOM
   1 C1            -0.0187     1.5313     0.0105 C.3     
   2 C2             0.0021    -0.0041     0.0020 C.3     
   3 O3             1.3232     2.0259     0.0003 O.3     
   4 C4             0.9855    -0.4586     1.0512 C.2     
   5 C5             2.0382     1.8201     1.2251 C.3     
   6 C6             1.9085     0.3646     1.6079 C.2     
   7 C7             1.1555    -1.7566     1.6516 C.ar    
   8 C8             1.4402     2.6986     2.3258 C.3     
   9 C9             3.5136     2.1734     1.0272 C.3     
  10 N10            2.6513    -0.3264     2.5211 N.pl3   
  11 C11            0.4943    -2.9914     1.4738 C.ar    
  12 C12            2.2231    -1.6236     2.5773 C.ar    
  13 C13            0.9477    -4.0616     2.2540 C.ar    
  14 C14            2.6471    -2.7110     3.3363 C.ar    
  15 C15            1.9872    -3.9165     3.1502 C.ar    
  16 C16            1.5459     4.1695     1.9182 C.3     
  17 C17            2.2075     2.4745     3.6304 C.3     
  18 C18            0.8377     5.0393     2.9588 C.3     
  19 C19            4.1008     1.2949    -0.0472 C.2     
  20 O20            3.4100     0.4708    -0.5982 O.2     
  21 O21            5.3911     1.4279    -0.3922 O.3     
  22 C22           -0.5844    -3.1410     0.5440 C.1     
  23 N23           -1.4402    -3.2598    -0.1936 N.1     
  24 C24            3.7793    -2.5830     4.3225 C.3     
  25 H25           -0.5458     1.8924    -0.8726 H       
  26 H26           -0.5288     1.8829     0.9073 H       
  27 H27           -0.9909    -0.3879     0.2361 H       
  28 H28            0.3158    -0.3635    -0.9781 H       
  29 H29            0.3922     2.4362     2.4710 H       
  30 H30            3.6002     3.2184     0.7297 H       
  31 H31            4.0534     2.0155     1.9609 H       
  32 H32            3.3741     0.0463     3.0498 H       
  33 H33            0.4715    -5.0256     2.1523 H       
  34 H34            2.2984    -4.7740     3.7283 H       
  35 H35            2.5960     4.4557     1.8595 H       
  36 H36            1.0756     4.3116     0.9452 H       
  37 H37            3.2554     2.7369     3.4853 H       
  38 H38            1.7814     3.1004     4.4146 H       
  39 H39            2.1321     1.4266     3.9208 H       
  40 H40           -0.2124     4.7531     3.0175 H       
  41 H41            1.3080     4.8972     3.9318 H       
  42 H42            0.9130     6.0872     2.6684 H       
  43 H43            5.7226     0.8422    -1.0865 H       
  44 H44            3.3820    -2.2992     5.2971 H       
  45 H45            4.2983    -3.5379     4.4058 H       
  46 H46            4.4766    -1.8193     3.9781 H       
@<TRIPOS>BOND
   1    1    2 1
   2    1    3 1
   3    1   25 1
   4    1   26 1
   5    2    4 1
   6    2   27 1
   7    2   28 1
   8    3    5 1
   9    4    6 2
  10    4    7 1
  11    5    8 1
  12    5    9 1
  13    5    6 1
  14    6   10 1
  15    7   11 ar
  16    7   12 ar
  17    8   16 1
  18    8   17 1
  19    8   29 1
  20    9   19 1
  21    9   30 1
  22    9   31 1
  23   10   12 1
  24   10   32 1
  25   11   13 ar
  26   11   22 1
  27   12   14 ar
  28   13   15 ar
  29   13   33 1
  30   14   15 ar
  31   14   24 1
  32   15   34 1
  33   16   18 1
  34   16   35 1
  35   16   36 1
  36   17   37 1
  37   17   38 1
  38   17   39 1
  39   18   40 1
  40   18   41 1
  41   18   42 1
  42   19   20 2
  43   19   21 1
  44   21   43 1
  45   22   23 3
  46   24   44 1
  47   24   45 1
  48   24   46 1

#	End of record

