#	Name: ASD01208022
#	Creating user name:	WinNT
#	Creation time:	15. 06. 2019 19:09

#	Modifying user name:	WinNT
#	Modification time:	15. 06. 2019 19:09

#	Program:	/corina/corina34_cracker 3.40 0067  02.08.2006

@<TRIPOS>MOLECULE
ASD01208022
  59   62    0    0    0
SMALL
NO_CHARGES


@<TRIPOS>ATOM
   1 C1            -0.0844     1.4339     0.0275 C.ar    
   2 C2             0.0184     0.0511    -0.0132 C.ar    
   3 C3            -1.1247    -0.7353     0.0265 C.ar    
   4 C4            -2.3734    -0.1417     0.1069 C.ar    
   5 C5            -2.4812     1.2493     0.1485 C.ar    
   6 C6            -1.3289     2.0358     0.1137 C.ar    
   7 C7            -3.8114     1.8871     0.2337 C.2     
   8 C8            -4.0514     3.2302     0.2804 C.2     
   9 N9            -5.0141     1.2310     0.2733 N.pl3   
  10 C10           -6.0177     2.1653     0.3514 C.2     
  11 C11           -5.4349     3.4134     0.3568 C.2     
  12 O12            1.0381     2.1991    -0.0116 O.3     
  13 C13            0.8561     3.6143    -0.0908 C.3     
  14 C14            2.0902     4.2521    -0.7320 C.3     
  15 O15            3.2212     4.0636     0.1207 O.3     
  16 C16            0.6609     4.1829     1.3162 C.3     
  17 O17           -1.0185    -2.0894    -0.0140 O.3     
  18 C18           -1.4875    -2.7334    -1.1149 C.ar    
  19 C19           -1.9383    -2.0054    -2.2067 C.ar    
  20 C20           -1.5110    -4.1203    -1.1514 C.ar    
  21 C21           -1.9878    -4.7726    -2.2718 C.ar    
  22 C22           -2.4413    -4.0446    -3.3564 C.ar    
  23 C23           -2.4140    -2.6625    -3.3247 C.ar    
  24 S24           -3.0483    -4.8797    -4.7843 S.o2    
  25 C25           -4.8227    -5.0853    -4.4683 C.3     
  26 O26           -2.8342    -3.9597    -5.8458 O.2     
  27 O27           -2.3886    -6.1381    -4.7612 O.2     
  28 C28           -7.4602     1.8831     0.4143 C.2     
  29 N29           -8.0180     0.6989     0.4065 N.2     
  30 N30           -9.2789     0.6771     0.4686 N.2     
  31 C31           -9.9021     1.8088     0.5337 C.2     
  32 S32           -8.7528     3.0787     0.5217 S.3     
  33 C33          -11.3970     1.9816     0.6133 C.3     
  34 C34            4.4328     4.6250    -0.3881 C.3     
  35 H35            0.9906    -0.4150    -0.0762 H       
  36 H36           -3.2624    -0.7542     0.1370 H       
  37 H37           -1.4079     3.1124     0.1456 H       
  38 H38           -3.3057     4.0113     0.2620 H       
  39 H39           -5.1359     0.2690     0.2499 H       
  40 H40           -5.9521     4.3599     0.4109 H       
  41 H41           -0.0229     3.8342    -0.6967 H       
  42 H42            2.2810     3.7838    -1.6976 H       
  43 H43            1.9157     5.3187    -0.8736 H       
  44 H44            0.5221     5.2623     1.2558 H       
  45 H45           -0.2182     3.7285     1.7730 H       
  46 H46            1.5399     3.9629     1.9221 H       
  47 H47           -1.9175    -0.9258    -2.1823 H       
  48 H48           -1.1566    -4.6894    -0.3046 H       
  49 H49           -2.0060    -5.8520    -2.3009 H       
  50 H50           -2.7692    -2.0963    -4.1730 H       
  51 H51           -5.2851    -4.1063    -4.3422 H       
  52 H52           -5.2847    -5.5994    -5.3111 H       
  53 H53           -4.9646    -5.6737    -3.5618 H       
  54 H54          -11.7063     1.9929     1.6585 H       
  55 H55          -11.6797     2.9222     0.1406 H       
  56 H56          -11.8863     1.1548     0.0986 H       
  57 H57            4.6722     4.1644    -1.3466 H       
  58 H58            4.3070     5.6993    -0.5226 H       
  59 H59            5.2433     4.4396     0.3167 H       
@<TRIPOS>BOND
   1    1    2 ar
   2    1   12 1
   3    1    6 ar
   4    2    3 ar
   5    2   35 1
   6    3    4 ar
   7    3   17 1
   8    4    5 ar
   9    4   36 1
  10    5    6 ar
  11    5    7 1
  12    6   37 1
  13    7    8 2
  14    7    9 1
  15    8   11 1
  16    8   38 1
  17    9   10 1
  18    9   39 1
  19   10   11 2
  20   10   28 1
  21   11   40 1
  22   12   13 1
  23   13   14 1
  24   13   16 1
  25   13   41 1
  26   14   15 1
  27   14   42 1
  28   14   43 1
  29   15   34 1
  30   16   44 1
  31   16   45 1
  32   16   46 1
  33   17   18 1
  34   18   19 ar
  35   18   20 ar
  36   19   23 ar
  37   19   47 1
  38   20   21 ar
  39   20   48 1
  40   21   22 ar
  41   21   49 1
  42   22   23 ar
  43   22   24 1
  44   23   50 1
  45   24   25 1
  46   24   26 2
  47   24   27 2
  48   25   51 1
  49   25   52 1
  50   25   53 1
  51   28   29 2
  52   28   32 1
  53   29   30 1
  54   30   31 2
  55   31   32 1
  56   31   33 1
  57   33   54 1
  58   33   55 1
  59   33   56 1
  60   34   57 1
  61   34   58 1
  62   34   59 1

#	End of record

