#	Name: ASD06660166
#	Creating user name:	WinNT
#	Creation time:	15. 06. 2019 21:08

#	Modifying user name:	WinNT
#	Modification time:	15. 06. 2019 21:08

#	Program:	/corina/corina34_cracker 3.40 0067  02.08.2006

@<TRIPOS>MOLECULE
ASD06660166
  90   93    0    0    0
SMALL
NO_CHARGES


@<TRIPOS>ATOM
   1 C1            -0.0363     1.5041     0.0181 C.2     
   2 C2            -0.0150    -0.0027     0.0113 C.3     
   3 C3            -0.7241    -0.5171    -1.2431 C.3     
   4 O4             1.0015     2.1229     0.0250 O.2     
   5 O5            -1.2081     2.1588     0.0110 O.3     
   6 N6             1.3729    -0.4716     0.0146 N.am    
   7 C7             2.0394    -0.5962     1.1794 C.2     
   8 C8             3.4401    -1.0693     1.1827 C.ar    
   9 C9             3.7189    -2.4333     1.2828 C.ar    
  10 C10            5.0282    -2.8681     1.2848 C.ar    
  11 C11            6.0636    -1.9555     1.1885 C.ar    
  12 C12            5.7941    -0.6021     1.0890 C.ar    
  13 C13            4.4892    -0.1544     1.0800 C.ar    
  14 O14            1.4888    -0.3196     2.2272 O.2     
  15 C15            4.1972     1.3196     0.9654 C.3     
  16 C16            7.4914    -2.4377     1.1923 C.3     
  17 C17            2.5924    -3.4286     1.3888 C.3     
  18 C18           -0.8113    -2.0207    -1.1900 C.ar    
  19 C19           -1.9060    -2.6280    -0.6027 C.ar    
  20 C20           -1.9889    -4.0057    -0.5524 C.ar    
  21 C21           -0.9716    -4.7812    -1.0929 C.ar    
  22 C22            0.1263    -4.1682    -1.6824 C.ar    
  23 C23            0.2009    -2.7901    -1.7338 C.ar    
  24 N24           -1.0523    -6.1772    -1.0432 N.am    
  25 C25           -0.1772    -7.0091    -1.6340 C.2     
  26 C26           -0.5641    -8.4469    -1.3664 C.3     
  27 C27           -1.5582    -8.3586    -0.1854 C.3     
  28 C28           -2.0998    -6.9214    -0.3340 C.3     
  29 O29            0.7828    -6.6580    -2.2869 O.2     
  30 C30           -2.6796    -9.3885    -0.3354 C.3     
  31 N31           -2.1230   -10.7380    -0.2117 N.am    
  32 C32           -2.0466   -11.3486     1.0392 C.ar    
  33 C33           -2.5946   -10.7156     2.1492 C.ar    
  34 C34           -2.5118   -11.3326     3.3848 C.ar    
  35 C35           -1.8811   -12.5667     3.4680 C.ar    
  36 C36           -1.3591   -13.1375     2.3243 C.ar    
  37 N37           -1.4578   -12.5279     1.1583 N.ar    
  38 C38           -3.0926   -10.6798     4.6126 C.3     
  39 C39           -1.6848   -11.3892    -1.3073 C.2     
  40 O40           -1.2231   -12.5084    -1.2048 O.2     
  41 O41           -1.7586   -10.7995    -2.5155 O.3     
  42 C42           -1.2680   -11.5598    -3.6511 C.3     
  43 C43           -2.0662   -12.8589    -3.7783 C.3     
  44 C44           -1.4328   -10.7329    -4.9279 C.3     
  45 C45            0.2118   -11.8886    -3.4439 C.3     
  46 C46           -1.1525     3.6097     0.0182 C.3     
  47 H47           -0.5272    -0.3774     0.8976 H       
  48 H48           -1.7285    -0.0964    -1.2910 H       
  49 H49           -0.1618    -0.2168    -2.1273 H       
  50 H50            1.8123    -0.6923    -0.8216 H       
  51 H51            5.2453    -3.9232     1.3622 H       
  52 H52            6.6069     0.1051     1.0141 H       
  53 H53            4.1531     1.7598     1.9616 H       
  54 H54            4.9865     1.8026     0.3894 H       
  55 H55            3.2409     1.4625     0.4623 H       
  56 H56            7.8112    -2.6345     0.1690 H       
  57 H57            8.1318    -1.6735     1.6326 H       
  58 H58            7.5638    -3.3541     1.7781 H       
  59 H59            2.2954    -3.7489     0.3902 H       
  60 H60            2.9242    -4.2930     1.9639 H       
  61 H61            1.7428    -2.9638     1.8890 H       
  62 H62           -2.6969    -2.0243    -0.1825 H       
  63 H63           -2.8438    -4.4794    -0.0929 H       
  64 H64            0.9191    -4.7686    -2.1036 H       
  65 H65            1.0524    -2.3128    -2.1958 H       
  66 H66           -1.0486    -8.8806    -2.2412 H       
  67 H67            0.3117    -9.0316    -1.0850 H       
  68 H68           -1.0435    -8.4805     0.7677 H       
  69 H69           -2.2774    -6.4806     0.6469 H       
  70 H70           -3.0200    -6.9266    -0.9182 H       
  71 H71           -3.4251    -9.2302     0.4439 H       
  72 H72           -3.1472    -9.2766    -1.3136 H       
  73 H73           -3.0780    -9.7551     2.0484 H       
  74 H74           -1.7993   -13.0747     4.4175 H       
  75 H75           -0.8676   -14.0973     2.3841 H       
  76 H76           -4.1298   -10.9923     4.7341 H       
  77 H77           -2.5180   -10.9787     5.4893 H       
  78 H78           -3.0501    -9.5962     4.5025 H       
  79 H79           -3.1204   -12.6246    -3.9259 H       
  80 H80           -1.6980   -13.4296    -4.6308 H       
  81 H81           -1.9488   -13.4479    -2.8687 H       
  82 H82           -0.8642    -9.8074    -4.8373 H       
  83 H83           -1.0646   -11.3036    -5.7804 H       
  84 H84           -2.4870   -10.4987    -5.0755 H       
  85 H85            0.3291   -12.4777    -2.5343 H       
  86 H86            0.5800   -12.4593    -4.2964 H       
  87 H87            0.7804   -10.9631    -3.3533 H       
  88 H88           -0.6330     3.9490     0.9143 H       
  89 H89           -0.6174     3.9573    -0.8655 H       
  90 H90           -2.1655     4.0121     0.0112 H       
@<TRIPOS>BOND
   1    1    2 1
   2    1    4 2
   3    1    5 1
   4    2    3 1
   5    2    6 1
   6    2   47 1
   7    3   18 1
   8    3   48 1
   9    3   49 1
  10    5   46 1
  11    6    7 am
  12    6   50 1
  13    7    8 1
  14    7   14 2
  15    8    9 ar
  16    8   13 ar
  17    9   10 ar
  18    9   17 1
  19   10   11 ar
  20   10   51 1
  21   11   12 ar
  22   11   16 1
  23   12   13 ar
  24   12   52 1
  25   13   15 1
  26   15   53 1
  27   15   54 1
  28   15   55 1
  29   16   56 1
  30   16   57 1
  31   16   58 1
  32   17   59 1
  33   17   60 1
  34   17   61 1
  35   18   19 ar
  36   18   23 ar
  37   19   20 ar
  38   19   62 1
  39   20   21 ar
  40   20   63 1
  41   21   22 ar
  42   21   24 1
  43   22   23 ar
  44   22   64 1
  45   23   65 1
  46   24   25 am
  47   24   28 1
  48   25   26 1
  49   25   29 2
  50   26   27 1
  51   26   66 1
  52   26   67 1
  53   27   28 1
  54   27   30 1
  55   27   68 1
  56   28   69 1
  57   28   70 1
  58   30   31 1
  59   30   71 1
  60   30   72 1
  61   31   32 1
  62   31   39 am
  63   32   33 ar
  64   32   37 ar
  65   33   34 ar
  66   33   73 1
  67   34   35 ar
  68   34   38 1
  69   35   36 ar
  70   35   74 1
  71   36   37 ar
  72   36   75 1
  73   38   76 1
  74   38   77 1
  75   38   78 1
  76   39   40 2
  77   39   41 1
  78   41   42 1
  79   42   43 1
  80   42   45 1
  81   42   44 1
  82   43   79 1
  83   43   80 1
  84   43   81 1
  85   44   82 1
  86   44   83 1
  87   44   84 1
  88   45   85 1
  89   45   86 1
  90   45   87 1
  91   46   88 1
  92   46   89 1
  93   46   90 1

#	End of record

