#	Name: ASD05130070
#	Creating user name:	WinNT
#	Creation time:	15. 06. 2019 20:56

#	Modifying user name:	WinNT
#	Modification time:	15. 06. 2019 20:56

#	Program:	/corina/corina34_cracker 3.40 0067  02.08.2006

@<TRIPOS>MOLECULE
ASD05130070
  61   65    0    0    0
SMALL
NO_CHARGES


@<TRIPOS>ATOM
   1 N1            -1.9548     2.5475     0.9847 N.am    
   2 C2            -1.9543     1.3402     1.5838 C.2     
   3 O3            -0.9438     0.9279     2.1199 O.2     
   4 N4            -3.0739     0.5899     1.5888 N.am    
   5 C5            -3.0456    -0.7056     2.1169 C.ar    
   6 C6            -4.1584    -1.2131     2.7742 C.ar    
   7 C7            -4.1270    -2.4940     3.2951 C.ar    
   8 C8            -2.9865    -3.2689     3.1612 C.ar    
   9 C9            -1.8783    -2.7645     2.5069 C.ar    
  10 C10           -1.9066    -1.4880     1.9795 C.ar    
  11 F11           -5.2087    -2.9895     3.9350 F       
  12 C12           -0.8194     3.3647     1.0550 C.ar    
  13 C13           -0.9541     4.7492     1.0078 C.ar    
  14 C14            0.1654     5.5593     1.0771 C.ar    
  15 C15            1.4217     4.9987     1.1939 C.ar    
  16 C16            1.5653     3.6125     1.2424 C.ar    
  17 C17            0.4375     2.7955     1.1775 C.ar    
  18 C18            2.6382     5.8851     1.2685 C.3     
  19 F19           -2.1809     5.3034     0.8935 F       
  20 N20            4.5766     1.8934     2.7590 N.am    
  21 C21            3.3515     2.4428     2.6447 C.2     
  22 C22            2.9130     3.0094     1.3673 C.2     
  23 C23            3.7558     2.9779     0.2899 C.2     
  24 C24            5.0375     2.3960     0.4352 C.ar    
  25 C25            5.9323     2.3426    -0.6406 C.ar    
  26 N26            7.1198     1.7982    -0.4887 N.ar    
  27 C27            7.5200     1.2835     0.6691 C.ar    
  28 C28            6.6963     1.2947     1.7858 C.ar    
  29 C29            5.4301     1.8582     1.6805 C.ar    
  30 O30            2.6054     2.4676     3.6074 O.2     
  31 C31            5.0055     1.3350     4.0436 C.3     
  32 C32            4.6146    -0.1426     4.1134 C.3     
  33 N33            8.7857     0.7235     0.7633 N.pl3   
  34 C34            9.1940     0.0384     1.9922 C.3     
  35 C35           10.2784    -1.0346     1.8758 C.3     
  36 C36           10.6032     0.3146     2.5201 C.3     
  37 H37           -2.7400     2.8487     0.5013 H       
  38 H38           -3.8993     0.9480     1.2263 H       
  39 H39           -5.0471    -0.6084     2.8790 H       
  40 H40           -2.9630    -4.2687     3.5690 H       
  41 H41           -0.9905    -3.3708     2.4040 H       
  42 H42           -1.0415    -1.0969     1.4647 H       
  43 H43            0.0563     6.6331     1.0393 H       
  44 H44            0.5439     1.7215     1.2188 H       
  45 H45            2.8485     6.1263     2.3105 H       
  46 H46            3.4933     5.3656     0.8361 H       
  47 H47            2.4525     6.8043     0.7130 H       
  48 H48            3.4469     3.3913    -0.6588 H       
  49 H49            5.6460     2.7498    -1.5991 H       
  50 H50            7.0334     0.8727     2.7211 H       
  51 H51            6.0873     1.4294     4.1378 H       
  52 H52            4.5213     1.8776     4.8555 H       
  53 H53            5.0988    -0.6853     3.3015 H       
  54 H54            4.9338    -0.5581     5.0692 H       
  55 H55            3.5328    -0.2371     4.0192 H       
  56 H56            9.4003     0.7856     0.0155 H       
  57 H57            8.4038    -0.1221     2.7257 H       
  58 H58           10.2020    -1.9008     2.5330 H       
  59 H59           10.6881    -1.2307     0.8849 H       
  60 H60           11.2265     1.0061     1.9532 H       
  61 H61           10.7404     0.3360     3.6012 H       
@<TRIPOS>BOND
   1    1    2 am
   2    1   12 1
   3    1   37 1
   4    2    3 2
   5    2    4 am
   6    4    5 1
   7    4   38 1
   8    5    6 ar
   9    5   10 ar
  10    6    7 ar
  11    6   39 1
  12    7    8 ar
  13    7   11 1
  14    8    9 ar
  15    8   40 1
  16    9   10 ar
  17    9   41 1
  18   10   42 1
  19   12   13 ar
  20   12   17 ar
  21   13   14 ar
  22   13   19 1
  23   14   15 ar
  24   14   43 1
  25   15   16 ar
  26   15   18 1
  27   16   17 ar
  28   16   22 1
  29   17   44 1
  30   18   45 1
  31   18   46 1
  32   18   47 1
  33   20   21 am
  34   20   29 1
  35   20   31 1
  36   21   22 1
  37   21   30 2
  38   22   23 2
  39   23   24 1
  40   23   48 1
  41   24   25 ar
  42   24   29 ar
  43   25   26 ar
  44   25   49 1
  45   26   27 ar
  46   27   28 ar
  47   27   33 1
  48   28   29 ar
  49   28   50 1
  50   31   32 1
  51   31   51 1
  52   31   52 1
  53   32   53 1
  54   32   54 1
  55   32   55 1
  56   33   34 1
  57   33   56 1
  58   34   35 1
  59   34   36 1
  60   34   57 1
  61   35   36 1
  62   35   58 1
  63   35   59 1
  64   36   60 1
  65   36   61 1

#	End of record

