#	Name: ASD03430626
#	Creating user name:	WinNT
#	Creation time:	15. 06. 2019 20:41

#	Modifying user name:	WinNT
#	Modification time:	15. 06. 2019 20:41

#	Program:	/corina/corina34_cracker 3.40 0067  02.08.2006

@<TRIPOS>MOLECULE
ASD03430626
  35   38    0    0    0
SMALL
NO_CHARGES


@<TRIPOS>ATOM
   1 N1            -0.0162     1.3403     0.0094 N.am    
   2 C2             0.0021    -0.0041     0.0020 C.2     
   3 C3             1.4384    -0.4347    -0.0140 C.2     
   4 C4             2.2077     0.8172    -0.0146 C.ar    
   5 C5             3.5887     1.0925    -0.0263 C.ar    
   6 C6             4.0405     2.4159    -0.0235 C.ar    
   7 C7             3.0823     3.4520    -0.0088 C.ar    
   8 C8             1.7368     3.1764     0.0030 C.ar    
   9 C9             1.2756     1.8638    -0.0001 C.ar    
  10 S10            4.9930     0.0287    -0.0455 S.3     
  11 C11            6.0640     1.4230    -0.0482 C.2     
  12 N12            5.3853     2.5076    -0.0359 N.2     
  13 O13           -0.9661    -0.7349     0.0079 O.2     
  14 O14            1.8709    -1.5693    -0.0242 O.2     
  15 C15           -1.2366     2.1505     0.0198 C.3     
  16 C16           -1.6479     2.4211     1.4441 C.ar    
  17 C17           -1.1735     3.5432     2.0981 C.ar    
  18 C18           -1.5490     3.7935     3.4037 C.ar    
  19 C19           -2.4028     2.9179     4.0587 C.ar    
  20 C20           -2.8773     1.7928     3.4003 C.ar    
  21 C21           -2.5034     1.5499     2.0928 C.ar    
  22 O22           -2.7733     3.1617     5.3433 O.3     
  23 C23           -3.6546     2.2175     5.9547 C.3     
  24 H24            3.4131     4.4801    -0.0065 H       
  25 H25            1.0269     3.9902     0.0145 H       
  26 H26            7.1427     1.3713    -0.0584 H       
  27 H27           -1.0497     3.0955    -0.4902 H       
  28 H28           -2.0342     1.6126    -0.4927 H       
  29 H29           -0.5086     4.2244     1.5878 H       
  30 H30           -1.1780     4.6699     3.9142 H       
  31 H31           -3.5421     1.1096     3.9081 H       
  32 H32           -2.8763     0.6767     1.5783 H       
  33 H33           -3.1824     1.2352     5.9675 H       
  34 H34           -3.8702     2.5303     6.9763 H       
  35 H35           -4.5834     2.1667     5.3866 H       
@<TRIPOS>BOND
   1    1    2 am
   2    1    9 1
   3    1   15 1
   4    2    3 1
   5    2   13 2
   6    3    4 1
   7    3   14 2
   8    4    5 ar
   9    4    9 ar
  10    5    6 ar
  11    5   10 1
  12    6    7 ar
  13    6   12 1
  14    7    8 ar
  15    7   24 1
  16    8    9 ar
  17    8   25 1
  18   10   11 1
  19   11   12 2
  20   11   26 1
  21   15   16 1
  22   15   27 1
  23   15   28 1
  24   16   17 ar
  25   16   21 ar
  26   17   18 ar
  27   17   29 1
  28   18   19 ar
  29   18   30 1
  30   19   20 ar
  31   19   22 1
  32   20   21 ar
  33   20   31 1
  34   21   32 1
  35   22   23 1
  36   23   33 1
  37   23   34 1
  38   23   35 1

#	End of record

