#	Name: ASD00740003
#	Creating user name:	WinNT
#	Creation time:	15. 06. 2019 18:37

#	Modifying user name:	WinNT
#	Modification time:	15. 06. 2019 18:37

#	Program:	/corina/corina34_cracker 3.40 0067  02.08.2006

@<TRIPOS>MOLECULE
ASD00740003
  55   58    0    0    0
SMALL
NO_CHARGES


@<TRIPOS>ATOM
   1 N1            -0.0162     1.3436     0.0094 N.am    
   2 C2            -0.1510     0.0028     0.0356 C.2     
   3 N3            -1.3747    -0.5492     0.1548 N.am    
   4 C4            -1.5143    -1.9365     0.1818 C.2     
   5 N5            -2.6817    -2.6264     0.2972 N.pl3   
   6 N6            -2.3742    -3.9929     0.2825 N.2     
   7 C7            -1.0775    -4.1237     0.1635 C.2     
   8 C8            -0.5083    -2.8490     0.0917 C.2     
   9 C9            -0.3255    -5.4284     0.1073 C.3     
  10 C10            0.3790    -5.6689     1.4440 C.3     
  11 C11           -1.3060    -6.5709    -0.1652 C.3     
  12 C12            0.7140    -5.3701    -1.0138 C.3     
  13 O13            0.8314    -0.7088    -0.0484 O.2     
  14 C14           -3.9626    -2.0691     0.4109 C.ar    
  15 C15            1.2567     1.9172     0.0066 C.ar    
  16 C16            2.2910     1.3174     0.6913 C.ar    
  17 C17            3.5638     1.8811     0.6949 C.ar    
  18 C18            3.8224     3.0371     0.0240 C.ar    
  19 C19            2.7949     3.6804    -0.6873 C.ar    
  20 C20            1.4968     3.1137    -0.7024 C.ar    
  21 C21           -4.1449    -0.8823     1.1088 C.ar    
  22 C22           -5.4075    -0.3322     1.2220 C.ar    
  23 C23           -6.4923    -0.9603     0.6417 C.ar    
  24 C24           -6.3166    -2.1479    -0.0584 C.ar    
  25 C25           -5.0489    -2.6995    -0.1785 C.ar    
  26 N26           -7.4138    -2.7829    -0.6446 N.pl3   
  27 C27            3.0328     4.8746    -1.3896 C.ar    
  28 C28            2.0149     5.4710    -2.0684 C.ar    
  29 C29            0.7370     4.9155    -2.0780 C.ar    
  30 C30            0.4719     3.7568    -1.4138 C.ar    
  31 H31           -0.8035     1.9098    -0.0115 H       
  32 H32           -2.1585     0.0184     0.2218 H       
  33 H33            0.5438    -2.6274    -0.0097 H       
  34 H34           -0.3615    -5.7105     2.2427 H       
  35 H35            0.9230    -6.6126     1.4034 H       
  36 H36            1.0776    -4.8550     1.6381 H       
  37 H37           -1.8079    -6.3996    -1.1175 H       
  38 H38           -0.7621    -7.5146    -0.2058 H       
  39 H39           -2.0465    -6.6125     0.6335 H       
  40 H40            1.4125    -4.5562    -0.8197 H       
  41 H41            1.2579    -6.3138    -1.0545 H       
  42 H42            0.2120    -5.1988    -1.9661 H       
  43 H43            2.1121     0.3995     1.2316 H       
  44 H44            4.3591     1.3936     1.2392 H       
  45 H45            4.8161     3.4597     0.0386 H       
  46 H46           -3.2988    -0.3890     1.5640 H       
  47 H47           -5.5464     0.5906     1.7656 H       
  48 H48           -7.4779    -0.5282     0.7325 H       
  49 H49           -4.9094    -3.6221    -0.7223 H       
  50 H50           -8.2992    -2.3950    -0.5632 H       
  51 H51           -7.2905    -3.6118    -1.1332 H       
  52 H52            4.0181     5.3169    -1.3903 H       
  53 H53            2.2003     6.3885    -2.6071 H       
  54 H54           -0.0536     5.4089    -2.6238 H       
  55 H55           -0.5233     3.3376    -1.4299 H       
@<TRIPOS>BOND
   1    1    2 am
   2    1   15 1
   3    1   31 1
   4    2    3 am
   5    2   13 2
   6    3    4 1
   7    3   32 1
   8    4    5 1
   9    4    8 2
  10    5    6 1
  11    5   14 1
  12    6    7 2
  13    7    8 1
  14    7    9 1
  15    8   33 1
  16    9   10 1
  17    9   11 1
  18    9   12 1
  19   10   34 1
  20   10   35 1
  21   10   36 1
  22   11   37 1
  23   11   38 1
  24   11   39 1
  25   12   40 1
  26   12   41 1
  27   12   42 1
  28   14   21 ar
  29   14   25 ar
  30   15   16 ar
  31   15   20 ar
  32   16   17 ar
  33   16   43 1
  34   17   18 ar
  35   17   44 1
  36   18   19 ar
  37   18   45 1
  38   19   20 ar
  39   19   27 ar
  40   20   30 ar
  41   21   22 ar
  42   21   46 1
  43   22   23 ar
  44   22   47 1
  45   23   24 ar
  46   23   48 1
  47   24   25 ar
  48   24   26 1
  49   25   49 1
  50   26   50 1
  51   26   51 1
  52   27   28 ar
  53   27   52 1
  54   28   29 ar
  55   28   53 1
  56   29   30 ar
  57   29   54 1
  58   30   55 1

#	End of record

