#	Name: ASD03090526
#	Creating user name:	WinNT
#	Creation time:	15. 06. 2019 20:29

#	Modifying user name:	WinNT
#	Modification time:	15. 06. 2019 20:29

#	Program:	/corina/corina34_cracker 3.40 0067  02.08.2006

@<TRIPOS>MOLECULE
ASD03090526
  34   36    0    0    0
SMALL
NO_CHARGES


@<TRIPOS>ATOM
   1 C1            -0.0181     1.5035     0.0018 C.2     
   2 C2             0.0032    -0.0034    -0.0070 C.3     
   3 O3             1.0234     2.1247    -0.0120 O.2     
   4 N4            -1.1946     2.1607     0.0195 N.am    
   5 C5            -1.2152     3.5504     0.1324 C.ar    
   6 C6            -2.4214     4.2426     0.0377 C.ar    
   7 C7            -2.3883     5.6233     0.1571 C.ar    
   8 C8            -1.1577     6.2307     0.3634 C.ar    
   9 N9            -0.0651     5.4970     0.4402 N.ar    
  10 N10           -0.0897     4.2181     0.3355 N.ar    
  11 C11           -1.0703     7.7291     0.4990 C.3     
  12 F12           -1.2083     8.0843     1.8451 F       
  13 F13            0.1706     8.1685     0.0256 F       
  14 F14           -2.0921     8.3253    -0.2478 F       
  15 N15            5.3364    -1.8072     0.1675 N.pl3   
  16 C16            5.5187    -1.8686     1.5222 C.2     
  17 C17            4.3963    -1.4882     2.1527 C.2     
  18 C18            3.4150    -1.1560     1.1171 C.ar    
  19 C19            2.0924    -0.7089     1.1408 C.ar    
  20 C20            1.4308    -0.4855    -0.0334 C.ar    
  21 C21            2.0629    -0.6994    -1.2508 C.ar    
  22 C22            3.3669    -1.1407    -1.2974 C.ar    
  23 C23            4.0598    -1.3748    -0.1138 C.ar    
  24 H24           -0.4906    -0.3790     0.8892 H       
  25 H25           -0.5202    -0.3689    -0.8905 H       
  26 H26           -2.0270     1.6670    -0.0464 H       
  27 H27           -3.3524     3.7198    -0.1240 H       
  28 H28           -3.2933     6.2089     0.0913 H       
  29 H29            6.0078    -2.0309    -0.4958 H       
  30 H30            6.4304    -2.1777     2.0117 H       
  31 H31            4.2453    -1.4368     3.2209 H       
  32 H32            1.5939    -0.5412     2.0841 H       
  33 H33            1.5267    -0.5183    -2.1707 H       
  34 H34            3.8498    -1.3045    -2.2494 H       
@<TRIPOS>BOND
   1    1    2 1
   2    1    3 2
   3    1    4 am
   4    2   20 1
   5    2   24 1
   6    2   25 1
   7    4    5 1
   8    4   26 1
   9    5    6 ar
  10    5   10 ar
  11    6    7 ar
  12    6   27 1
  13    7    8 ar
  14    7   28 1
  15    8    9 ar
  16    8   11 1
  17    9   10 ar
  18   11   12 1
  19   11   13 1
  20   11   14 1
  21   15   16 1
  22   15   23 1
  23   15   29 1
  24   16   17 2
  25   16   30 1
  26   17   18 1
  27   17   31 1
  28   18   19 ar
  29   18   23 ar
  30   19   20 ar
  31   19   32 1
  32   20   21 ar
  33   21   22 ar
  34   21   33 1
  35   22   23 ar
  36   22   34 1

#	End of record

