#	Name: ASD01815817
#	Creating user name:	WinNT
#	Creation time:	15. 06. 2019 19:34

#	Modifying user name:	WinNT
#	Modification time:	15. 06. 2019 19:34

#	Program:	/corina/corina34_cracker 3.40 0067  02.08.2006

@<TRIPOS>MOLECULE
ASD01815817
  51   55    0    0    0
SMALL
NO_CHARGES


@<TRIPOS>ATOM
   1 C1            -0.0168     1.3869     0.0097 C.ar    
   2 C2             0.0021    -0.0041     0.0020 C.ar    
   3 C3             1.1801    -0.6897    -0.0129 C.ar    
   4 C4             2.3948     0.0129    -0.0207 C.ar    
   5 C5             2.3717     1.4290    -0.0129 C.ar    
   6 C6             1.1455     2.1015     0.0024 C.ar    
   7 C7             3.6293    -0.6694    -0.0365 C.ar    
   8 C8             4.8031     0.0063    -0.0446 C.ar    
   9 C9             4.8359     1.4095    -0.0374 C.ar    
  10 C10            3.6406     2.1511    -0.0211 C.ar    
  11 C11            6.1026     2.1526    -0.0470 C.2     
  12 N12            6.0328     3.5041    -0.0399 N.am    
  13 C13            4.8302     4.1313    -0.0241 C.2     
  14 N14            3.6961     3.4935    -0.0158 N.2     
  15 C15            7.2655     4.2957    -0.0490 C.3     
  16 C16            7.2928     5.1845    -1.2945 C.3     
  17 C17            7.3163     5.1769     1.2022 C.3     
  18 C18            8.5773     6.0442     1.1552 C.3     
  19 C19            8.5665     6.8824    -0.1252 C.3     
  20 N20            8.5183     5.9936    -1.2932 N.3     
  21 O21            7.1745     1.5748    -0.0604 O.2     
  22 C22            3.6424    -2.1763    -0.0442 C.3     
  23 C23            3.5087    -2.6726    -1.4608 C.ar    
  24 C24            4.6367    -2.8928    -2.2367 C.ar    
  25 C25            4.4664    -3.3494    -3.5343 C.ar    
  26 C26            3.1855    -3.5688    -4.0089 C.ar    
  27 N27            2.1348    -3.3481    -3.2413 N.ar    
  28 C28            2.2607    -2.9192    -2.0006 C.ar    
  29 Cl29           2.9576    -4.1401    -5.6323 Cl      
  30 O30            7.3484     4.3504     2.3675 O.3     
  31 H31           -0.9630     1.9076     0.0169 H       
  32 H32           -0.9305    -0.5488     0.0083 H       
  33 H33            1.1786    -1.7697    -0.0183 H       
  34 H34            1.1188     3.1811     0.0081 H       
  35 H35            5.7317    -0.5451    -0.0563 H       
  36 H36            4.8132     5.2111    -0.0182 H       
  37 H37            8.1268     3.6278    -0.0596 H       
  38 H38            7.2712     4.5595    -2.1872 H       
  39 H39            6.4235     5.8421    -1.2905 H       
  40 H40            6.4347     5.8172     1.2328 H       
  41 H41            8.5973     6.7045     2.0222 H       
  42 H42            9.4596     5.4043     1.1638 H       
  43 H43            7.6913     7.5320    -0.1268 H       
  44 H44            9.4701     7.4905    -0.1688 H       
  45 H45            9.3385     5.4075    -1.3358 H       
  46 H46            4.5813    -2.5336     0.3789 H       
  47 H47            2.8098    -2.5499     0.5518 H       
  48 H48            5.6246    -2.7124    -1.8395 H       
  49 H49            5.3226    -3.5313    -4.1669 H       
  50 H50            1.3776    -2.7501    -1.4022 H       
  51 H51            7.3813     4.8435     3.1986 H       
@<TRIPOS>BOND
   1    1    2 ar
   2    1    6 ar
   3    1   31 1
   4    2    3 ar
   5    2   32 1
   6    3    4 ar
   7    3   33 1
   8    4    5 ar
   9    4    7 ar
  10    5    6 ar
  11    5   10 ar
  12    6   34 1
  13    7    8 ar
  14    7   22 1
  15    8    9 ar
  16    8   35 1
  17    9   10 ar
  18    9   11 1
  19   10   14 1
  20   11   12 am
  21   11   21 2
  22   12   13 1
  23   12   15 1
  24   13   14 2
  25   13   36 1
  26   15   16 1
  27   15   17 1
  28   15   37 1
  29   16   20 1
  30   16   38 1
  31   16   39 1
  32   17   18 1
  33   17   30 1
  34   17   40 1
  35   18   19 1
  36   18   41 1
  37   18   42 1
  38   19   20 1
  39   19   43 1
  40   19   44 1
  41   20   45 1
  42   22   23 1
  43   22   46 1
  44   22   47 1
  45   23   24 ar
  46   23   28 ar
  47   24   25 ar
  48   24   48 1
  49   25   26 ar
  50   25   49 1
  51   26   27 ar
  52   26   29 1
  53   27   28 ar
  54   28   50 1
  55   30   51 1

#	End of record

