#	Name: ASD02440053
#	Creating user name:	WinNT
#	Creation time:	15. 06. 2019 20:21

#	Modifying user name:	WinNT
#	Modification time:	15. 06. 2019 20:21

#	Program:	/corina/corina34_cracker 3.40 0067  02.08.2006

@<TRIPOS>MOLECULE
ASD02440053
  48   51    0    0    0
SMALL
NO_CHARGES


@<TRIPOS>ATOM
   1 N1             0.0526     1.4733     0.0535 N.am    
   2 C2             0.0420     0.1371    -0.0126 C.2     
   3 S3             1.7323    -0.3871    -0.1078 S.3     
   4 C4             2.3941     1.2588    -0.0528 C.2     
   5 C5             1.2077     2.1174     0.0384 C.2     
   6 O6            -0.9399    -0.5808    -0.0077 O.2     
   7 C7            -1.2063     2.2180     0.1359 C.3     
   8 C8            -1.5866     2.4032     1.5824 C.ar    
   9 O9             1.2810     3.3309     0.0955 O.2     
  10 C10            3.6973     1.6363    -0.0865 C.2     
  11 C11            4.7574     0.6264     0.0255 C.ar    
  12 C12            4.4414    -0.6854     0.4003 C.ar    
  13 C13            5.4390    -1.6282     0.5039 C.ar    
  14 C14            6.7584    -1.2800     0.2371 C.ar    
  15 C15            7.0778     0.0211    -0.1350 C.ar    
  16 C16            6.0872     0.9702    -0.2477 C.ar    
  17 C17           -2.7201     1.6168     3.5398 C.ar    
  18 C18           -2.3679     1.4532     2.2161 C.ar    
  19 C19           -1.1482     3.5197     2.2721 C.ar    
  20 C20           -1.4926     3.6955     3.5963 C.ar    
  21 C21           -2.2855     2.7437     4.2404 C.ar    
  22 C22           -2.6590     2.9257     5.6580 C.2     
  23 O23           -3.3458     2.0941     6.2167 O.2     
  24 O24           -2.2381     4.0141     6.3311 O.3     
  25 O25            7.7384    -2.2136     0.3407 O.3     
  26 C26            8.5964    -2.1240     1.3906 C.ar    
  27 C27            8.3793    -1.1832     2.3872 C.ar    
  28 C28            9.2531    -1.0942     3.4534 C.ar    
  29 C29           10.3435    -1.9413     3.5278 C.ar    
  30 C30           10.5621    -2.8796     2.5360 C.ar    
  31 C31            9.6879    -2.9770     1.4708 C.ar    
  32 H32           -1.0831     3.1932    -0.3351 H       
  33 H33           -1.9911     1.6628    -0.3779 H       
  34 H34            3.9547     2.6795    -0.1958 H       
  35 H35            3.4169    -0.9568     0.6081 H       
  36 H36            5.1965    -2.6400     0.7932 H       
  37 H37            8.1043     0.2863    -0.3408 H       
  38 H38            6.3363     1.9805    -0.5368 H       
  39 H39           -3.3305     0.8749     4.0331 H       
  40 H40           -2.7031     0.5819     1.6731 H       
  41 H41           -0.5347     4.2550     1.7728 H       
  42 H42           -1.1494     4.5673     4.1336 H       
  43 H43           -2.5079     4.0895     7.2566 H       
  44 H44            7.5282    -0.5209     2.3292 H       
  45 H45            9.0847    -0.3622     4.2293 H       
  46 H46           11.0259    -1.8696     4.3618 H       
  47 H47           11.4145    -3.5400     2.5965 H       
  48 H48            9.8566    -3.7130     0.6987 H       
@<TRIPOS>BOND
   1    1    2 am
   2    1    5 am
   3    1    7 1
   4    2    3 1
   5    2    6 2
   6    3    4 1
   7    4    5 1
   8    4   10 2
   9    5    9 2
  10    7    8 1
  11    7   32 1
  12    7   33 1
  13    8   19 ar
  14    8   18 ar
  15   10   11 1
  16   10   34 1
  17   11   12 ar
  18   11   16 ar
  19   12   13 ar
  20   12   35 1
  21   13   14 ar
  22   13   36 1
  23   14   15 ar
  24   14   25 1
  25   15   16 ar
  26   15   37 1
  27   16   38 1
  28   17   18 ar
  29   17   21 ar
  30   17   39 1
  31   18   40 1
  32   19   20 ar
  33   19   41 1
  34   20   21 ar
  35   20   42 1
  36   21   22 1
  37   22   23 2
  38   22   24 1
  39   24   43 1
  40   25   26 1
  41   26   27 ar
  42   26   31 ar
  43   27   28 ar
  44   27   44 1
  45   28   29 ar
  46   28   45 1
  47   29   30 ar
  48   29   46 1
  49   30   31 ar
  50   30   47 1
  51   31   48 1

#	End of record

