#	Name: ASD03330469
#	Creating user name:	WinNT
#	Creation time:	15. 06. 2019 20:37

#	Modifying user name:	WinNT
#	Modification time:	15. 06. 2019 20:37

#	Program:	/corina/corina34_cracker 3.40 0067  02.08.2006

@<TRIPOS>MOLECULE
ASD03330469
  57   58    0    0    0
SMALL
NO_CHARGES


@<TRIPOS>ATOM
   1 C1            -1.2174     1.0127    -1.5007 C.3     
   2 N2            -1.1384    -0.4514    -1.4012 N.3     
   3 C3            -0.7108    -1.0502    -2.6786 C.3     
   4 C4             0.5228    -0.3206    -3.1443 C.2     
   5 N5             0.9237     0.8828    -2.6419 N.pl3   
   6 C6             0.1947     1.6047    -1.5955 C.3     
   7 C7             1.4255    -0.6813    -4.0905 C.2     
   8 N8             2.3628     0.2910    -4.1572 N.2     
   9 C9             2.0678     1.2343    -3.2881 C.2     
  10 C10            2.8450     2.4633    -3.0550 C.2     
  11 C11            1.3912    -1.9124    -4.8998 C.2     
  12 O12            0.4914    -2.7161    -4.7466 O.2     
  13 C13            2.3231    -3.3715    -6.6145 C.3     
  14 N14            2.3571    -2.1477    -5.8099 N.am    
  15 C15           -2.4183    -1.0187    -0.9562 C.3     
  16 C16            4.0057     2.6430    -3.6758 C.2     
  17 C17            2.9824    -4.5119    -5.8363 C.3     
  18 C18            2.2786    -4.6834    -4.4887 C.3     
  19 C19            2.8695    -5.8093    -6.6394 C.3     
  20 C20            4.4583    -4.1835    -5.6027 C.3     
  21 C21            3.0696    -3.1458    -7.9040 C.2     
  22 O22            3.8234    -2.2017    -8.0110 O.2     
  23 N23            2.8997    -3.9931    -8.9382 N.am    
  24 C24            3.6872    -3.8228   -10.1617 C.3     
  25 C25            4.5880     1.5383    -4.5194 C.3     
  26 C26            4.7401     3.9516    -3.5365 C.3     
  27 H27           -1.7850     1.2852    -2.3905 H       
  28 H28           -1.7180     1.4093    -0.6174 H       
  29 H29           -0.4814    -2.1057    -2.5323 H       
  30 H30           -1.5035    -0.9439    -3.4191 H       
  31 H31            0.1338     2.6623    -1.8525 H       
  32 H32            0.7080     1.4865    -0.6412 H       
  33 H33            2.4713     3.2186    -2.3794 H       
  34 H34            1.2880    -3.6327    -6.8348 H       
  35 H35            3.0748    -1.5067    -5.9322 H       
  36 H36           -3.2116    -0.7003    -1.6326 H       
  37 H37           -2.3539    -2.1067    -0.9585 H       
  38 H38           -2.6392    -0.6699     0.0525 H       
  39 H39            1.2271    -4.9174    -4.6551 H       
  40 H40            2.7483    -5.4959    -3.9343 H       
  41 H41            2.3590    -3.7591    -3.9165 H       
  42 H42            3.3547    -5.6811    -7.6070 H       
  43 H43            3.3556    -6.6179    -6.0935 H       
  44 H44            1.8179    -6.0532    -6.7897 H       
  45 H45            4.5387    -3.2592    -5.0306 H       
  46 H46            4.9280    -4.9959    -5.0483 H       
  47 H47            4.9597    -4.0613    -6.5628 H       
  48 H48            2.2559    -4.7157    -8.8724 H       
  49 H49            3.4855    -2.8409   -10.5899 H       
  50 H50            4.7481    -3.9052    -9.9254 H       
  51 H51            3.4139    -4.5955   -10.8803 H       
  52 H52            4.1553     1.5778    -5.5190 H       
  53 H53            5.6688     1.6632    -4.5861 H       
  54 H54            4.3612     0.5747    -4.0631 H       
  55 H55            4.1695     4.6217    -2.8935 H       
  56 H56            5.7208     3.7727    -3.0956 H       
  57 H57            4.8612     4.4067    -4.5194 H       
@<TRIPOS>BOND
   1    1    2 1
   2    1    6 1
   3    1   27 1
   4    1   28 1
   5    2    3 1
   6    2   15 1
   7    3    4 1
   8    3   29 1
   9    3   30 1
  10    4    5 1
  11    4    7 2
  12    5    6 1
  13    5    9 1
  14    6   31 1
  15    6   32 1
  16    7    8 1
  17    7   11 1
  18    8    9 2
  19    9   10 1
  20   10   16 2
  21   10   33 1
  22   11   12 2
  23   11   14 am
  24   13   14 1
  25   13   17 1
  26   13   21 1
  27   13   34 1
  28   14   35 1
  29   15   36 1
  30   15   37 1
  31   15   38 1
  32   16   25 1
  33   16   26 1
  34   17   18 1
  35   17   19 1
  36   17   20 1
  37   18   39 1
  38   18   40 1
  39   18   41 1
  40   19   42 1
  41   19   43 1
  42   19   44 1
  43   20   45 1
  44   20   46 1
  45   20   47 1
  46   21   22 2
  47   21   23 am
  48   23   24 1
  49   23   48 1
  50   24   49 1
  51   24   50 1
  52   24   51 1
  53   25   52 1
  54   25   53 1
  55   25   54 1
  56   26   55 1
  57   26   56 1
  58   26   57 1

#	End of record

