#	Name: ASD03331941
#	Creating user name:	WinNT
#	Creation time:	15. 06. 2019 20:40

#	Modifying user name:	WinNT
#	Modification time:	15. 06. 2019 20:40

#	Program:	/corina/corina34_cracker 3.40 0067  02.08.2006

@<TRIPOS>MOLECULE
ASD03331941
  67   69    0    0    0
SMALL
NO_CHARGES


@<TRIPOS>ATOM
   1 C1            -0.3228     1.1712     0.8567 C.2     
   2 N2            -0.3517    -0.1671     1.0911 N.pl3   
   3 C3             0.9377    -0.5826     1.2515 C.2     
   4 N4             1.7297     0.4578     1.1407 N.2     
   5 C5             0.9828     1.5572     0.8997 C.2     
   6 C6             1.4898     2.9285     0.7154 C.2     
   7 O7             0.7137     3.8403     0.5024 O.2     
   8 N8             2.8136     3.1723     0.7830 N.am    
   9 C9             3.3177     4.5356     0.5998 C.3     
  10 C10            3.4904     4.8191    -0.8938 C.3     
  11 C11            4.3837     3.7445    -1.5169 C.3     
  12 C12            4.6472     4.6773     1.2950 C.2     
  13 C13            2.1218     4.8039    -1.5774 C.3     
  14 C14            4.1386     6.1924    -1.0806 C.3     
  15 O15            5.2339     3.6914     1.6884 O.2     
  16 N16            5.1842     5.8996     1.4798 N.am    
  17 C17            6.5091     6.0329     2.0904 C.3     
  18 C18           -1.5614    -0.9904     1.1706 C.3     
  19 C19           -2.4721    -0.6600    -0.0161 C.3     
  20 C20           -3.3821     0.5105     0.3420 C.3     
  21 N21           -2.7020     1.4534     1.2323 N.3     
  22 C22           -1.5210     2.0433     0.5846 C.3     
  23 C23           -3.6246     2.4979     1.6966 C.3     
  24 C24            1.3710    -1.9741     1.5077 C.ar    
  25 C25            2.6215    -2.4065     1.0740 C.ar    
  26 C26            3.0222    -3.7185     1.3197 C.ar    
  27 C27            2.1682    -4.5904     1.9984 C.ar    
  28 C28            0.9293    -4.1550     2.4252 C.ar    
  29 C29            0.5289    -2.8547     2.1898 C.ar    
  30 C30            4.3482    -4.1863     0.8624 C.2     
  31 N31            4.7341    -5.4554     1.1008 N.am    
  32 O32            5.0902    -3.4263     0.2714 O.2     
  33 C33            6.0479    -5.9189     0.6477 C.3     
  34 H34            3.4327     2.4451     0.9529 H       
  35 H35            2.6080     5.2455     1.0246 H       
  36 H36            3.9219     2.7662    -1.3838 H       
  37 H37            4.5068     3.9465    -2.5809 H       
  38 H38            5.3588     3.7553    -1.0298 H       
  39 H39            1.4854     5.5695    -1.1335 H       
  40 H40            2.2448     5.0059    -2.6414 H       
  41 H41            1.6600     3.8256    -1.4443 H       
  42 H42            5.0981     6.2146    -0.5638 H       
  43 H43            4.2938     6.3794    -2.1431 H       
  44 H44            3.4857     6.9615    -0.6679 H       
  45 H45            4.6934     6.6910     1.2084 H       
  46 H46            6.4940     5.5981     3.0899 H       
  47 H47            7.2453     5.5116     1.4786 H       
  48 H48            6.7739     7.0881     2.1572 H       
  49 H49           -1.2875    -2.0448     1.1371 H       
  50 H50           -2.0858    -0.7785     2.1023 H       
  51 H51           -1.8612    -0.3936    -0.8786 H       
  52 H52           -3.0807    -1.5310    -0.2594 H       
  53 H53           -3.6747     1.0285    -0.5713 H       
  54 H54           -4.2751     0.1306     0.8383 H       
  55 H55           -1.3447     3.0408     0.9872 H       
  56 H56           -1.6887     2.1073    -0.4905 H       
  57 H57           -4.4504     2.0382     2.2395 H       
  58 H58           -3.0938     3.1846     2.3560 H       
  59 H59           -4.0142     3.0461     0.8388 H       
  60 H60            3.2779    -1.7282     0.5493 H       
  61 H61            2.4773    -5.6074     2.1895 H       
  62 H62            0.2723    -4.8332     2.9493 H       
  63 H63           -0.4412    -2.5203     2.5266 H       
  64 H64            4.1420    -6.0619     1.5724 H       
  65 H65            6.1131    -5.8231    -0.4361 H       
  66 H66            6.8267    -5.3150     1.1133 H       
  67 H67            6.1814    -6.9636     0.9288 H       
@<TRIPOS>BOND
   1    1    2 1
   2    1    5 2
   3    1   22 1
   4    2    3 1
   5    2   18 1
   6    3    4 2
   7    3   24 1
   8    4    5 1
   9    5    6 1
  10    6    7 2
  11    6    8 am
  12    8    9 1
  13    8   34 1
  14    9   10 1
  15    9   12 1
  16    9   35 1
  17   10   11 1
  18   10   13 1
  19   10   14 1
  20   11   36 1
  21   11   37 1
  22   11   38 1
  23   12   15 2
  24   12   16 am
  25   13   39 1
  26   13   40 1
  27   13   41 1
  28   14   42 1
  29   14   43 1
  30   14   44 1
  31   16   17 1
  32   16   45 1
  33   17   46 1
  34   17   47 1
  35   17   48 1
  36   18   19 1
  37   18   49 1
  38   18   50 1
  39   19   20 1
  40   19   51 1
  41   19   52 1
  42   20   21 1
  43   20   53 1
  44   20   54 1
  45   21   22 1
  46   21   23 1
  47   22   55 1
  48   22   56 1
  49   23   57 1
  50   23   58 1
  51   23   59 1
  52   24   25 ar
  53   24   29 ar
  54   25   26 ar
  55   25   60 1
  56   26   27 ar
  57   26   30 1
  58   27   28 ar
  59   27   61 1
  60   28   29 ar
  61   28   62 1
  62   29   63 1
  63   30   31 am
  64   30   32 2
  65   31   33 1
  66   31   64 1
  67   33   65 1
  68   33   66 1
  69   33   67 1

#	End of record

