#	Name: ASD01811410
#	Creating user name:	WinNT
#	Creation time:	15. 06. 2019 19:26

#	Modifying user name:	WinNT
#	Modification time:	15. 06. 2019 19:26

#	Program:	/corina/corina34_cracker 3.40 0067  02.08.2006

@<TRIPOS>MOLECULE
ASD01811410
  72   77    0    0    0
SMALL
NO_CHARGES


@<TRIPOS>ATOM
   1 C1            -0.1032     1.3052    -0.0879 C.ar    
   2 C2             0.0619    -0.0710     0.0113 C.ar    
   3 C3            -1.0411    -0.9043     0.0353 C.ar    
   4 C4            -2.3132    -0.3750    -0.0390 C.ar    
   5 C5            -2.4898     1.0064    -0.1389 C.ar    
   6 C6            -1.3775     1.8473    -0.1579 C.ar    
   7 C7             1.4478    -0.6573     0.0924 C.3     
   8 C8            -3.8519     1.5762    -0.2187 C.2     
   9 O9            -4.1090     2.6185     0.3514 O.2     
  10 N10           -4.8083     0.9398    -0.9235 N.am    
  11 C11           -4.4822    -0.2476    -1.7250 C.3     
  12 C12           -4.9628    -0.0190    -3.1619 C.3     
  13 C13           -6.4443     0.3524    -3.1478 C.3     
  14 C14           -6.6634     1.6352    -2.3483 C.3     
  15 C15           -6.1978     1.4171    -0.8998 C.3     
  16 C16           -6.9485     0.5272    -4.5594 C.ar    
  17 C17           -7.6410    -0.6296    -4.8917 C.ar    
  18 C18           -7.5810    -1.5481    -3.6930 C.3     
  19 O19           -7.2116    -0.7183    -2.5757 O.3     
  20 C20           -6.8351     1.5569    -5.4728 C.ar    
  21 C21           -7.4098     1.4413    -6.7223 C.ar    
  22 C22           -8.1074     0.2808    -7.0626 C.ar    
  23 C23           -8.2193    -0.7573    -6.1342 C.ar    
  24 C24           -8.7065     0.1554    -8.3572 C.1     
  25 N25           -9.1817     0.0559    -9.3842 N.1     
  26 N26            1.0160     2.1440    -0.1114 N.am    
  27 C27            0.9050     3.4271     0.2860 C.2     
  28 O28           -0.1374     3.8261     0.7686 O.2     
  29 C29            2.0480     4.3473     0.1355 C.ar    
  30 C30            3.2490     3.9000    -0.4171 C.ar    
  31 N31            4.2698     4.7208    -0.5518 N.ar    
  32 C32            4.1971     5.9893    -0.1726 C.ar    
  33 C33            3.0286     6.5039     0.3871 C.ar    
  34 C34            1.9414     5.6870     0.5406 C.ar    
  35 N35            5.2972     6.8143    -0.3344 N.3     
  36 C36            6.4199     6.0827    -0.9378 C.3     
  37 C37            7.5858     7.0460    -1.1726 C.3     
  38 N38            7.9823     7.6520     0.1061 N.3     
  39 C39            6.8596     8.3836     0.7095 C.3     
  40 C40            5.6938     7.4202     0.9443 C.3     
  41 H41           -0.9065    -1.9731     0.1122 H       
  42 H42           -3.1722    -1.0293    -0.0203 H       
  43 H43           -1.5079     2.9166    -0.2350 H       
  44 H44            1.7517    -0.7283     1.1368 H       
  45 H45            1.4486    -1.6513    -0.3547 H       
  46 H46            2.1456    -0.0161    -0.4462 H       
  47 H47           -3.4038    -0.4062    -1.7212 H       
  48 H48           -4.9836    -1.1202    -1.3064 H       
  49 H49           -4.3891     0.7908    -3.6127 H       
  50 H50           -4.8222    -0.9312    -3.7418 H       
  51 H51           -6.0914     2.4465    -2.7987 H       
  52 H52           -7.7231     1.8905    -2.3537 H       
  53 H53           -6.8365     0.6766    -0.4182 H       
  54 H54           -6.2502     2.3587    -0.3534 H       
  55 H55           -8.5568    -2.0011    -3.5179 H       
  56 H56           -6.8298    -2.3222    -3.8503 H       
  57 H57           -6.2958     2.4545    -5.2087 H       
  58 H58           -7.3198     2.2472    -7.4357 H       
  59 H59           -8.7575    -1.6577    -6.3910 H       
  60 H60            1.8720     1.8023    -0.4137 H       
  61 H61            3.3420     2.8724    -0.7364 H       
  62 H62            2.9805     7.5386     0.6928 H       
  63 H63            1.0251     6.0624     0.9716 H       
  64 H64            6.7370     5.2849    -0.2662 H       
  65 H65            6.1052     5.6540    -1.8892 H       
  66 H66            8.4299     6.4996    -1.5934 H       
  67 H67            7.2769     7.8287    -1.8656 H       
  68 H68            8.3422     6.9547     0.7405 H       
  69 H69            7.1744     8.8123     1.6609 H       
  70 H70            6.5426     9.1814     0.0379 H       
  71 H71            4.8496     7.9666     1.3651 H       
  72 H72            6.0026     6.6376     1.6373 H       
@<TRIPOS>BOND
   1    1    2 ar
   2    1   26 1
   3    1    6 ar
   4    2    3 ar
   5    2    7 1
   6    3    4 ar
   7    3   41 1
   8    4    5 ar
   9    4   42 1
  10    5    6 ar
  11    5    8 1
  12    6   43 1
  13    7   44 1
  14    7   45 1
  15    7   46 1
  16    8    9 2
  17    8   10 am
  18   10   11 1
  19   10   15 1
  20   11   12 1
  21   11   47 1
  22   11   48 1
  23   12   13 1
  24   12   49 1
  25   12   50 1
  26   13   14 1
  27   13   16 1
  28   13   19 1
  29   14   15 1
  30   14   51 1
  31   14   52 1
  32   15   53 1
  33   15   54 1
  34   16   17 ar
  35   16   20 ar
  36   17   18 1
  37   17   23 ar
  38   18   19 1
  39   18   55 1
  40   18   56 1
  41   20   21 ar
  42   20   57 1
  43   21   22 ar
  44   21   58 1
  45   22   23 ar
  46   22   24 1
  47   23   59 1
  48   24   25 3
  49   26   27 am
  50   26   60 1
  51   27   28 2
  52   27   29 1
  53   29   30 ar
  54   29   34 ar
  55   30   31 ar
  56   30   61 1
  57   31   32 ar
  58   32   33 ar
  59   32   35 1
  60   33   34 ar
  61   33   62 1
  62   34   63 1
  63   35   36 1
  64   35   40 1
  65   36   37 1
  66   36   64 1
  67   36   65 1
  68   37   38 1
  69   37   66 1
  70   37   67 1
  71   38   39 1
  72   38   68 1
  73   39   40 1
  74   39   69 1
  75   39   70 1
  76   40   71 1
  77   40   72 1

#	End of record

