#	Name: ASD04882158
#	Creating user name:	WinNT
#	Creation time:	15. 06. 2019 20:54

#	Modifying user name:	WinNT
#	Modification time:	15. 06. 2019 20:54

#	Program:	/corina/corina34_cracker 3.40 0067  02.08.2006

@<TRIPOS>MOLECULE
ASD04882158
  72   76    0    0    0
SMALL
NO_CHARGES


@<TRIPOS>ATOM
   1 C1             0.1693     1.1599    -0.9399 C.2     
   2 C2             0.1007    -0.1097    -0.4419 C.2     
   3 C3            -1.0734    -0.9874    -0.4786 C.2     
   4 N4            -1.0067    -2.2246     0.0519 N.am    
   5 C5            -2.1586    -3.0186     0.1244 C.ar    
   6 C6            -2.0624    -4.4055    -0.0200 C.ar    
   7 C7            -3.2047    -5.1946     0.0517 C.ar    
   8 C8            -4.4348    -4.6131     0.2649 C.ar    
   9 C9            -4.5382    -3.2268     0.4097 C.ar    
  10 C10           -3.3905    -2.4318     0.3446 C.ar    
  11 N11           -0.8208    -4.9975    -0.2366 N.3     
  12 C12           -0.2710    -4.6057    -1.5419 C.3     
  13 C13           -0.9076    -6.4600    -0.1224 C.3     
  14 C14            0.4882    -7.0657    -0.2876 C.3     
  15 N15            1.0380    -6.6739    -1.5930 N.3     
  16 C16            1.1248    -5.2114    -1.7071 C.3     
  17 C17            2.2834    -7.2678    -1.8102 C.ar    
  18 C18            2.4719    -8.1122    -2.8967 C.ar    
  19 C19            3.3381    -7.0107    -0.9431 C.ar    
  20 C20            4.5680    -7.5994    -1.1607 C.ar    
  21 C21            4.7508    -8.4439    -2.2407 C.ar    
  22 C22            3.7048    -8.6978    -3.1085 C.ar    
  23 C23           -5.8561    -2.6042     0.6376 C.2     
  24 N24           -6.9614    -3.3723     0.7061 N.am    
  25 O25           -5.9451    -1.3981     0.7635 O.2     
  26 O26           -2.1081    -0.5986    -0.9881 O.2     
  27 C27            1.3324    -8.3895    -3.8431 C.3     
  28 C28           -8.2702    -2.7540     0.9324 C.3     
  29 C29           -9.3479    -3.8395     0.9673 C.3     
  30 C30          -10.7147    -3.1938     1.2035 C.3     
  31 C31          -11.7761    -4.2630     1.2379 C.ar    
  32 C32          -12.1255    -4.8782     2.4303 C.ar    
  33 C33            1.4711     1.6216    -0.6902 C.2     
  34 C34            2.1318     0.6262    -0.0587 C.2     
  35 O35            1.3027    -0.4154     0.0891 O.3     
  36 C36          -12.4306    -4.6509     0.0788 C.ar    
  37 C37          -13.3986    -5.6348     0.1490 C.ar    
  38 N38          -13.7016    -6.2020     1.3003 N.ar    
  39 C39          -13.1034    -5.8547     2.4231 C.ar    
  40 H40           -0.6231     1.7021    -1.4344 H       
  41 H41           -0.1611    -2.5652     0.3834 H       
  42 H42           -3.1273    -6.2660    -0.0603 H       
  43 H43           -5.3204    -5.2289     0.3197 H       
  44 H44           -3.4673    -1.3603     0.4562 H       
  45 H45           -0.9224    -4.9716    -2.3355 H       
  46 H46           -0.2048    -3.5191    -1.5973 H       
  47 H47           -1.3055    -6.7254     0.8570 H       
  48 H48           -1.5663    -6.8470    -0.8999 H       
  49 H49            1.1397    -6.6998     0.5060 H       
  50 H50            0.4220    -8.1523    -0.2322 H       
  51 H51            1.5228    -4.9461    -2.6866 H       
  52 H52            1.7835    -4.8244    -0.9296 H       
  53 H53            3.1962    -6.3507    -0.1000 H       
  54 H54            5.3882    -7.4000    -0.4871 H       
  55 H55            5.7140    -8.9026    -2.4090 H       
  56 H56            3.8509    -9.3578    -3.9508 H       
  57 H57           -6.8904    -4.3345     0.6057 H       
  58 H58            1.3400    -7.6531    -4.6466 H       
  59 H59            1.4451    -9.3884    -4.2647 H       
  60 H60            0.3879    -8.3277    -3.3026 H       
  61 H61           -8.2607    -2.2208     1.8830 H       
  62 H62           -8.4857    -2.0539     0.1252 H       
  63 H63           -9.3574    -4.3728     0.0166 H       
  64 H64           -9.1323    -4.5397     1.7744 H       
  65 H65          -10.7051    -2.6606     2.1542 H       
  66 H66          -10.9302    -2.4937     0.3964 H       
  67 H67          -11.6392    -4.5982     3.3531 H       
  68 H68            1.8700     2.5900    -0.9537 H       
  69 H69            3.1590     0.6643     0.2726 H       
  70 H70          -12.1874    -4.1896    -0.8670 H       
  71 H71          -13.9130    -5.9426    -0.7494 H       
  72 H72          -13.3783    -6.3418     3.3470 H       
@<TRIPOS>BOND
   1    1    2 2
   2    1   33 1
   3    1   40 1
   4    2    3 1
   5    2   35 1
   6    3    4 am
   7    3   26 2
   8    4    5 1
   9    4   41 1
  10    5    6 ar
  11    5   10 ar
  12    6    7 ar
  13    6   11 1
  14    7    8 ar
  15    7   42 1
  16    8    9 ar
  17    8   43 1
  18    9   10 ar
  19    9   23 1
  20   10   44 1
  21   11   12 1
  22   11   13 1
  23   12   16 1
  24   12   45 1
  25   12   46 1
  26   13   14 1
  27   13   47 1
  28   13   48 1
  29   14   15 1
  30   14   49 1
  31   14   50 1
  32   15   16 1
  33   15   17 1
  34   16   51 1
  35   16   52 1
  36   17   18 ar
  37   17   19 ar
  38   18   27 1
  39   18   22 ar
  40   19   20 ar
  41   19   53 1
  42   20   21 ar
  43   20   54 1
  44   21   22 ar
  45   21   55 1
  46   22   56 1
  47   23   24 am
  48   23   25 2
  49   24   28 1
  50   24   57 1
  51   27   58 1
  52   27   59 1
  53   27   60 1
  54   28   29 1
  55   28   61 1
  56   28   62 1
  57   29   30 1
  58   29   63 1
  59   29   64 1
  60   30   31 1
  61   30   65 1
  62   30   66 1
  63   31   32 ar
  64   31   36 ar
  65   32   39 ar
  66   32   67 1
  67   33   34 2
  68   33   68 1
  69   34   35 1
  70   34   69 1
  71   36   37 ar
  72   36   70 1
  73   37   38 ar
  74   37   71 1
  75   38   39 ar
  76   39   72 1

#	End of record

