#	Name: ASD00840143
#	Creating user name:	WinNT
#	Creation time:	15. 06. 2019 18:37

#	Modifying user name:	WinNT
#	Modification time:	15. 06. 2019 18:37

#	Program:	/corina/corina34_cracker 3.40 0067  02.08.2006

@<TRIPOS>MOLECULE
ASD00840143
  34   36    0    0    0
SMALL
NO_CHARGES


@<TRIPOS>ATOM
   1 N1            -0.0161     1.3391     0.0094 N.am    
   2 C2             0.0021    -0.0041     0.0020 C.2     
   3 C3             1.4545    -0.4308    -0.0141 C.3     
   4 C4             2.2193     0.8733    -0.0144 C.ar    
   5 C5             3.5599     1.1658    -0.0256 C.ar    
   6 C6             3.9812     2.4999    -0.0225 C.ar    
   7 C7             3.0260     3.5240    -0.0079 C.ar    
   8 C8             1.6825     3.2173     0.0033 C.ar    
   9 C9             1.2639     1.8862     0.0001 C.ar    
  10 C10            5.3778     2.8158    -0.0337 C.1     
  11 N11            6.4858     3.0665    -0.0425 N.1     
  12 O12           -0.9639    -0.7374     0.0077 O.2     
  13 F13            3.4225     4.8155    -0.0043 F       
  14 C14            1.6038    -0.6900     2.4825 C.ar    
  15 C15            1.7824    -1.2353     1.2173 C.ar    
  16 C16            2.2651    -2.5271     1.1029 C.ar    
  17 C17            2.5535    -3.2314     2.2640 C.ar    
  18 C18            2.3517    -2.6267     3.4884 C.ar    
  19 N19            1.8900    -1.3928     3.5656 N.ar    
  20 O20            1.1366     0.5775     2.6080 O.3     
  21 C21            0.9746     1.0807     3.9356 C.3     
  22 C22            0.4426     2.5140     3.8764 C.3     
  23 Cl23           1.8186    -1.3773    -1.5049 Cl      
  24 H24           -0.8293     1.8680     0.0162 H       
  25 H25            4.2880     0.3682    -0.0365 H       
  26 H26            0.9502     4.0110     0.0149 H       
  27 H27            2.4137    -2.9772     0.1325 H       
  28 H28            2.9313    -4.2417     2.2099 H       
  29 H29            2.5741    -3.1704     4.3947 H       
  30 H30            0.2680     0.4530     4.4785 H       
  31 H31            1.9369     1.0712     4.4477 H       
  32 H32            0.3191     2.8979     4.8891 H       
  33 H33            1.1492     3.1418     3.3336 H       
  34 H34           -0.5196     2.5235     3.3644 H       
@<TRIPOS>BOND
   1    1    2 am
   2    1    9 1
   3    1   24 1
   4    2    3 1
   5    2   12 2
   6    3    4 1
   7    3   15 1
   8    3   23 1
   9    4    5 ar
  10    4    9 ar
  11    5    6 ar
  12    5   25 1
  13    6    7 ar
  14    6   10 1
  15    7    8 ar
  16    7   13 1
  17    8    9 ar
  18    8   26 1
  19   10   11 3
  20   14   15 ar
  21   14   19 ar
  22   14   20 1
  23   15   16 ar
  24   16   17 ar
  25   16   27 1
  26   17   18 ar
  27   17   28 1
  28   18   19 ar
  29   18   29 1
  30   20   21 1
  31   21   22 1
  32   21   30 1
  33   21   31 1
  34   22   32 1
  35   22   33 1
  36   22   34 1

#	End of record

