#	Name: ASD04880205
#	Creating user name:	WinNT
#	Creation time:	15. 06. 2019 20:53

#	Modifying user name:	WinNT
#	Modification time:	15. 06. 2019 20:53

#	Program:	/corina/corina34_cracker 3.40 0067  02.08.2006

@<TRIPOS>MOLECULE
ASD04880205
  34   37    0    0    0
SMALL
NO_CHARGES


@<TRIPOS>ATOM
   1 C1            -0.0105     1.5405     0.0947 C.3     
   2 C2             0.0062     0.0004     0.0300 C.3     
   3 N3             1.4403    -0.3297     0.0243 N.am    
   4 N4             2.1752     0.8529     0.0782 N.2     
   5 C5             1.4528     1.9201     0.1190 C.2     
   6 C6             1.9729     3.2968     0.1794 C.ar    
   7 C7             1.9583    -1.5729    -0.0244 C.2     
   8 O8             1.2240    -2.5402     0.0358 O.2     
   9 C9             3.4187    -1.7605    -0.1510 C.ar    
  10 C10            4.2507    -0.6602    -0.3639 C.ar    
  11 C11            5.6136    -0.8408    -0.4810 C.ar    
  12 C12            6.1574    -2.1091    -0.3878 C.ar    
  13 C13            5.3380    -3.2068    -0.1765 C.ar    
  14 C14            3.9724    -3.0383    -0.0523 C.ar    
  15 F15            5.8761    -4.4427    -0.0865 F       
  16 C16            3.3383     3.4953     0.1956 C.ar    
  17 C17            3.8513     4.8012     0.2525 C.ar    
  18 C18            2.9001     5.9410     0.2941 C.ar    
  19 C19            1.4742     5.6597     0.2737 C.ar    
  20 C20            1.0578     4.3735     0.2132 C.ar    
  21 N21            5.0184     5.3988     0.2845 N.2     
  22 O22            4.8472     6.6005     0.3333 O.3     
  23 N23            3.6933     6.9802     0.3421 N.2     
  24 H24           -0.4984     1.9549    -0.7875 H       
  25 H25           -0.5086     1.8796     1.0030 H       
  26 H26           -0.4819    -0.4256     0.9066 H       
  27 H27           -0.4717    -0.3503    -0.8847 H       
  28 H28            3.8283     0.3311    -0.4374 H       
  29 H29            6.2575     0.0104    -0.6461 H       
  30 H30            7.2248    -2.2447    -0.4805 H       
  31 H31            3.3340    -3.8937     0.1123 H       
  32 H32            4.0096     2.6498     0.1649 H       
  33 H33            0.7567     6.4664     0.3029 H       
  34 H34           -0.0015     4.1639     0.1977 H       
@<TRIPOS>BOND
   1    1    2 1
   2    1    5 1
   3    1   24 1
   4    1   25 1
   5    2    3 1
   6    2   26 1
   7    2   27 1
   8    3    4 1
   9    3    7 am
  10    4    5 2
  11    5    6 1
  12    6   16 ar
  13    6   20 ar
  14    7    8 2
  15    7    9 1
  16    9   10 ar
  17    9   14 ar
  18   10   11 ar
  19   10   28 1
  20   11   12 ar
  21   11   29 1
  22   12   13 ar
  23   12   30 1
  24   13   14 ar
  25   13   15 1
  26   14   31 1
  27   16   17 ar
  28   16   32 1
  29   17   18 ar
  30   17   21 2
  31   18   19 ar
  32   18   23 2
  33   19   20 ar
  34   19   33 1
  35   20   34 1
  36   21   22 1
  37   22   23 1

#	End of record

