#	Name: ASD00069290
#	Creating user name:	WinNT
#	Creation time:	15. 06. 2019 18:29

#	Modifying user name:	WinNT
#	Modification time:	15. 06. 2019 18:29

#	Program:	/corina/corina34_cracker 3.40 0067  02.08.2006

@<TRIPOS>MOLECULE
ASD00069290
  78   80    0    0    0
SMALL
NO_CHARGES


@<TRIPOS>ATOM
   1 C1            -0.0162     1.3436     0.0094 C.2     
   2 N2             0.0021    -0.0041     0.0020 N.am    
   3 O3             1.0277     1.9654     0.0028 O.2     
   4 O4            -1.1912     2.0008     0.0186 O.3     
   5 C5            -1.2565    -0.7538     0.0100 C.3     
   6 N6             2.7231    -3.2207    -0.0371 N.3     
   7 C7             2.6964    -2.3956     1.1773 C.3     
   8 C8             1.3868    -1.6055     1.2301 C.3     
   9 C9             1.2806    -0.7192    -0.0140 C.3     
  10 C10            1.3596    -1.5981    -1.2654 C.3     
  11 C11            2.6700    -2.3884    -1.2458 C.3     
  12 C12            3.8472    -4.0558    -0.0519 C.ar    
  13 C13            3.6861    -5.4414    -0.0986 C.ar    
  14 C14            4.7980    -6.2658    -0.1136 C.ar    
  15 C15            6.0753    -5.7095    -0.0819 C.ar    
  16 C16            6.2304    -4.3264    -0.0353 C.ar    
  17 C17            5.1198    -3.5053    -0.0258 C.ar    
  18 N18            9.3453    -7.2896    -0.0964 N.pl3   
  19 N19            8.5060    -8.4093    -0.1423 N.2     
  20 C20            7.2654    -7.9985    -0.1432 C.2     
  21 C21            7.2703    -6.5910    -0.0974 C.2     
  22 C22            8.5721    -6.1845    -0.0693 C.2     
  23 C23           10.8099    -7.3141    -0.0750 C.3     
  24 O24           11.3080    -5.9755    -0.0271 O.3     
  25 C25           12.7340    -5.8866    -0.0028 C.3     
  26 C26           13.1525    -4.4158     0.0478 C.3     
  27 Si27          15.0116    -4.2998     0.0795 Si      
  28 C28           15.7094    -5.0914    -1.4558 C.3     
  29 C29           15.5211    -2.5089     0.1412 C.3     
  30 C30           15.6634    -5.1831     1.5847 C.3     
  31 N31            2.4012    -5.9969    -0.1299 N.pl3   
  32 C32           -1.1349     3.4517     0.0262 C.3     
  33 C33           -0.4003     3.9401    -1.2239 C.3     
  34 C34           -2.5565     4.0172     0.0360 C.3     
  35 C35           -0.3885     3.9266     1.2745 C.3     
  36 H36           -1.5785    -0.9342    -1.0156 H       
  37 H37           -1.1084    -1.7071     0.5173 H       
  38 H38           -2.0192    -0.1778     0.5342 H       
  39 H39            2.7684    -3.0383     2.0547 H       
  40 H40            3.5380    -1.7031     1.1645 H       
  41 H41            0.5451    -2.2975     1.2568 H       
  42 H42            1.3741    -0.9814     2.1236 H       
  43 H43            2.1000    -0.0004    -0.0203 H       
  44 H44            0.5175    -2.2900    -1.2779 H       
  45 H45            1.3274    -0.9687    -2.1547 H       
  46 H46            3.5117    -1.6960    -1.2473 H       
  47 H47            2.7228    -3.0259    -2.1284 H       
  48 H48            4.6759    -7.3383    -0.1494 H       
  49 H49            7.2202    -3.8951    -0.0104 H       
  50 H50            5.2426    -2.4328     0.0059 H       
  51 H51            6.3889    -8.6288    -0.1736 H       
  52 H52            8.9206    -5.1630    -0.0316 H       
  53 H53           11.1513    -7.8605     0.8042 H       
  54 H54           11.1782    -7.8068    -0.9747 H       
  55 H55           13.1154    -6.4034     0.8779 H       
  56 H56           13.1423    -6.3497    -0.9011 H       
  57 H57           12.7711    -3.8990    -0.8328 H       
  58 H58           12.7442    -3.9526     0.9461 H       
  59 H59           15.3280    -4.5746    -2.3365 H       
  60 H60           16.7971    -5.0236    -1.4373 H       
  61 H61           15.4113    -6.1393    -1.4919 H       
  62 H62           15.1129    -2.0457     1.0394 H       
  63 H63           16.6089    -2.4410     0.1597 H       
  64 H64           15.1398    -1.9921    -0.7395 H       
  65 H65           15.3653    -6.2309     1.5486 H       
  66 H66           16.7511    -5.1152     1.6032 H       
  67 H67           15.2551    -4.7199     2.4830 H       
  68 H68            1.6224    -5.4187    -0.1190 H       
  69 H69            2.2898    -6.9600    -0.1624 H       
  70 H70           -0.9321     3.6018    -2.1132 H       
  71 H71           -0.3581     5.0293    -1.2182 H       
  72 H72            0.6125     3.5373    -1.2309 H       
  73 H73           -3.0798     3.6692     0.9266 H       
  74 H74           -2.5142     5.1064     0.0417 H       
  75 H75           -3.0883     3.6789    -0.8533 H       
  76 H76            0.6243     3.5237     1.2675 H       
  77 H77           -0.3462     5.0157     1.2802 H       
  78 H78           -0.9118     3.5786     2.1651 H       
@<TRIPOS>BOND
   1    1    2 am
   2    1    3 2
   3    1    4 1
   4    2    5 1
   5    2    9 1
   6    4   32 1
   7    5   36 1
   8    5   37 1
   9    5   38 1
  10    6    7 1
  11    6   11 1
  12    6   12 1
  13    7    8 1
  14    7   39 1
  15    7   40 1
  16    8    9 1
  17    8   41 1
  18    8   42 1
  19    9   10 1
  20    9   43 1
  21   10   11 1
  22   10   44 1
  23   10   45 1
  24   11   46 1
  25   11   47 1
  26   12   13 ar
  27   12   17 ar
  28   13   14 ar
  29   13   31 1
  30   14   15 ar
  31   14   48 1
  32   15   16 ar
  33   15   21 1
  34   16   17 ar
  35   16   49 1
  36   17   50 1
  37   18   19 1
  38   18   22 1
  39   18   23 1
  40   19   20 2
  41   20   21 1
  42   20   51 1
  43   21   22 2
  44   22   52 1
  45   23   24 1
  46   23   53 1
  47   23   54 1
  48   24   25 1
  49   25   26 1
  50   25   55 1
  51   25   56 1
  52   26   27 1
  53   26   57 1
  54   26   58 1
  55   27   28 1
  56   27   29 1
  57   27   30 1
  58   28   59 1
  59   28   60 1
  60   28   61 1
  61   29   62 1
  62   29   63 1
  63   29   64 1
  64   30   65 1
  65   30   66 1
  66   30   67 1
  67   31   68 1
  68   31   69 1
  69   32   33 1
  70   32   35 1
  71   32   34 1
  72   33   70 1
  73   33   71 1
  74   33   72 1
  75   34   73 1
  76   34   74 1
  77   34   75 1
  78   35   76 1
  79   35   77 1
  80   35   78 1

#	End of record

