#	Name: ASD01870658
#	Creating user name:	WinNT
#	Creation time:	15. 06. 2019 19:39

#	Modifying user name:	WinNT
#	Modification time:	15. 06. 2019 19:39

#	Program:	/corina/corina34_cracker 3.40 0067  02.08.2006

@<TRIPOS>MOLECULE
ASD01870658
  43   46    0    0    0
SMALL
NO_CHARGES


@<TRIPOS>ATOM
   1 C1            -0.0206     1.3962    -0.0117 C.ar    
   2 N2             0.0005    -0.0032    -0.0088 N.am    
   3 C3            -1.1504    -0.6943     0.1111 C.2     
   4 C4            -1.1436    -2.1656    -0.0077 C.ar    
   5 C5             0.0584    -4.2167    -0.3489 C.ar    
   6 C6             0.0559    -2.8441    -0.2387 C.ar    
   7 C7            -2.3359    -2.8837     0.1163 C.ar    
   8 C8            -2.3257    -4.2563     0.0048 C.ar    
   9 C9            -1.1309    -4.9276    -0.2307 C.ar    
  10 N10           -1.1246    -6.3211    -0.3437 N.am    
  11 C11           -0.5933    -8.5529     0.0454 C.3     
  12 C12           -0.3603    -7.1068     0.4249 C.2     
  13 C13           -1.8866    -6.9799    -1.2255 C.2     
  14 C14           -1.6388    -8.4660    -1.0851 C.3     
  15 C15           -1.9905    -9.1452     0.2400 C.3     
  16 C16           -2.1164   -10.6701     0.2392 C.3     
  17 C17           -2.9452    -8.4061     1.1797 C.3     
  18 O18            0.3986    -6.7208     1.2878 O.2     
  19 O19           -2.6537    -6.4672    -2.0117 O.2     
  20 C20           -1.0837     2.0744    -0.5934 C.ar    
  21 C21           -1.1025     3.4554    -0.5952 C.ar    
  22 C22           -0.0623     4.1637    -0.0174 C.ar    
  23 C23            0.9990     3.4894     0.5628 C.ar    
  24 C24            1.0187     2.1085     0.5723 C.ar    
  25 O25           -2.1943    -0.1057     0.3170 O.2     
  26 H26            0.2750    -9.2094    -0.0114 H       
  27 H27           -1.5597    -9.0563    -1.9980 H       
  28 F28           -0.0826     5.5145    -0.0202 F       
  29 H29            0.8434    -0.4757    -0.0930 H       
  30 H30            0.9851    -4.7417    -0.5278 H       
  31 H31            0.9799    -2.2926    -0.3309 H       
  32 H32           -3.2641    -2.3630     0.2996 H       
  33 H33           -3.2468    -4.8120     0.1009 H       
  34 H34           -1.5122   -11.0849     1.0460 H       
  35 H35           -3.1599   -10.9486     0.3866 H       
  36 H36           -1.7668   -11.0630    -0.7155 H       
  37 H37           -3.1098    -7.3946     0.8084 H       
  38 H38           -3.8964    -8.9367     1.2223 H       
  39 H39           -2.5097    -8.3604     2.1779 H       
  40 H40           -1.8950     1.5223    -1.0444 H       
  41 H41           -1.9289     3.9832    -1.0478 H       
  42 H42            1.8094     4.0437     1.0125 H       
  43 H43            1.8465     1.5829     1.0250 H       
@<TRIPOS>BOND
   1    1    2 1
   2    1   20 ar
   3    1   24 ar
   4    2    3 am
   5    2   29 1
   6    3    4 1
   7    3   25 2
   8    4    7 ar
   9    4    6 ar
  10    5    6 ar
  11    5    9 ar
  12    5   30 1
  13    6   31 1
  14    7    8 ar
  15    7   32 1
  16    8    9 ar
  17    8   33 1
  18    9   10 1
  19   10   13 am
  20   10   12 am
  21   11   12 1
  22   11   14 1
  23   11   15 1
  24   11   26 1
  25   12   18 2
  26   13   14 1
  27   13   19 2
  28   14   27 1
  29   14   15 1
  30   15   16 1
  31   15   17 1
  32   16   34 1
  33   16   35 1
  34   16   36 1
  35   17   37 1
  36   17   38 1
  37   17   39 1
  38   20   21 ar
  39   20   40 1
  40   21   22 ar
  41   21   41 1
  42   22   23 ar
  43   22   28 1
  44   23   24 ar
  45   23   42 1
  46   24   43 1

#	End of record

