#	Name: ASD01883689
#	Creating user name:	WinNT
#	Creation time:	15. 06. 2019 19:46

#	Modifying user name:	WinNT
#	Modification time:	15. 06. 2019 19:46

#	Program:	/corina/corina34_cracker 3.40 0067  02.08.2006

@<TRIPOS>MOLECULE
ASD01883689
  53   56    0    0    0
SMALL
NO_CHARGES


@<TRIPOS>ATOM
   1 C1             0.0144     1.1635    -1.5510 C.2     
   2 C2             0.0351    -0.0659    -0.8768 C.2     
   3 C3            -1.1791    -0.6088    -0.4071 C.2     
   4 C4            -2.3460     0.0346    -0.5980 C.2     
   5 N5            -2.4118     1.2324    -1.2485 N.pl3   
   6 C6            -1.2763     1.8317    -1.7305 C.2     
   7 C7            -3.4593     2.0606    -1.5580 C.2     
   8 C8            -2.9468     3.1227    -2.2148 C.2     
   9 N9            -1.6221     2.9674    -2.3094 N.2     
  10 C10           -4.9111     1.8289    -1.2269 C.3     
  11 C11           -5.6075     1.1710    -2.4199 C.3     
  12 C12            1.3102    -0.7824    -0.6619 C.ar    
  13 C13            1.7976    -0.9711     0.6332 C.ar    
  14 C14            2.9861    -1.6398     0.8295 C.ar    
  15 C15            3.6997    -2.1262    -0.2591 C.ar    
  16 C16            3.2183    -1.9400    -1.5492 C.ar    
  17 C17            2.0277    -1.2774    -1.7532 C.ar    
  18 O18            4.8707    -2.7847    -0.0617 O.3     
  19 C19            6.0197    -2.0594    -0.0695 C.ar    
  20 C20            5.9677    -0.6761    -0.1664 C.ar    
  21 C21            7.1372     0.0589    -0.1736 C.ar    
  22 C22            8.3589    -0.5825    -0.0849 C.ar    
  23 C23            8.4136    -1.9608     0.0113 C.ar    
  24 C24            7.2468    -2.7002     0.0252 C.ar    
  25 F25           -4.9922    -0.0535    -2.7018 F       
  26 F26           -6.9552     0.9558    -2.1125 F       
  27 F27           -5.5117     2.0089    -3.5360 F       
  28 C28            9.6332     0.2220    -0.0935 C.3     
  29 O29            9.3900     1.5057     0.4851 O.3     
  30 C30           10.7035    -0.5093     0.7192 C.3     
  31 C31           10.1171     0.3955    -1.5346 C.3     
  32 C32            1.2227     1.7522    -2.0451 C.1     
  33 N33            2.1813     2.2192    -2.4371 N.1     
  34 H34           -1.1725    -1.5552     0.1132 H       
  35 H35           -3.2570    -0.4104    -0.2257 H       
  36 H36           -3.5120     3.9600    -2.5968 H       
  37 H37           -4.9857     1.1760    -0.3573 H       
  38 H38           -5.3904     2.7828    -1.0073 H       
  39 H39            1.2437    -0.5931     1.4798 H       
  40 H40            3.3638    -1.7858     1.8307 H       
  41 H41            3.7761    -2.3188    -2.3929 H       
  42 H42            1.6541    -1.1330    -2.7562 H       
  43 H43            5.0137    -0.1747    -0.2364 H       
  44 H44            7.0973     1.1356    -0.2490 H       
  45 H45            9.3691    -2.4594     0.0801 H       
  46 H46            7.2900    -3.7767     0.1003 H       
  47 H47            9.0799     1.4722     1.4004 H       
  48 H48           10.8891    -1.4885     0.2779 H       
  49 H49           11.6252     0.0726     0.7130 H       
  50 H50           10.3588    -0.6329     1.7459 H       
  51 H51            9.3546     0.9165    -2.1137 H       
  52 H52           11.0387     0.9774    -1.5409 H       
  53 H53           10.3026    -0.5837    -1.9760 H       
@<TRIPOS>BOND
   1    1    2 2
   2    1   32 1
   3    1    6 1
   4    2    3 1
   5    2   12 1
   6    3    4 2
   7    3   34 1
   8    4    5 1
   9    4   35 1
  10    5    6 1
  11    5    7 1
  12    6    9 2
  13    7    8 2
  14    7   10 1
  15    8    9 1
  16    8   36 1
  17   10   11 1
  18   10   37 1
  19   10   38 1
  20   11   25 1
  21   11   26 1
  22   11   27 1
  23   12   13 ar
  24   12   17 ar
  25   13   14 ar
  26   13   39 1
  27   14   15 ar
  28   14   40 1
  29   15   16 ar
  30   15   18 1
  31   16   17 ar
  32   16   41 1
  33   17   42 1
  34   18   19 1
  35   19   20 ar
  36   19   24 ar
  37   20   21 ar
  38   20   43 1
  39   21   22 ar
  40   21   44 1
  41   22   23 ar
  42   22   28 1
  43   23   24 ar
  44   23   45 1
  45   24   46 1
  46   28   29 1
  47   28   30 1
  48   28   31 1
  49   29   47 1
  50   30   48 1
  51   30   49 1
  52   30   50 1
  53   31   51 1
  54   31   52 1
  55   31   53 1
  56   32   33 3

#	End of record

