#	Name: ASD07300963
#	Creating user name:	WinNT
#	Creation time:	15. 06. 2019 21:10

#	Modifying user name:	WinNT
#	Modification time:	15. 06. 2019 21:10

#	Program:	/corina/corina34_cracker 3.40 0067  02.08.2006

@<TRIPOS>MOLECULE
ASD07300963
  46   50    0    0    0
SMALL
NO_CHARGES


@<TRIPOS>ATOM
   1 N1             0.1091     1.3381    -0.0150 N.am    
   2 C2             0.0638    -0.0154    -0.0984 C.2     
   3 N3             1.1276    -0.7551    -0.2134 N.2     
   4 C4             2.3593    -0.2233    -0.2586 C.2     
   5 C5             2.5063     1.1706    -0.1796 C.2     
   6 C6             1.2978     1.9847    -0.0502 C.2     
   7 N7             3.6106    -0.7394    -0.3715 N.pl3   
   8 N8             4.5262     0.3204    -0.3630 N.2     
   9 C9             3.8837     1.4501    -0.2502 C.2     
  10 O10            1.3589     3.1993     0.0225 O.2     
  11 C11            3.9453    -2.1613    -0.4827 C.3     
  12 C12            4.5633    -2.4340    -1.8555 C.3     
  13 C13            4.9128    -3.9190    -1.9716 C.3     
  14 C14            5.9146    -4.2942    -0.8777 C.3     
  15 C15            5.2966    -4.0215     0.4951 C.3     
  16 C16            4.9471    -2.5365     0.6112 C.3     
  17 C17           -1.2814    -0.6934    -0.0552 C.3     
  18 C18           -1.2970    -2.0747    -0.7308 C.3     
  19 C19           -2.1961    -2.5430     0.4256 C.3     
  20 C20           -1.5603    -1.4248     1.2685 C.3     
  21 F21            6.2342    -5.6521    -0.9838 F       
  22 F22            7.0761    -3.5287    -1.0266 F       
  23 C23           -0.3121    -1.8529     1.9963 C.2     
  24 C24            0.3314    -2.9901     1.7196 C.2     
  25 S25            1.7243    -3.1010     2.7928 S.3     
  26 C26            1.3035    -1.6062     3.5081 C.2     
  27 N27            0.2371    -1.1327     2.9547 N.2     
  28 Cl28           2.1859    -0.8334     4.7879 Cl      
  29 H29           -0.7141     1.8448     0.0661 H       
  30 H30            4.3322     2.4320    -0.2167 H       
  31 H31            3.0404    -2.7577    -0.3666 H       
  32 H32            3.8496    -2.1667    -2.6348 H       
  33 H33            5.4683    -1.8376    -1.9715 H       
  34 H34            4.0079    -4.5154    -1.8555 H       
  35 H35            5.3531    -4.1133    -2.9496 H       
  36 H36            4.3916    -4.6179     0.6112 H       
  37 H37            6.0103    -4.2888     1.2744 H       
  38 H38            5.8520    -1.9401     0.4952 H       
  39 H39            4.5068    -2.3423     1.5893 H       
  40 H40           -2.0943    -0.0416    -0.3751 H       
  41 H41           -1.7945    -2.0808    -1.7007 H       
  42 H42           -0.3222    -2.5620    -0.7509 H       
  43 H43           -3.2599    -2.3974     0.2382 H       
  44 H44           -1.9615    -3.5458     0.7825 H       
  45 H45           -2.2704    -0.9062     1.9127 H       
  46 H46            0.0479    -3.7141     0.9701 H       
@<TRIPOS>BOND
   1    1    2 1
   2    1    6 am
   3    1   29 1
   4    2    3 2
   5    2   17 1
   6    3    4 1
   7    4    5 2
   8    4    7 1
   9    5    6 1
  10    5    9 1
  11    6   10 2
  12    7    8 1
  13    7   11 1
  14    8    9 2
  15    9   30 1
  16   11   12 1
  17   11   16 1
  18   11   31 1
  19   12   13 1
  20   12   32 1
  21   12   33 1
  22   13   14 1
  23   13   34 1
  24   13   35 1
  25   14   15 1
  26   14   21 1
  27   14   22 1
  28   15   16 1
  29   15   36 1
  30   15   37 1
  31   16   38 1
  32   16   39 1
  33   17   18 1
  34   17   20 1
  35   17   40 1
  36   18   19 1
  37   18   41 1
  38   18   42 1
  39   19   20 1
  40   19   43 1
  41   19   44 1
  42   20   23 1
  43   20   45 1
  44   23   24 2
  45   23   27 1
  46   24   25 1
  47   24   46 1
  48   25   26 1
  49   26   27 2
  50   26   28 1

#	End of record

