#	Name: ASD08150316
#	Creating user name:	WinNT
#	Creation time:	15. 06. 2019 21:15

#	Modifying user name:	WinNT
#	Modification time:	15. 06. 2019 21:15

#	Program:	/corina/corina34_cracker 3.40 0067  02.08.2006

@<TRIPOS>MOLECULE
ASD08150316
  84   91    0    0    0
SMALL
NO_CHARGES


@<TRIPOS>ATOM
   1 N1             0.0079     1.3831     0.1470 N.am    
   2 C2             0.1800     0.2997     0.9291 C.2     
   3 C3             1.4007    -0.4053     0.9304 C.2     
   4 C4             2.4251     0.0010     0.1380 C.2     
   5 C5             2.2475     1.1401    -0.6865 C.ar    
   6 C6             3.2775     1.6032    -1.5274 C.ar    
   7 N7             3.1108     2.6541    -2.2872 N.ar    
   8 C8             1.9621     3.3468    -2.3118 C.ar    
   9 C9             0.8716     2.9525    -1.4980 C.ar    
  10 C10            1.0199     1.8197    -0.6638 C.ar    
  11 C11           -0.3211     3.6815    -1.5306 C.ar    
  12 C12           -0.4234     4.7854    -2.3616 C.ar    
  13 C13            0.6601     5.1696    -3.1641 C.ar    
  14 C14            1.8264     4.4707    -3.1434 C.ar    
  15 O15           -0.7322    -0.0758     1.6456 O.2     
  16 C16           -1.6851     5.5640    -2.4027 C.ar    
  17 C17           -1.2145     2.0622     0.1597 C.ar    
  18 C18           -1.3026     3.3213     0.7429 C.ar    
  19 C19           -2.5055     3.9932     0.7566 C.ar    
  20 C20           -3.6367     3.4083     0.1840 C.ar    
  21 C21           -3.5449     2.1441    -0.4007 C.ar    
  22 C22           -2.3376     1.4795    -0.4158 C.ar    
  23 C23           -4.9282     4.1258     0.1973 C.2     
  24 C24           -2.8228     5.1033    -1.7212 C.ar    
  25 C25           -5.5412     4.3040    -0.9485 C.2     
  26 C26           -6.8505     5.0306    -1.0830 C.3     
  27 N27           -7.4214     5.2474     0.2540 N.am    
  28 C28           -6.5041     5.6934     1.3169 C.3     
  29 C29           -5.4536     4.5964     1.5210 C.3     
  30 N30           -3.9492     5.7697    -1.7397 N.ar    
  31 C31           -4.0727     6.9215    -2.4078 C.ar    
  32 C32           -2.9685     7.4526    -3.1210 C.ar    
  33 C33           -1.7480     6.7558    -3.1102 C.ar    
  34 C34           -8.7317     5.0467     0.4976 C.2     
  35 O35           -9.1771     5.2330     1.6101 O.2     
  36 C36           -9.6433     4.5906    -0.6124 C.3     
  37 C37          -11.0688     4.4397    -0.0744 C.3     
  38 C38           -5.2911     7.6228    -2.4164 C.ar    
  39 C39           -5.3931     8.7930    -3.1039 C.ar    
  40 C40           -4.3066     9.3131    -3.8046 C.ar    
  41 C41           -3.1104     8.6633    -3.8201 C.ar    
  42 C42          -12.0007     4.0356    -1.2191 C.3     
  43 N43          -11.9609     5.0609    -2.2696 N.3     
  44 C44          -10.6115     5.1903    -2.8343 C.3     
  45 C45           -9.6381     5.6289    -1.7379 C.3     
  46 C46          -12.9465     4.7759    -3.3210 C.3     
  47 C47           -4.7635     1.5089    -1.0194 C.3     
  48 F48           -4.4237     0.2539    -1.5359 F       
  49 F49           -5.7565     1.3591    -0.0454 F       
  50 F50           -5.2413     2.3240    -2.0510 F       
  51 H51            1.5213    -1.2713     1.5643 H       
  52 H52            3.3623    -0.5359     0.1360 H       
  53 H53            4.2228     1.0811    -1.5447 H       
  54 H54           -1.1564     3.3861    -0.9130 H       
  55 H55            0.5670     6.0319    -3.8077 H       
  56 H56            2.6510     4.7807    -3.7682 H       
  57 H57           -0.4274     3.7730     1.1859 H       
  58 H58           -2.5733     4.9710     1.2100 H       
  59 H59           -2.2650     0.5031    -0.8717 H       
  60 H60           -2.7674     4.1769    -1.1689 H       
  61 H61           -5.0811     3.9084    -1.8419 H       
  62 H62           -6.6852     5.9922    -1.5689 H       
  63 H63           -7.5389     4.4330    -1.6806 H       
  64 H64           -6.0187     6.6227     1.0188 H       
  65 H65           -7.0592     5.8472     2.2422 H       
  66 H66           -5.9050     3.7598     2.0544 H       
  67 H67           -4.6279     4.9934     2.1115 H       
  68 H68           -0.8873     7.1329    -3.6426 H       
  69 H69           -9.2961     3.6321    -0.9982 H       
  70 H70          -11.0868     3.6709     0.6981 H       
  71 H71          -11.4009     5.3883     0.3476 H       
  72 H72           -6.1436     7.2340    -1.8794 H       
  73 H73           -6.3317     9.3272    -3.1067 H       
  74 H74           -4.4149    10.2435    -4.3421 H       
  75 H75           -2.2753     9.0760    -4.3666 H       
  76 H76          -11.6763     3.0802    -1.6315 H       
  77 H77          -13.0192     3.9412    -0.8422 H       
  78 H78          -10.2936     4.2295    -3.2392 H       
  79 H79          -10.6209     5.9345    -3.6306 H       
  80 H80           -9.9477     6.5961    -1.3421 H       
  81 H81           -8.6339     5.7097    -2.1538 H       
  82 H82          -13.9462     4.7590    -2.8869 H       
  83 H83          -12.8957     5.5505    -4.0862 H       
  84 H84          -12.7289     3.8068    -3.7700 H       
@<TRIPOS>BOND
   1    1    2 am
   2    1   10 1
   3    1   17 1
   4    2    3 1
   5    2   15 2
   6    3    4 2
   7    3   51 1
   8    4    5 1
   9    4   52 1
  10    5    6 ar
  11    5   10 ar
  12    6    7 ar
  13    6   53 1
  14    7    8 ar
  15    8    9 ar
  16    8   14 ar
  17    9   10 ar
  18    9   11 ar
  19   11   12 ar
  20   11   54 1
  21   12   13 ar
  22   12   16 1
  23   13   14 ar
  24   13   55 1
  25   14   56 1
  26   16   24 ar
  27   16   33 ar
  28   17   18 ar
  29   17   22 ar
  30   18   19 ar
  31   18   57 1
  32   19   20 ar
  33   19   58 1
  34   20   21 ar
  35   20   23 1
  36   21   22 ar
  37   21   47 1
  38   22   59 1
  39   23   25 2
  40   23   29 1
  41   24   30 ar
  42   24   60 1
  43   25   26 1
  44   25   61 1
  45   26   27 1
  46   26   62 1
  47   26   63 1
  48   27   28 1
  49   27   34 am
  50   28   29 1
  51   28   64 1
  52   28   65 1
  53   29   66 1
  54   29   67 1
  55   30   31 ar
  56   31   32 ar
  57   31   38 ar
  58   32   33 ar
  59   32   41 ar
  60   33   68 1
  61   34   35 2
  62   34   36 1
  63   36   37 1
  64   36   45 1
  65   36   69 1
  66   37   42 1
  67   37   70 1
  68   37   71 1
  69   38   39 ar
  70   38   72 1
  71   39   40 ar
  72   39   73 1
  73   40   41 ar
  74   40   74 1
  75   41   75 1
  76   42   43 1
  77   42   76 1
  78   42   77 1
  79   43   44 1
  80   43   46 1
  81   44   45 1
  82   44   78 1
  83   44   79 1
  84   45   80 1
  85   45   81 1
  86   46   82 1
  87   46   83 1
  88   46   84 1
  89   47   48 1
  90   47   49 1
  91   47   50 1

#	End of record

