#	Name: ASD03331047
#	Creating user name:	WinNT
#	Creation time:	15. 06. 2019 20:38

#	Modifying user name:	WinNT
#	Modification time:	15. 06. 2019 20:38

#	Program:	/corina/corina34_cracker 3.40 0067  02.08.2006

@<TRIPOS>MOLECULE
ASD03331047
  64   67    0    0    0
SMALL
NO_CHARGES


@<TRIPOS>ATOM
   1 N1            -0.8740     1.7431    -0.4496 N.pl3   
   2 C2            -0.6930     0.4227    -0.1807 C.2     
   3 C3             0.6227    -0.2342     0.1462 C.3     
   4 N4             1.3234     0.5685     1.1607 N.3     
   5 C5             2.1592     1.5971     0.5386 C.3     
   6 C6             1.5207     2.1155    -0.7468 C.3     
   7 C7             0.1728     2.7687    -0.4293 C.3     
   8 C8            -2.1978     1.9263    -0.7251 C.2     
   9 N9            -2.8125     0.7721    -0.6136 N.2     
  10 C10           -1.9119    -0.1768    -0.2757 C.2     
  11 C11           -2.1977    -1.6047    -0.0507 C.2     
  12 O12           -1.2974    -2.3650     0.2505 O.2     
  13 N13           -3.4567    -2.0684    -0.1787 N.am    
  14 C14            2.1177    -0.2870     2.0524 C.3     
  15 C15           -4.9828    -3.8776    -0.7144 C.2     
  16 C16           -3.7408    -3.4881     0.0450 C.3     
  17 C17           -3.9579    -3.7355     1.5391 C.3     
  18 C18           -4.3883    -5.1872     1.7584 C.3     
  19 O19           -5.8612    -3.0620    -0.8995 O.2     
  20 C20           -2.6543    -3.4703     2.2948 C.3     
  21 C21           -5.0485    -2.7963     2.0584 C.3     
  22 N22           -5.1174    -5.1322    -1.1880 N.am    
  23 C23           -6.1700    -5.8988    -1.8715 C.3     
  24 C24           -5.5649    -7.1705    -1.2611 C.3     
  25 C25           -4.2741    -6.3352    -1.2544 C.3     
  26 F26           -6.0556    -7.4860     0.0105 F       
  27 C27           -2.8339     3.2112    -1.0883 C.ar    
  28 C28           -3.7093     3.2784    -2.1756 C.ar    
  29 C29           -4.3004     4.4824    -2.5089 C.ar    
  30 C30           -4.0269     5.6183    -1.7690 C.ar    
  31 C31           -3.1601     5.5578    -0.6910 C.ar    
  32 C32           -2.5671     4.3600    -0.3437 C.ar    
  33 F33           -3.9767     2.1693    -2.8993 F       
  34 Cl34          -2.8229     6.9900     0.2303 Cl      
  35 H35            0.4429    -1.2364     0.5350 H       
  36 H36            1.2329    -0.2958    -0.7549 H       
  37 H37            2.2853     2.4258     1.2354 H       
  38 H38            3.1363     1.1730     0.3073 H       
  39 H39            2.1800     2.8508    -1.2080 H       
  40 H40            1.3675     1.2850    -1.4359 H       
  41 H41           -0.0484     3.5301    -1.1773 H       
  42 H42            0.2141     3.2278     0.5585 H       
  43 H43           -4.1747    -1.4621    -0.4189 H       
  44 H44            2.8096    -0.8859     1.4601 H       
  45 H45            2.6800     0.3361     2.7479 H       
  46 H46            1.4530    -0.9461     2.6108 H       
  47 H47           -2.8990    -4.0864    -0.3038 H       
  48 H48           -3.5993    -5.8560     1.4144 H       
  49 H49           -4.5704    -5.3558     2.8198 H       
  50 H50           -5.3018    -5.3841     1.1973 H       
  51 H51           -2.3477    -2.4360     2.1386 H       
  52 H52           -2.8090    -3.6466     3.3592 H       
  53 H53           -1.8774    -4.1394     1.9249 H       
  54 H54           -5.9772    -2.9852     1.5200 H       
  55 H55           -5.2032    -2.9725     3.1228 H       
  56 H56           -4.7419    -1.7620     1.9021 H       
  57 H57           -7.1736    -5.6778    -1.5079 H       
  58 H58           -6.0974    -5.8620    -2.9585 H       
  59 H59           -5.5394    -8.0234    -1.9394 H       
  60 H60           -3.7016    -6.4135    -2.1786 H       
  61 H61           -3.6623    -6.4860    -0.3650 H       
  62 H62           -4.9769     4.5364    -3.3490 H       
  63 H63           -4.4913     6.5568    -2.0334 H       
  64 H64           -1.8950     4.3137     0.5005 H       
@<TRIPOS>BOND
   1    1    2 1
   2    1    7 1
   3    1    8 1
   4    2    3 1
   5    2   10 2
   6    3    4 1
   7    3   35 1
   8    3   36 1
   9    4    5 1
  10    4   14 1
  11    5    6 1
  12    5   37 1
  13    5   38 1
  14    6    7 1
  15    6   39 1
  16    6   40 1
  17    7   41 1
  18    7   42 1
  19    8    9 2
  20    8   27 1
  21    9   10 1
  22   10   11 1
  23   11   12 2
  24   11   13 am
  25   13   16 1
  26   13   43 1
  27   14   44 1
  28   14   45 1
  29   14   46 1
  30   15   19 2
  31   15   22 am
  32   15   16 1
  33   16   17 1
  34   16   47 1
  35   17   18 1
  36   17   20 1
  37   17   21 1
  38   18   48 1
  39   18   49 1
  40   18   50 1
  41   20   51 1
  42   20   52 1
  43   20   53 1
  44   21   54 1
  45   21   55 1
  46   21   56 1
  47   22   23 1
  48   22   25 1
  49   23   24 1
  50   23   57 1
  51   23   58 1
  52   24   25 1
  53   24   26 1
  54   24   59 1
  55   25   60 1
  56   25   61 1
  57   27   28 ar
  58   27   32 ar
  59   28   29 ar
  60   28   33 1
  61   29   30 ar
  62   29   62 1
  63   30   31 ar
  64   30   63 1
  65   31   32 ar
  66   31   34 1
  67   32   64 1

#	End of record

