#	Name: ASD01811043
#	Creating user name:	WinNT
#	Creation time:	15. 06. 2019 19:25

#	Modifying user name:	WinNT
#	Modification time:	15. 06. 2019 19:25

#	Program:	/corina/corina34_cracker 3.40 0067  02.08.2006

@<TRIPOS>MOLECULE
ASD01811043
  52   55    0    0    0
SMALL
NO_CHARGES


@<TRIPOS>ATOM
   1 C1            -0.5551     1.5170    -0.5616 C.2     
   2 C2            -0.4789     0.1194    -0.4905 C.2     
   3 C3             0.7425    -0.4835    -0.4155 C.2     
   4 C4             1.9038     0.3071    -0.4107 C.2     
   5 N5             1.7999     1.6698    -0.4802 N.am    
   6 C6             0.5738     2.2613    -0.5557 C.2     
   7 C7             2.9062     2.4406    -0.4759 C.2     
   8 C8             3.1602    -0.3101    -0.3336 C.2     
   9 C9             4.1840     1.8497    -0.4003 C.2     
  10 C10            5.3858     2.6867    -0.3950 C.2     
  11 C11            4.2945     0.4487    -0.3279 C.2     
  12 O12            2.8011     3.6539    -0.5382 O.2     
  13 O13            5.2730     4.0293    -0.4627 O.3     
  14 O14            6.4856     2.1713    -0.3296 O.2     
  15 C15            3.2583    -1.8119    -0.2566 C.3     
  16 N16            3.4620    -2.3591    -1.6045 N.3     
  17 C17            3.7976    -3.7876    -1.5475 C.3     
  18 C18            4.4888    -1.6010    -2.3307 C.3     
  19 C19            4.5709    -2.1038    -3.7737 C.3     
  20 C20            4.9178    -3.5951    -3.7705 C.3     
  21 C21            3.8591    -4.3556    -2.9672 C.3     
  22 C22            4.9413    -4.1098    -5.1867 C.ar    
  23 N23            4.1349    -5.0927    -5.5363 N.ar    
  24 C24            4.1208    -5.5750    -6.7637 C.ar    
  25 C25            4.9596    -5.0616    -7.7345 C.ar    
  26 C26            5.8219    -4.0271    -7.4043 C.ar    
  27 C27            5.8039    -3.5422    -6.1056 C.ar    
  28 C28            6.7217    -2.4187    -5.6978 C.3     
  29 C29            6.2393    -3.7915    -3.1525 C.1     
  30 N30            7.2591    -3.9430    -2.6755 N.1     
  31 H31           -1.5184     2.0009    -0.6257 H       
  32 H32           -1.3802    -0.4756    -0.4947 H       
  33 H33            0.8161    -1.5596    -0.3598 H       
  34 H34            0.5033     3.3376    -0.6101 H       
  35 H35            5.2655    -0.0205    -0.2693 H       
  36 H36            6.0942     4.5397    -0.4562 H       
  37 H37            4.0994    -2.0890     0.3789 H       
  38 H38            2.3370    -2.2151     0.1638 H       
  39 H39            4.7660    -3.9140    -1.0634 H       
  40 H40            3.0347    -4.3174    -0.9770 H       
  41 H41            4.2279    -0.5427    -2.3291 H       
  42 H42            5.4540    -1.7377    -1.8429 H       
  43 H43            3.6101    -1.9547    -4.2663 H       
  44 H44            5.3440    -1.5515    -4.3081 H       
  45 H45            4.1236    -5.4122    -2.9252 H       
  46 H46            2.8871    -4.2420    -3.4470 H       
  47 H47            3.4463    -6.3807    -7.0129 H       
  48 H48            4.9439    -5.4613    -8.7377 H       
  49 H49            6.4889    -3.6064    -8.1422 H       
  50 H50            6.2219    -1.4638    -5.8611 H       
  51 H51            6.9744    -2.5208    -4.6425 H       
  52 H52            7.6327    -2.4587    -6.2951 H       
@<TRIPOS>BOND
   1    1    2 1
   2    1    6 2
   3    1   31 1
   4    2    3 2
   5    2   32 1
   6    3    4 1
   7    3   33 1
   8    4    5 1
   9    4    8 2
  10    5    6 1
  11    5    7 am
  12    6   34 1
  13    7    9 1
  14    7   12 2
  15    8   15 1
  16    8   11 1
  17    9   10 1
  18    9   11 2
  19   10   13 1
  20   10   14 2
  21   11   35 1
  22   13   36 1
  23   15   16 1
  24   15   37 1
  25   15   38 1
  26   16   17 1
  27   16   18 1
  28   17   21 1
  29   17   39 1
  30   17   40 1
  31   18   19 1
  32   18   41 1
  33   18   42 1
  34   19   20 1
  35   19   43 1
  36   19   44 1
  37   20   21 1
  38   20   22 1
  39   20   29 1
  40   21   45 1
  41   21   46 1
  42   22   23 ar
  43   22   27 ar
  44   23   24 ar
  45   24   25 ar
  46   24   47 1
  47   25   26 ar
  48   25   48 1
  49   26   27 ar
  50   26   49 1
  51   27   28 1
  52   28   50 1
  53   28   51 1
  54   28   52 1
  55   29   30 3

#	End of record

