#	Name: ASD01122018
#	Creating user name:	WinNT
#	Creation time:	15. 06. 2019 18:59

#	Modifying user name:	WinNT
#	Modification time:	15. 06. 2019 18:59

#	Program:	/corina/corina34_cracker 3.40 0067  02.08.2006

@<TRIPOS>MOLECULE
ASD01122018
  46   47    0    0    0
SMALL
NO_CHARGES


@<TRIPOS>ATOM
   1 C1             0.0864     1.7702     0.0696 C.2     
   2 S2             0.1885     1.8826    -1.6846 S.3     
   3 C3            -1.5642     2.0340    -1.7808 C.2     
   4 C4            -2.0617     1.9890    -0.5306 C.2     
   5 N5            -1.1553     1.8423     0.4365 N.2     
   6 C6            -3.5092     2.0892    -0.2505 C.2     
   7 C7            -4.0787     2.7925     0.7644 C.2     
   8 C8            -5.4726     2.6099     0.6529 C.2     
   9 C9            -5.6822     1.8133    -0.4124 C.2     
  10 O10           -4.4937     1.5046    -0.9594 O.3     
  11 P11           -7.3001     1.2552    -1.0136 P.3     
  12 C12           -2.3686     2.1881    -3.0458 C.3     
  13 N13            1.1656     1.6216     0.9254 N.pl3   
  14 O14           -8.3255     1.5073     0.0234 O.2     
  15 C15           -2.6566     3.6708    -3.2897 C.3     
  16 C16           -1.3441     4.4062    -3.5678 C.3     
  17 C17           -3.5887     3.8179    -4.4941 C.3     
  18 C18           -9.0345     1.8848    -3.2251 C.3     
  19 C19           -9.1487     2.7659    -4.4423 C.2     
  20 S20           -9.4091     2.1146    -5.8792 S.2     
  21 C21           -7.7306     2.1643    -2.5232 C.2     
  22 O22           -6.9723     2.9934    -2.9657 O.2     
  23 C23           -6.2178    -1.0503    -2.3585 C.3     
  24 C24           -6.4443    -2.5254    -2.5676 C.2     
  25 S25           -6.6650    -3.0990    -4.0438 S.2     
  26 C26           -7.2307    -0.5208    -1.3763 C.2     
  27 O27           -7.9961    -1.2788    -0.8306 O.2     
  28 H28           -3.5631     3.3778     1.5114 H       
  29 H29           -6.2289     3.0292     1.3000 H       
  30 H30           -1.8045     1.7844    -3.8866 H       
  31 H31           -3.3095     1.6468    -2.9463 H       
  32 H32            2.0656     1.5717     0.5669 H       
  33 H33            1.0214     1.5676     1.8830 H       
  34 H34           -3.1328     4.0983    -2.4074 H       
  35 H35           -1.5493     5.4626    -3.7415 H       
  36 H36           -0.6801     4.3014    -2.7098 H       
  37 H37           -0.8679     3.9787    -4.4501 H       
  38 H38           -4.4911     3.2293    -4.3291 H       
  39 H39           -3.8571     4.8669    -4.6198 H       
  40 H40           -3.0820     3.4625    -5.3913 H       
  41 H41           -9.8633     2.0915    -2.5479 H       
  42 H42           -9.0663     0.8387    -3.5296 H       
  43 H43           -9.0547     3.8373    -4.3441 H       
  44 H44           -5.2134    -0.8888    -1.9672 H       
  45 H45           -6.3258    -0.5277    -3.3090 H       
  46 H46           -6.4576    -3.1951    -1.7205 H       
@<TRIPOS>BOND
   1    1    2 1
   2    1   13 1
   3    1    5 2
   4    2    3 1
   5    3    4 2
   6    3   12 1
   7    4    5 1
   8    4    6 1
   9    6    7 2
  10    6   10 1
  11    7    8 1
  12    7   28 1
  13    8    9 2
  14    8   29 1
  15    9   10 1
  16    9   11 1
  17   11   14 2
  18   11   26 1
  19   11   21 1
  20   12   15 1
  21   12   30 1
  22   12   31 1
  23   13   32 1
  24   13   33 1
  25   15   16 1
  26   15   17 1
  27   15   34 1
  28   16   35 1
  29   16   36 1
  30   16   37 1
  31   17   38 1
  32   17   39 1
  33   17   40 1
  34   18   19 1
  35   18   21 1
  36   18   41 1
  37   18   42 1
  38   19   20 2
  39   19   43 1
  40   21   22 2
  41   23   24 1
  42   23   26 1
  43   23   44 1
  44   23   45 1
  45   24   25 2
  46   24   46 1
  47   26   27 2

#	End of record

