#	Name: ASD01940614
#	Creating user name:	WinNT
#	Creation time:	15. 06. 2019 20:12

#	Modifying user name:	WinNT
#	Modification time:	15. 06. 2019 20:12

#	Program:	/corina/corina34_cracker 3.40 0067  02.08.2006

@<TRIPOS>MOLECULE
ASD01940614
  46   48    0    0    0
SMALL
NO_CHARGES


@<TRIPOS>ATOM
   1 C1            -1.0598     1.0310     1.1979 C.ar    
   2 C2            -1.0503    -0.3679     1.0814 C.ar    
   3 C3             0.0771    -1.0811     1.4499 C.ar    
   4 C4             1.1953    -0.4195     1.9330 C.ar    
   5 C5             1.1979     0.9595     2.0524 C.ar    
   6 C6             0.0783     1.6933     1.6887 C.ar    
   7 N7             0.0823     3.0773     1.8086 N.pl3   
   8 C8             0.9578     3.6992     2.7053 C.ar    
   9 C9             1.4674     2.9904     3.7850 C.ar    
  10 C10            2.3316     3.6069     4.6688 C.ar    
  11 C11            2.6900     4.9296     4.4803 C.ar    
  12 C12            2.1847     5.6402     3.4063 C.ar    
  13 C13            1.3243     5.0273     2.5139 C.ar    
  14 F14            0.8353     5.7192     1.4616 F       
  15 I15            4.0006     5.8591     5.8247 I       
  16 F16            2.2903    -1.1257     2.2903 F       
  17 C17           -2.2502     1.7984     0.8035 C.2     
  18 O18           -3.1215     2.0318     1.6198 O.2     
  19 N19           -2.3761     2.2435    -0.4624 N.am    
  20 O20           -2.1429    -1.0188     0.6095 O.3     
  21 C21           -2.0621    -2.3655     0.4460 C.ar    
  22 C22           -2.1836    -3.2057     1.5423 C.ar    
  23 C23           -2.1007    -4.5803     1.3723 C.ar    
  24 C24           -1.8961    -5.1109     0.1032 C.ar    
  25 C25           -1.7752    -4.2697    -0.9865 C.ar    
  26 C26           -1.8638    -2.9004    -0.8190 C.ar    
  27 N27           -2.2221    -5.4303     2.4748 N.am    
  28 S28           -3.2554    -5.0425     3.7094 S.o2    
  29 N29           -4.7714    -4.9093     3.0563 N.am    
  30 O30           -3.2887    -6.1698     4.5739 O.2     
  31 O31           -2.8900    -3.7400     4.1444 O.2     
  32 Cl32          -1.7921    -6.8303    -0.1120 Cl      
  33 H33            0.0855    -2.1574     1.3611 H       
  34 H34            2.0740     1.4656     2.4299 H       
  35 H35           -0.5219     3.6125     1.2706 H       
  36 H36            1.1879     1.9579     3.9339 H       
  37 H37            2.7279     3.0554     5.5086 H       
  38 H38            2.4658     6.6729     3.2622 H       
  39 H39           -1.6814     2.0574    -1.1133 H       
  40 H40           -3.1615     2.7498    -0.7227 H       
  41 H41           -2.3420    -2.7910     2.5268 H       
  42 H42           -1.6157    -4.6831    -1.9714 H       
  43 H43           -1.7741    -2.2458    -1.6733 H       
  44 H44           -1.7011    -6.2474     2.5170 H       
  45 H45           -5.5512    -5.1184     3.5939 H       
  46 H46           -4.8795    -4.6221     2.1361 H       
@<TRIPOS>BOND
   1    1    2 ar
   2    1    6 ar
   3    1   17 1
   4    2    3 ar
   5    2   20 1
   6    3    4 ar
   7    3   33 1
   8    4    5 ar
   9    4   16 1
  10    5    6 ar
  11    5   34 1
  12    6    7 1
  13    7    8 1
  14    7   35 1
  15    8    9 ar
  16    8   13 ar
  17    9   10 ar
  18    9   36 1
  19   10   11 ar
  20   10   37 1
  21   11   12 ar
  22   11   15 1
  23   12   13 ar
  24   12   38 1
  25   13   14 1
  26   17   18 2
  27   17   19 am
  28   19   39 1
  29   19   40 1
  30   20   21 1
  31   21   22 ar
  32   21   26 ar
  33   22   23 ar
  34   22   41 1
  35   23   24 ar
  36   23   27 1
  37   24   25 ar
  38   24   32 1
  39   25   26 ar
  40   25   42 1
  41   26   43 1
  42   27   28 am
  43   27   44 1
  44   28   29 am
  45   28   30 2
  46   28   31 2
  47   29   45 1
  48   29   46 1

#	End of record

