#	Name: ASD01910004
#	Creating user name:	WinNT
#	Creation time:	15. 06. 2019 19:55

#	Modifying user name:	WinNT
#	Modification time:	15. 06. 2019 19:55

#	Program:	/corina/corina34_cracker 3.40 0067  02.08.2006

@<TRIPOS>MOLECULE
ASD01910004
  24   25    0    0    0
SMALL
NO_CHARGES


@<TRIPOS>ATOM
   1 C1            -0.0158     1.3137     0.0093 C.ar    
   2 N2             0.0021    -0.0041     0.0020 N.ar    
   3 C3             1.1485    -0.6715    -0.0126 C.ar    
   4 C4             2.3387     0.0332    -0.0202 C.ar    
   5 C5             2.2826     1.4273    -0.0122 C.ar    
   6 N6             1.0937     2.0240     0.0025 N.ar    
   7 N7             3.4469     2.1784    -0.0188 N.3     
   8 C8             3.1458     3.6167    -0.0083 C.3     
   9 C9             4.4536     4.4085     0.0642 C.3     
  10 N10            5.2994     4.0588    -1.0856 N.3     
  11 C11            5.6005     2.6205    -1.0961 C.3     
  12 C12            4.2927     1.8287    -1.1687 C.3     
  13 Cl13           1.1548    -2.4074    -0.0214 Cl      
  14 H14           -0.9667     1.8256     0.0165 H       
  15 H15            3.2874    -0.4827    -0.0317 H       
  16 H16            2.6097     3.8827    -0.9193 H       
  17 H17            2.5292     3.8529     0.8589 H       
  18 H18            4.2341     5.4760     0.0429 H       
  19 H19            4.9767     4.1628     0.9884 H       
  20 H20            4.8679     4.3443    -1.9519 H       
  21 H21            6.2171     2.3844    -1.9634 H       
  22 H22            6.1365     2.3545    -0.1851 H       
  23 H23            4.5122     0.7613    -1.1473 H       
  24 H24            3.7696     2.0744    -2.0929 H       
@<TRIPOS>BOND
   1    1    2 ar
   2    1    6 ar
   3    1   14 1
   4    2    3 ar
   5    3    4 ar
   6    3   13 1
   7    4    5 ar
   8    4   15 1
   9    5    6 ar
  10    5    7 1
  11    7    8 1
  12    7   12 1
  13    8    9 1
  14    8   16 1
  15    8   17 1
  16    9   10 1
  17    9   18 1
  18    9   19 1
  19   10   11 1
  20   10   20 1
  21   11   12 1
  22   11   21 1
  23   11   22 1
  24   12   23 1
  25   12   24 1

#	End of record

