#	Name: ASD05430185
#	Creating user name:	WinNT
#	Creation time:	15. 06. 2019 20:59

#	Modifying user name:	WinNT
#	Modification time:	15. 06. 2019 20:59

#	Program:	/corina/corina34_cracker 3.40 0067  02.08.2006

@<TRIPOS>MOLECULE
ASD05430185
  65   70    0    0    0
SMALL
NO_CHARGES


@<TRIPOS>ATOM
   1 C1            -0.0094     1.6225     0.1911 C.ar    
   2 C2            -0.1585     0.2426     0.0776 C.ar    
   3 C3             0.9635    -0.5720     0.0436 C.ar    
   4 C4             2.2251    -0.0136     0.1223 C.ar    
   5 C5             2.3727     1.3567     0.2351 C.ar    
   6 C6             1.2592     2.1749     0.2696 C.ar    
   7 C7             5.8114     2.4819    -0.9753 C.3     
   8 C8             4.3480     2.0690    -1.0840 C.3     
   9 C9             3.7512     1.9596     0.3206 C.3     
  10 C10            6.2599     3.3452    -2.1438 C.3     
  11 C11            5.4540     3.1444    -3.4285 C.3     
  12 N12            4.0558     3.4609    -3.1226 N.pl3   
  13 C13            3.5602     3.0768    -1.8789 C.2     
  14 N14            2.4743     3.5912    -1.4225 N.2     
  15 C15            2.2681     3.1266    -4.7276 C.ar    
  16 C16            1.9866     3.2139    -6.0782 C.ar    
  17 N17           -1.4410    -0.3225    -0.0018 N.pl3   
  18 C18           -2.4857    -0.0730     0.8290 C.2     
  19 C19           -1.8768    -1.2256    -0.9362 C.2     
  20 C20           -3.1626    -1.4998    -0.6436 C.2     
  21 N21           -3.5079    -0.7837     0.4365 N.2     
  22 C22           -4.0594    -2.4442    -1.4017 C.3     
  23 C23            3.1848     4.1341    -4.0829 C.3     
  24 C24            2.3526     5.1840    -3.3354 C.3     
  25 N25            1.7815     4.5776    -2.1305 N.pl3   
  26 C26            1.1457     2.2907    -6.6704 C.ar    
  27 C27            0.5853     1.2781    -5.9104 C.ar    
  28 C28            0.8680     1.1917    -4.5578 C.ar    
  29 C29            1.7049     2.1191    -3.9667 C.ar    
  30 F30           -0.2372     0.3754    -6.4882 F       
  31 C31           -0.8831     3.8187     0.4510 C.3     
  32 O32           -1.1055     2.4263     0.2193 O.3     
  33 C33            6.4488     4.8266    -1.7769 C.3     
  34 O34            7.6612     4.7454    -2.5537 O.3     
  35 C35            7.7798     3.3189    -2.3781 C.3     
  36 H36            0.8512    -1.6426    -0.0441 H       
  37 H37            3.0980    -0.6491     0.0961 H       
  38 H38            1.3778     3.2447     0.3581 H       
  39 H39            5.9527     3.0399    -0.0497 H       
  40 H40            6.4295     1.5847    -0.9419 H       
  41 H41            4.2855     1.0984    -1.5759 H       
  42 H42            3.6866     2.9522     0.7663 H       
  43 H43            4.3876     1.3251     0.9374 H       
  44 H44            5.8237     3.8129    -4.2061 H       
  45 H45            5.5358     2.1090    -3.7592 H       
  46 H46            2.4236     4.0040    -6.6708 H       
  47 H47           -2.4728     0.6001     1.6735 H       
  48 H48           -1.3001    -1.6379    -1.7509 H       
  49 H49           -3.9730    -3.4453    -0.9791 H       
  50 H50           -5.0925    -2.1051    -1.3243 H       
  51 H51           -3.7616    -2.4655    -2.4500 H       
  52 H52            3.7903     4.6229    -4.8462 H       
  53 H53            2.9907     6.0219    -3.0546 H       
  54 H54            1.5485     5.5380    -3.9806 H       
  55 H55            0.9091     4.8651    -1.8188 H       
  56 H56            0.9256     2.3593    -7.7255 H       
  57 H57            0.4314     0.4022    -3.9640 H       
  58 H58            1.9256     2.0519    -2.9116 H       
  59 H59           -0.3210     3.9479     1.3759 H       
  60 H60           -0.3171     4.2395    -0.3800 H       
  61 H61           -1.8417     4.3309     0.5340 H       
  62 H62            5.6941     5.4867    -2.2045 H       
  63 H63            6.6166     4.9999    -0.7140 H       
  64 H64            8.3566     3.0288    -1.4999 H       
  65 H65            8.0778     2.7863    -3.2812 H       
@<TRIPOS>BOND
   1    1    2 ar
   2    1    6 ar
   3    1   32 1
   4    2    3 ar
   5    2   17 1
   6    3    4 ar
   7    3   36 1
   8    4    5 ar
   9    4   37 1
  10    5    6 ar
  11    5    9 1
  12    6   38 1
  13    7    8 1
  14    7   10 1
  15    7   39 1
  16    7   40 1
  17    8    9 1
  18    8   13 1
  19    8   41 1
  20    9   42 1
  21    9   43 1
  22   10   11 1
  23   10   33 1
  24   10   35 1
  25   11   12 1
  26   11   44 1
  27   11   45 1
  28   12   13 1
  29   12   23 1
  30   13   14 2
  31   14   25 1
  32   15   16 ar
  33   15   23 1
  34   15   29 ar
  35   16   26 ar
  36   16   46 1
  37   17   18 1
  38   17   19 1
  39   18   21 2
  40   18   47 1
  41   19   20 2
  42   19   48 1
  43   20   21 1
  44   20   22 1
  45   22   49 1
  46   22   50 1
  47   22   51 1
  48   23   24 1
  49   23   52 1
  50   24   25 1
  51   24   53 1
  52   24   54 1
  53   25   55 1
  54   26   27 ar
  55   26   56 1
  56   27   28 ar
  57   27   30 1
  58   28   29 ar
  59   28   57 1
  60   29   58 1
  61   31   32 1
  62   31   59 1
  63   31   60 1
  64   31   61 1
  65   33   34 1
  66   33   62 1
  67   33   63 1
  68   34   35 1
  69   35   64 1
  70   35   65 1

#	End of record

