#	Name: ASD03540006
#	Creating user name:	WinNT
#	Creation time:	15. 06. 2019 20:42

#	Modifying user name:	WinNT
#	Modification time:	15. 06. 2019 20:42

#	Program:	/corina/corina34_cracker 3.40 0067  02.08.2006

@<TRIPOS>MOLECULE
ASD03540006
  50   53    0    0    0
SMALL
NO_CHARGES


@<TRIPOS>ATOM
   1 C1            -0.0180     1.4730     0.0101 C.2     
   2 C2             0.0021    -0.0041     0.0020 C.ar    
   3 C3             1.2188    -0.6888    -0.0133 C.ar    
   4 C4             1.2303    -2.0682    -0.0203 C.ar    
   5 C5             0.0396    -2.7731    -0.0127 C.ar    
   6 C6            -1.1697    -2.1009     0.0020 C.ar    
   7 C7            -1.1956    -0.7217     0.0154 C.ar    
   8 O8             1.0256     2.0946     0.0035 O.2     
   9 O9            -1.1936     2.1307     0.0193 O.3     
  10 C10            0.0601    -4.2800    -0.0210 C.3     
  11 C11           -1.0793    -5.0129     1.9841 C.2     
  12 N12           -1.1282    -5.4741     3.2648 N.am    
  13 C13            0.0660    -5.6934     3.9082 C.2     
  14 C14            1.2694    -5.4566     3.2841 C.2     
  15 C15            1.2641    -4.9820     1.9659 C.2     
  16 N16            0.0799    -4.7757     1.3575 N.am    
  17 S17           -0.3445    -6.2790     5.5261 S.3     
  18 C18           -2.2429    -5.7502     4.0017 C.2     
  19 C19           -2.0947    -6.1994     5.2558 C.2     
  20 C20           -3.1579    -6.5518     6.2054 C.2     
  21 N21           -2.8408    -6.9920     7.4392 N.am    
  22 O22           -4.3252    -6.4464     5.8785 O.2     
  23 C23           -3.9015    -7.3436     8.3866 C.3     
  24 C24           -2.4414    -7.3570    11.8711 C.ar    
  25 C25           -3.0067    -6.8988    10.6961 C.ar    
  26 C26           -3.2852    -7.8031     9.6827 C.ar    
  27 C27           -2.9838    -9.1404     9.8905 C.ar    
  28 C28           -2.4197    -9.5248    11.0922 C.ar    
  29 N29           -2.1680    -8.6367    12.0339 N.ar    
  30 O30            2.3113    -4.7607     1.3802 O.2     
  31 O31           -2.1210    -4.8151     1.3895 O.2     
  32 C32            2.5694    -5.7024     4.0057 C.3     
  33 H33            2.1488    -0.1398    -0.0199 H       
  34 H34            2.1707    -2.5992    -0.0321 H       
  35 H35           -2.0953    -2.6572     0.0071 H       
  36 H36           -2.1401    -0.1983     0.0318 H       
  37 H37           -1.1561     3.0969     0.0244 H       
  38 H38           -0.8298    -4.6526    -0.5283 H       
  39 H39            0.9499    -4.6284    -0.5452 H       
  40 H40           -3.2279    -5.6094     3.5816 H       
  41 H41           -1.9103    -7.0760     7.6998 H       
  42 H42           -4.5276    -6.4707     8.5713 H       
  43 H43           -4.5102    -8.1457     7.9692 H       
  44 H44           -2.2172    -6.6583    12.6635 H       
  45 H45           -3.2286    -5.8495    10.5689 H       
  46 H46           -3.1876    -9.8725     9.1231 H       
  47 H47           -2.1819   -10.5646    11.2618 H       
  48 H48            2.8928    -6.7288     3.8322 H       
  49 H49            3.3279    -5.0144     3.6324 H       
  50 H50            2.4276    -5.5420     5.0745 H       
@<TRIPOS>BOND
   1    1    2 1
   2    1    8 2
   3    1    9 1
   4    2    3 ar
   5    2    7 ar
   6    3    4 ar
   7    3   33 1
   8    4    5 ar
   9    4   34 1
  10    5    6 ar
  11    5   10 1
  12    6    7 ar
  13    6   35 1
  14    7   36 1
  15    9   37 1
  16   10   16 1
  17   10   38 1
  18   10   39 1
  19   11   12 am
  20   11   16 am
  21   11   31 2
  22   12   13 1
  23   12   18 1
  24   13   14 2
  25   13   17 1
  26   14   15 1
  27   14   32 1
  28   15   16 am
  29   15   30 2
  30   17   19 1
  31   18   19 2
  32   18   40 1
  33   19   20 1
  34   20   21 am
  35   20   22 2
  36   21   23 1
  37   21   41 1
  38   23   26 1
  39   23   42 1
  40   23   43 1
  41   24   25 ar
  42   24   29 ar
  43   24   44 1
  44   25   26 ar
  45   25   45 1
  46   26   27 ar
  47   27   28 ar
  48   27   46 1
  49   28   29 ar
  50   28   47 1
  51   32   48 1
  52   32   49 1
  53   32   50 1

#	End of record

