#	Name: ASD03090595
#	Creating user name:	WinNT
#	Creation time:	15. 06. 2019 20:29

#	Modifying user name:	WinNT
#	Modification time:	15. 06. 2019 20:29

#	Program:	/corina/corina34_cracker 3.40 0067  02.08.2006

@<TRIPOS>MOLECULE
ASD03090595
  34   35    0    0    0
SMALL
NO_CHARGES


@<TRIPOS>ATOM
   1 N1            -0.0162     1.3436     0.0094 N.am    
   2 C2            -0.2043     0.1128    -0.5067 C.2     
   3 O3             0.6901    -0.4299    -1.1261 O.2     
   4 N4            -1.3840    -0.5163    -0.3361 N.am    
   5 O5            -2.5246    -3.5792    -1.3521 O.3     
   6 N6            -2.6607    -2.5188    -0.7873 N.2     
   7 C7            -1.5787    -1.7900    -0.8702 C.2     
   8 C8            -0.6414    -2.5551    -1.6142 C.2     
   9 C9            -1.3057    -3.6984    -1.8981 C.2     
  10 C10           -0.7788    -4.8764    -2.6763 C.3     
  11 C11            1.2465     1.9477    -0.0614 C.ar    
  12 C12            1.3526     3.3291    -0.2082 C.ar    
  13 C13            2.6030     3.9208    -0.2772 C.ar    
  14 C14            3.7425     3.1408    -0.2009 C.ar    
  15 C15            3.6379     1.7702    -0.0553 C.ar    
  16 C16            2.3935     1.1727     0.0201 C.ar    
  17 O17            0.2313     4.0946    -0.2840 O.3     
  18 C18            0.4166     5.5036    -0.4341 C.3     
  19 C19           -0.9476     6.1931    -0.5007 C.3     
  20 H20           -0.7557     1.8129     0.4264 H       
  21 H21           -2.0976    -0.0834     0.1581 H       
  22 H22            0.3678    -2.2862    -1.8893 H       
  23 H23           -1.5492    -5.6451    -2.7379 H       
  24 H24           -0.5051    -4.5550    -3.6812 H       
  25 H25            0.0990    -5.2813    -2.1726 H       
  26 H26            2.6882     4.9914    -0.3910 H       
  27 H27            4.7167     3.6038    -0.2556 H       
  28 H28            4.5305     1.1651     0.0039 H       
  29 H29            2.3147     0.1020     0.1384 H       
  30 H30            0.9773     5.8891     0.4174 H       
  31 H31            0.9690     5.7016    -1.3527 H       
  32 H32           -1.5084     5.8077    -1.3523 H       
  33 H33           -1.5000     5.9951     0.4178 H       
  34 H34           -0.8063     7.2679    -0.6152 H       
@<TRIPOS>BOND
   1    1    2 am
   2    1   11 1
   3    1   20 1
   4    2    3 2
   5    2    4 am
   6    4    7 1
   7    4   21 1
   8    5    6 1
   9    5    9 1
  10    6    7 2
  11    7    8 1
  12    8    9 2
  13    8   22 1
  14    9   10 1
  15   10   23 1
  16   10   24 1
  17   10   25 1
  18   11   12 ar
  19   11   16 ar
  20   12   13 ar
  21   12   17 1
  22   13   14 ar
  23   13   26 1
  24   14   15 ar
  25   14   27 1
  26   15   16 ar
  27   15   28 1
  28   16   29 1
  29   17   18 1
  30   18   19 1
  31   18   30 1
  32   18   31 1
  33   19   32 1
  34   19   33 1
  35   19   34 1

#	End of record

