#	Name: ASD05490020
#	Creating user name:	WinNT
#	Creation time:	15. 06. 2019 21:00

#	Modifying user name:	WinNT
#	Modification time:	15. 06. 2019 21:00

#	Program:	/corina/corina34_cracker 3.40 0067  02.08.2006

@<TRIPOS>MOLECULE
ASD05490020
  69   73    0    0    0
SMALL
NO_CHARGES


@<TRIPOS>ATOM
   1 O1            -0.0173     1.4248     0.0099 O.3     
   2 N2             2.7241     5.3595     0.0030 N.pl3   
   3 N3             2.2883     1.3280    -0.0127 N.ar    
   4 C4             3.4877     1.9005    -0.0215 C.ar    
   5 C5             1.1818     2.0565     0.0018 C.ar    
   6 N6             1.2068     3.3779     0.0082 N.ar    
   7 C7             2.3634     4.0326     0.0003 C.ar    
   8 C8             3.5624     3.3026    -0.0151 C.ar    
   9 N9             4.6391     1.1308    -0.0361 N.pl3   
  10 C10            4.0899     5.4129    -0.0163 C.2     
  11 N11            4.5806     4.2015    -0.0210 N.2     
  12 C12            1.8119     6.5058     0.0175 C.3     
  13 C13            1.5133     6.8921     1.4432 C.ar    
  14 C14            2.3088     7.8141     2.0977 C.ar    
  15 N15            2.0581     8.1601     3.3441 N.ar    
  16 C16            1.0397     7.6421     4.0182 C.ar    
  17 C17            0.1973     6.7069     3.4204 C.ar    
  18 C18            0.4337     6.3298     2.1099 C.ar    
  19 C19            0.0021    -0.0041     0.0020 C.3     
  20 C20           -1.4333    -0.5336     0.0129 C.3     
  21 C21           -1.4126    -2.0635     0.0045 C.3     
  22 C22           -2.8479    -2.5931     0.0153 C.3     
  23 C23            0.7959     8.0617     5.4200 C.ar    
  24 C24            1.6336     8.9963     6.0262 C.ar    
  25 C25           -0.2748     7.5272     6.1338 C.ar    
  26 C26           -0.4972     7.9216     7.4377 C.ar    
  27 C27            0.3404     8.8454     8.0359 C.ar    
  28 C28            1.4019     9.3833     7.3303 C.ar    
  29 N29            3.4212     9.6889     8.6471 N.3     
  30 C30            4.4536    10.6407     9.0967 C.3     
  31 C31            4.6375    10.4325    10.6147 C.3     
  32 C32            4.1111     8.9899    10.8358 C.3     
  33 C33            2.9448     8.9230     9.8186 C.3     
  34 C34            2.3102    10.3893     7.9889 C.3     
  35 O35            4.8243     6.5500    -0.0203 O.3     
  36 C36            6.2458     6.4042    -0.0300 C.3     
  37 H37            4.5753     0.1629    -0.0401 H       
  38 H38            5.5091     1.5596    -0.0425 H       
  39 H39            2.2770     7.3467    -0.4969 H       
  40 H40            0.8842     6.2383    -0.4884 H       
  41 H41            3.1473     8.2566     1.5804 H       
  42 H42           -0.6312     6.2858     3.9705 H       
  43 H43           -0.2024     5.6075     1.6200 H       
  44 H44            0.5123    -0.3556    -0.8948 H       
  45 H45            0.5293    -0.3651     0.8851 H       
  46 H46           -1.9435    -0.1821     0.9097 H       
  47 H47           -1.9605    -0.1726    -0.8702 H       
  48 H48           -0.9024    -2.4150    -0.8923 H       
  49 H49           -0.8854    -2.4246     0.8875 H       
  50 H50           -2.8332    -3.6829     0.0093 H       
  51 H51           -3.3581    -2.2415     0.9121 H       
  52 H52           -3.3751    -2.2320    -0.8677 H       
  53 H53            2.4628     9.4165     5.4763 H       
  54 H54           -0.9297     6.8061     5.6675 H       
  55 H55           -1.3270     7.5083     7.9918 H       
  56 H56            0.1627     9.1512     9.0564 H       
  57 H57            5.3919    10.4420     8.5788 H       
  58 H58            4.1276    11.6619     8.8993 H       
  59 H59            5.6899    10.5050    10.8889 H       
  60 H60            4.0411    11.1508    11.1772 H       
  61 H61            4.8789     8.2535    10.5986 H       
  62 H62            3.7482     8.8587    11.8552 H       
  63 H63            2.0503     9.3852    10.2359 H       
  64 H64            2.7436     7.8887     9.5394 H       
  65 H65            2.7056    11.0701     7.2351 H       
  66 H66            1.7475    10.9559     8.7308 H       
  67 H67            6.7121     7.3894    -0.0323 H       
  68 H68            6.5608     5.8553     0.8575 H       
  69 H69            6.5488     5.8567    -0.9224 H       
@<TRIPOS>BOND
   1    1   19 1
   2    1    5 1
   3    2   12 1
   4    2    7 1
   5    2   10 1
   6    3    4 ar
   7    3    5 ar
   8    4    9 1
   9    4    8 ar
  10    5    6 ar
  11    6    7 ar
  12    7    8 ar
  13    8   11 1
  14    9   37 1
  15    9   38 1
  16   10   11 2
  17   10   35 1
  18   12   13 1
  19   12   39 1
  20   12   40 1
  21   13   14 ar
  22   13   18 ar
  23   14   15 ar
  24   14   41 1
  25   15   16 ar
  26   16   17 ar
  27   16   23 1
  28   17   18 ar
  29   17   42 1
  30   18   43 1
  31   19   20 1
  32   19   44 1
  33   19   45 1
  34   20   21 1
  35   20   46 1
  36   20   47 1
  37   21   22 1
  38   21   48 1
  39   21   49 1
  40   22   50 1
  41   22   51 1
  42   22   52 1
  43   23   24 ar
  44   23   25 ar
  45   24   28 ar
  46   24   53 1
  47   25   26 ar
  48   25   54 1
  49   26   27 ar
  50   26   55 1
  51   27   28 ar
  52   27   56 1
  53   28   34 1
  54   29   30 1
  55   29   33 1
  56   29   34 1
  57   30   31 1
  58   30   57 1
  59   30   58 1
  60   31   32 1
  61   31   59 1
  62   31   60 1
  63   32   33 1
  64   32   61 1
  65   32   62 1
  66   33   63 1
  67   33   64 1
  68   34   65 1
  69   34   66 1
  70   35   36 1
  71   36   67 1
  72   36   68 1
  73   36   69 1

#	End of record

