#	Name: ASD02198593
#	Creating user name:	WinNT
#	Creation time:	15. 06. 2019 20:19

#	Modifying user name:	WinNT
#	Modification time:	15. 06. 2019 20:19

#	Program:	/corina/corina34_cracker 3.40 0067  02.08.2006

@<TRIPOS>MOLECULE
ASD02198593
  42   45    0    0    0
SMALL
NO_CHARGES


@<TRIPOS>ATOM
   1 C1            -0.0439     1.5049    -0.1137 C.2     
   2 C2            -0.0744     0.1653     0.0992 C.2     
   3 N3             1.0695    -0.5369     0.2619 N.pl3   
   4 N4             2.2343    -0.0030     0.2275 N.2     
   5 C5             2.4067     1.2862     0.0285 C.2     
   6 C6             1.2214     2.1381    -0.1596 C.2     
   7 C7             0.9771    -1.9159     0.4793 C.ar    
   8 C8             1.5779    -2.4889     1.5989 C.ar    
   9 C9             1.4823    -3.8556     1.8088 C.ar    
  10 C10            0.7928    -4.6466     0.9095 C.ar    
  11 C11            0.1963    -4.0788    -0.2020 C.ar    
  12 C12            0.2819    -2.7170    -0.4165 C.ar    
  13 C13            3.7640     1.8675    -0.0051 C.2     
  14 N14            4.3060     2.6066    -1.0188 N.pl3   
  15 N15            5.6082     2.9578    -0.6417 N.2     
  16 C16            5.8521     2.4589     0.5439 C.2     
  17 C17            4.7201     1.7718     0.9822 C.2     
  18 C18            3.6729     2.9505    -2.2200 C.ar    
  19 C19            2.9060     2.0107    -2.8962 C.ar    
  20 O20            1.3251     3.3410    -0.3482 O.2     
  21 C21            3.8062     4.2335    -2.7343 C.ar    
  22 C22            3.1807     4.5694    -3.9189 C.ar    
  23 C23            2.4224     3.6297    -4.5928 C.ar    
  24 C24            2.2830     2.3529    -4.0804 C.ar    
  25 O25            2.2559    -1.7096     2.4822 O.3     
  26 F26            3.7684    -3.3175     3.1596 F       
  27 F27            3.4994    -1.4223     4.4066 F       
  28 C28            2.8458    -2.3656     3.6064 C.3     
  29 F29            1.8470    -2.9990     4.3536 F       
  30 H30           -0.9550     2.0691    -0.2482 H       
  31 H31           -1.0245    -0.3466     0.1395 H       
  32 H32            1.9470    -4.3025     2.6752 H       
  33 H33            0.7199    -5.7114     1.0747 H       
  34 H34           -0.3410    -4.7015    -0.9019 H       
  35 H35           -0.1852    -2.2766    -1.2850 H       
  36 H36            6.7758     2.5652     1.0935 H       
  37 H37            4.6143     1.2530     1.9235 H       
  38 H38            2.7971     1.0133    -2.4966 H       
  39 H39            4.3980     4.9680    -2.2083 H       
  40 H40            3.2836     5.5672    -4.3192 H       
  41 H41            1.9342     3.8949    -5.5190 H       
  42 H42            1.6901     1.6212    -4.6090 H       
@<TRIPOS>BOND
   1    1    2 2
   2    1    6 1
   3    1   30 1
   4    2    3 1
   5    2   31 1
   6    3    4 1
   7    3    7 1
   8    4    5 2
   9    5    6 1
  10    5   13 1
  11    6   20 2
  12    7    8 ar
  13    7   12 ar
  14    8    9 ar
  15    8   25 1
  16    9   10 ar
  17    9   32 1
  18   10   11 ar
  19   10   33 1
  20   11   12 ar
  21   11   34 1
  22   12   35 1
  23   13   14 1
  24   13   17 2
  25   14   15 1
  26   14   18 1
  27   15   16 2
  28   16   17 1
  29   16   36 1
  30   17   37 1
  31   18   21 ar
  32   18   19 ar
  33   19   24 ar
  34   19   38 1
  35   21   22 ar
  36   21   39 1
  37   22   23 ar
  38   22   40 1
  39   23   24 ar
  40   23   41 1
  41   24   42 1
  42   25   28 1
  43   26   28 1
  44   27   28 1
  45   28   29 1

#	End of record

