#	Name: ASD01140680
#	Creating user name:	WinNT
#	Creation time:	15. 06. 2019 19:01

#	Modifying user name:	WinNT
#	Modification time:	15. 06. 2019 19:01

#	Program:	/corina/corina34_cracker 3.40 0067  02.08.2006

@<TRIPOS>MOLECULE
ASD01140680
  40   44    0    0    0
SMALL
NO_CHARGES


@<TRIPOS>ATOM
   1 N1            -0.0164     1.3592     0.0095 N.pl3   
   2 C2             0.0021    -0.0041     0.0020 C.2     
   3 C3             1.2390    -0.8605    -0.0883 C.3     
   4 N4             1.9263    -0.5199    -1.3389 N.2     
   5 C5             2.3632     0.6688    -1.5711 C.2     
   6 C6             2.2643     1.8540    -0.7118 C.ar    
   7 C7             1.1094     2.1838     0.0032 C.ar    
   8 C8             3.3830     2.6918    -0.6193 C.ar    
   9 C9             3.3325     3.8517     0.1436 C.ar    
  10 C10            2.1580     4.1892     0.8216 C.ar    
  11 C11            1.0624     3.3595     0.7486 C.ar    
  12 C12           -1.3179     1.7462     0.0466 C.2     
  13 N13           -2.0704     0.6806     0.0913 N.2     
  14 C14           -1.2868    -0.4212     0.0701 C.2     
  15 C15            3.0533     0.8643    -2.8692 C.ar    
  16 C16            3.1919    -0.2092    -3.7464 C.ar    
  17 C17            3.8387    -0.0112    -4.9551 C.ar    
  18 C18            4.3253     1.2547    -5.2457 C.ar    
  19 C19            4.1521     2.2757    -4.3271 C.ar    
  20 N20            3.5286     2.0613    -3.1878 N.ar    
  21 O21           -1.1895    -2.8773    -0.5219 O.3     
  22 C22           -1.9127    -3.9663    -0.2231 C.2     
  23 N23           -2.8909    -3.6231     0.5665 N.2     
  24 C24           -2.8216    -2.3026     0.7960 C.2     
  25 C25           -1.7504    -1.8247     0.1125 C.2     
  26 C26            4.4821     4.7005     0.2349 C.1     
  27 C27            5.4247     5.3964     0.3097 C.1     
  28 H28            1.8924    -0.6566     0.7599 H       
  29 H29            0.9593    -1.9140    -0.0954 H       
  30 H30            4.2910     2.4342    -1.1444 H       
  31 H31            2.1102     5.0990     1.4015 H       
  32 H32            0.1566     3.6230     1.2745 H       
  33 H33           -1.6715     2.7667     0.0408 H       
  34 H34            2.8008    -1.1820    -3.4874 H       
  35 H35            3.9616    -0.8242    -5.6553 H       
  36 H36            4.8347     1.4419    -6.1794 H       
  37 H37            4.5300     3.2625    -4.5500 H       
  38 H38           -1.7161    -4.9666    -0.5795 H       
  39 H39           -3.4956    -1.7253     1.4115 H       
  40 H40            6.2677     6.0188     0.3766 H       
@<TRIPOS>BOND
   1    1    2 1
   2    1    7 1
   3    1   12 1
   4    2    3 1
   5    2   14 2
   6    3    4 1
   7    3   28 1
   8    3   29 1
   9    4    5 2
  10    5    6 1
  11    5   15 1
  12    6    7 ar
  13    6    8 ar
  14    7   11 ar
  15    8    9 ar
  16    8   30 1
  17    9   10 ar
  18    9   26 1
  19   10   11 ar
  20   10   31 1
  21   11   32 1
  22   12   13 2
  23   12   33 1
  24   13   14 1
  25   14   25 1
  26   15   16 ar
  27   15   20 ar
  28   16   17 ar
  29   16   34 1
  30   17   18 ar
  31   17   35 1
  32   18   19 ar
  33   18   36 1
  34   19   20 ar
  35   19   37 1
  36   21   22 1
  37   21   25 1
  38   22   23 2
  39   22   38 1
  40   23   24 1
  41   24   25 2
  42   24   39 1
  43   26   27 3
  44   27   40 1

#	End of record

