#	Name: ASD02508113
#	Creating user name:	WinNT
#	Creation time:	15. 06. 2019 20:23

#	Modifying user name:	WinNT
#	Modification time:	15. 06. 2019 20:23

#	Program:	/corina/corina34_cracker 3.40 0067  02.08.2006

@<TRIPOS>MOLECULE
ASD02508113
  30   32    0    0    0
SMALL
NO_CHARGES


@<TRIPOS>ATOM
   1 C1             0.7481     2.1383     0.0760 C.ar    
   2 C2             0.4703     0.7680     0.1928 C.ar    
   3 C3             2.0812     2.5173    -0.0877 C.ar    
   4 C4             3.0996     1.5831    -0.1343 C.ar    
   5 C5             2.8041     0.2324    -0.0168 C.ar    
   6 C6             1.4813    -0.1626     0.1473 C.ar    
   7 N7            -0.1494     3.1940     0.0965 N.am    
   8 C8             0.3227     4.4377    -0.0314 C.2     
   9 S9             2.0791     4.2828    -0.2006 S.3     
  10 N10            3.8263    -0.7217    -0.0630 N.am    
  11 S11            3.8686    -1.9446     1.0528 S.o2    
  12 C12            4.0527    -1.1981     2.6381 C.2     
  13 S13            5.5865    -0.7745     3.3875 S.3     
  14 O14           -0.3242     5.4688    -0.0342 O.2     
  15 O15            2.5807    -2.5450     1.0390 O.2     
  16 O16            5.0665    -2.6691     0.8089 O.2     
  17 C17           -1.5856     2.9518     0.2547 C.3     
  18 C18            3.0498    -0.8624     3.4511 C.2     
  19 C19            3.4376    -0.2868     4.6488 C.2     
  20 C20            4.7553    -0.1532     4.8076 C.2     
  21 H21           -0.5507     0.4401     0.3206 H       
  22 H22            4.1229     1.9040    -0.2622 H       
  23 H23            1.2452    -1.2124     0.2392 H       
  24 H24            4.5103    -0.6668    -0.7486 H       
  25 H25           -1.8405     2.9580     1.3144 H       
  26 H26           -2.1447     3.7345    -0.2581 H       
  27 H27           -1.8401     1.9828    -0.1746 H       
  28 H28            2.0138    -1.0269     3.1942 H       
  29 H29            2.7271     0.0318     5.3971 H       
  30 H30            5.2378     0.2727     5.6748 H       
@<TRIPOS>BOND
   1    1    2 ar
   2    1    3 ar
   3    1    7 1
   4    2    6 ar
   5    2   21 1
   6    3    4 ar
   7    3    9 1
   8    4    5 ar
   9    4   22 1
  10    5    6 ar
  11    5   10 1
  12    6   23 1
  13    7    8 am
  14    7   17 1
  15    8    9 1
  16    8   14 2
  17   10   11 am
  18   10   24 1
  19   11   12 1
  20   11   15 2
  21   11   16 2
  22   12   13 1
  23   12   18 2
  24   13   20 1
  25   17   25 1
  26   17   26 1
  27   17   27 1
  28   18   19 1
  29   18   28 1
  30   19   20 2
  31   19   29 1
  32   20   30 1

#	End of record

