#	Name: ASD03731183
#	Creating user name:	WinNT
#	Creation time:	15. 06. 2019 20:45

#	Modifying user name:	WinNT
#	Modification time:	15. 06. 2019 20:45

#	Program:	/corina/corina34_cracker 3.40 0067  02.08.2006

@<TRIPOS>MOLECULE
ASD03731183
  56   61    0    0    0
SMALL
NO_CHARGES


@<TRIPOS>ATOM
   1 N1            -0.1205     1.5248    -0.3682 N.am    
   2 C2            -0.1075     0.1831    -0.2419 C.2     
   3 O3             0.9427    -0.3996    -0.0523 O.2     
   4 N4            -1.2587    -0.5128    -0.3256 N.am    
   5 C5            -1.2446    -1.9713    -0.1883 C.3     
   6 C6            -2.6704    -2.5099    -0.3220 C.3     
   7 O7             1.8029    -7.1575     2.8529 O.3     
   8 C8             2.1844    -8.4816     3.2704 C.3     
   9 O9             0.9435    -9.0789     3.6906 O.3     
  10 C10           -0.0296    -8.4429     2.9741 C.ar    
  11 C11            0.4991    -7.2610     2.4601 C.ar    
  12 C12           -1.3450    -8.7829     2.7138 C.ar    
  13 C13           -2.1488    -7.9501     1.9411 C.ar    
  14 C14           -1.6118    -6.7681     1.4401 C.ar    
  15 C15           -0.2989    -6.4293     1.6928 C.ar    
  16 O16           -3.4482    -8.1045     1.5563 O.3     
  17 C17           -2.7169    -6.0826     0.6819 C.3     
  18 C18           -3.9759    -6.8294     1.1428 C.3     
  19 N19           -2.6563    -3.9684    -0.1847 N.am    
  20 C20           -2.7920    -4.6149     0.9903 C.2     
  21 C21           -2.5280    -6.1677    -0.8037 C.ar    
  22 C22           -2.3927    -7.2153    -1.6870 C.ar    
  23 C23           -2.2298    -6.9659    -3.0381 C.ar    
  24 C24           -2.2026    -5.6622    -3.4989 C.ar    
  25 C25           -2.3368    -4.6094    -2.6180 C.ar    
  26 C26           -2.5016    -4.8511    -1.2563 C.ar    
  27 O27           -2.9451    -4.1101     2.0825 O.2     
  28 C28            1.0530     2.2586    -0.1606 C.ar    
  29 C29            1.0108     3.4535     0.5460 C.ar    
  30 C30            2.1704     4.1752     0.7491 C.ar    
  31 C31            3.3731     3.7093     0.2497 C.ar    
  32 C32            3.4184     2.5201    -0.4540 C.ar    
  33 C33            2.2628     1.7906    -0.6557 C.ar    
  34 N34           -0.2760     3.9532     1.0803 N.pl3   
  35 O35           -0.3298     5.0457     1.6162 O.2     
  36 O36           -1.2811     3.2719     0.9841 O.2     
  37 H37           -0.9422     1.9816    -0.6069 H       
  38 H38           -2.0965    -0.0480    -0.4768 H       
  39 H39           -0.6182    -2.4037    -0.9685 H       
  40 H40           -0.8448    -2.2403     0.7894 H       
  41 H41           -3.2968    -2.0775     0.4582 H       
  42 H42           -3.0702    -2.2409    -1.2997 H       
  43 H43            2.6139    -9.0371     2.4367 H       
  44 H44            2.8871    -8.4333     4.1022 H       
  45 H45           -1.7509    -9.7007     3.1129 H       
  46 H46            0.1077    -5.5128     1.2914 H       
  47 H47           -4.6781    -6.9501     0.3179 H       
  48 H48           -4.4462    -6.3149     1.9808 H       
  49 H49           -2.4140    -8.2326    -1.3249 H       
  50 H50           -2.1246    -7.7873    -3.7313 H       
  51 H51           -2.0754    -5.4675    -4.5536 H       
  52 H52           -2.3140    -3.5941    -2.9854 H       
  53 H53            2.1382     5.1047     1.2981 H       
  54 H54            4.2786     4.2757     0.4096 H       
  55 H55            4.3591     2.1590    -0.8430 H       
  56 H56            2.2997     0.8594    -1.2014 H       
@<TRIPOS>BOND
   1    1    2 am
   2    1   28 1
   3    1   37 1
   4    2    3 2
   5    2    4 am
   6    4    5 1
   7    4   38 1
   8    5    6 1
   9    5   39 1
  10    5   40 1
  11    6   19 1
  12    6   41 1
  13    6   42 1
  14    7    8 1
  15    7   11 1
  16    8    9 1
  17    8   43 1
  18    8   44 1
  19    9   10 1
  20   10   11 ar
  21   10   12 ar
  22   11   15 ar
  23   12   13 ar
  24   12   45 1
  25   13   14 ar
  26   13   16 1
  27   14   15 ar
  28   14   17 1
  29   15   46 1
  30   16   18 1
  31   17   18 1
  32   17   20 1
  33   17   21 1
  34   18   47 1
  35   18   48 1
  36   19   20 am
  37   19   26 1
  38   20   27 2
  39   21   22 ar
  40   21   26 ar
  41   22   23 ar
  42   22   49 1
  43   23   24 ar
  44   23   50 1
  45   24   25 ar
  46   24   51 1
  47   25   26 ar
  48   25   52 1
  49   28   29 ar
  50   28   33 ar
  51   29   30 ar
  52   29   34 1
  53   30   31 ar
  54   30   53 1
  55   31   32 ar
  56   31   54 1
  57   32   33 ar
  58   32   55 1
  59   33   56 1
  60   34   35 2
  61   34   36 2

#	End of record

