#	Name: ASD01920025
#	Creating user name:	WinNT
#	Creation time:	15. 06. 2019 20:11

#	Modifying user name:	WinNT
#	Modification time:	15. 06. 2019 20:11

#	Program:	/corina/corina34_cracker 3.40 0067  02.08.2006

@<TRIPOS>MOLECULE
ASD01920025
  35   37    0    0    0
SMALL
NO_CHARGES


@<TRIPOS>ATOM
   1 C1            -0.0123     1.3755     0.0435 C.ar    
   2 C2            -0.0840     0.1192    -0.5364 C.ar    
   3 C3             1.0366    -0.4058    -1.1614 C.ar    
   4 C4             2.1970     0.3514    -1.1832 C.ar    
   5 C5             2.1971     1.6072    -0.5797 C.ar    
   6 N6             1.1021     2.0732     0.0083 N.ar    
   7 C7             3.4294     2.4289    -0.5940 C.2     
   8 O8             4.4350     2.0070    -1.1306 O.2     
   9 N9             3.4357     3.6445    -0.0118 N.am    
  10 C10            4.6278     4.3732     0.0742 C.ar    
  11 C11            4.6047     5.7580    -0.0313 C.ar    
  12 C12            5.8331     3.7124     0.2706 C.ar    
  13 C13            7.0092     4.4316     0.3559 C.ar    
  14 C14            6.9870     5.8139     0.2453 C.ar    
  15 C15            5.7815     6.4764     0.0536 C.ar    
  16 Cl16           5.7544     8.2066    -0.0852 Cl      
  17 O17            8.1452     6.5212     0.3303 O.3     
  18 C18            8.4422     7.1176     1.5123 C.ar    
  19 N19            7.6631     6.9151     2.5617 N.ar    
  20 C20            7.9151     7.4753     3.7297 C.ar    
  21 C21            9.0107     8.3001     3.8975 C.ar    
  22 C22            9.8535     8.5378     2.8189 C.ar    
  23 C23            9.5647     7.9304     1.6097 C.ar    
  24 Cl24           9.3304     9.0318     5.4389 Cl      
  25 H25           -0.8847     1.7893     0.5273 H       
  26 H26           -1.0038    -0.4457    -0.5017 H       
  27 H27            1.0061    -1.3830    -1.6204 H       
  28 H28            3.0888    -0.0266    -1.6610 H       
  29 H29            2.6141     4.0143     0.3475 H       
  30 H30            3.6670     6.2729    -0.1800 H       
  31 H31            5.8510     2.6361     0.3571 H       
  32 H32            7.9465     3.9174     0.5090 H       
  33 H33            7.2565     7.2869     4.5646 H       
  34 H34           10.7167     9.1784     2.9231 H       
  35 H35           10.1988     8.0929     0.7506 H       
@<TRIPOS>BOND
   1    1    2 ar
   2    1    6 ar
   3    1   25 1
   4    2    3 ar
   5    2   26 1
   6    3    4 ar
   7    3   27 1
   8    4    5 ar
   9    4   28 1
  10    5    6 ar
  11    5    7 1
  12    7    8 2
  13    7    9 am
  14    9   10 1
  15    9   29 1
  16   10   11 ar
  17   10   12 ar
  18   11   15 ar
  19   11   30 1
  20   12   13 ar
  21   12   31 1
  22   13   14 ar
  23   13   32 1
  24   14   15 ar
  25   14   17 1
  26   15   16 1
  27   17   18 1
  28   18   19 ar
  29   18   23 ar
  30   19   20 ar
  31   20   21 ar
  32   20   33 1
  33   21   22 ar
  34   21   24 1
  35   22   23 ar
  36   22   34 1
  37   23   35 1

#	End of record

