#	Name: ASD07930202
#	Creating user name:	WinNT
#	Creation time:	15. 06. 2019 21:11

#	Modifying user name:	WinNT
#	Modification time:	15. 06. 2019 21:11

#	Program:	/corina/corina34_cracker 3.40 0067  02.08.2006

@<TRIPOS>MOLECULE
ASD07930202
  60   64    0    0    0
SMALL
NO_CHARGES


@<TRIPOS>ATOM
   1 C1             0.3715     1.1394     0.8299 C.2     
   2 C2             0.1498    -0.3090     0.6241 C.2     
   3 N3             1.6547     1.6293     0.7383 N.am    
   4 N4             1.1925    -1.1560     0.7978 N.am    
   5 C5             2.4889    -0.6047     1.2172 C.3     
   6 C6             2.7438     0.6915     0.4335 C.3     
   7 C7            -0.6761     1.9656     1.0981 C.2     
   8 C8            -0.4708     3.3367     1.2955 C.2     
   9 C9             0.7964     3.8461     1.2181 C.2     
  10 C10            1.9064     2.9369     0.9224 C.2     
  11 O11           -0.9455    -0.7302     0.3061 O.2     
  12 O12            3.0465     3.3618     0.8440 O.2     
  13 C13            1.0313    -2.5944     0.5716 C.3     
  14 C14            0.8218    -2.8555    -0.9214 C.3     
  15 O15           -0.4783    -2.4039    -1.3060 O.3     
  16 C16           -0.8878    -2.7041    -2.5671 C.ar    
  17 C17            0.0003    -3.2807    -3.4591 C.ar    
  18 C18           -0.4162    -3.5852    -4.7405 C.ar    
  19 C19           -1.7149    -3.3098    -5.1243 C.ar    
  20 C20           -2.6094    -2.7296    -4.2311 C.ar    
  21 C21           -4.0066    -2.4503    -4.7199 C.3     
  22 C22           -4.9550    -2.2359    -3.5421 C.3     
  23 C23           -4.3355    -1.1916    -2.6060 C.3     
  24 C24           -3.1164    -1.8146    -1.9288 C.3     
  25 C25           -2.1999    -2.4344    -2.9508 C.ar    
  26 F26           -2.4239    -0.8243    -1.2239 F       
  27 F27           -3.5405    -2.8044    -1.0356 F       
  28 F28           -2.1193    -3.6066    -6.3787 F       
  29 C29           -0.1826    -3.1007     1.3532 C.3     
  30 C30            1.7360     5.7748     2.4251 C.2     
  31 N31            1.7297     7.0701     2.2659 N.2     
  32 C32            1.0294     7.3794     1.1642 C.2     
  33 C33            0.5816     6.2344     0.6151 C.2     
  34 N34            1.0273     5.2110     1.4117 N.pl3   
  35 C35            0.7855     8.7685     0.6333 C.3     
  36 H36            2.4667    -0.3884     2.2853 H       
  37 H37            3.2794    -1.3238     1.0026 H       
  38 H38            2.7582     0.4787    -0.6355 H       
  39 H39            3.6975     1.1236     0.7365 H       
  40 H40           -1.6752     1.5601     1.1590 H       
  41 H41           -1.3067     3.9871     1.5069 H       
  42 H42            1.9255    -3.1179     0.9100 H       
  43 H43            1.5774    -2.3176    -1.4938 H       
  44 H44            0.9085    -3.9239    -1.1190 H       
  45 H45            1.0148    -3.4913    -3.1544 H       
  46 H46            0.2712    -4.0368    -5.4404 H       
  47 H47           -3.9977    -1.5551    -5.3417 H       
  48 H48           -4.3556    -3.2957    -5.3130 H       
  49 H49           -5.9176    -1.8771    -3.9065 H       
  50 H50           -5.0919    -3.1747    -3.0054 H       
  51 H51           -4.0292    -0.3182    -3.1818 H       
  52 H52           -5.0643    -0.8970    -1.8510 H       
  53 H53           -1.0768    -2.5772     1.0148 H       
  54 H54           -0.3026    -4.1709     1.1848 H       
  55 H55           -0.0333    -2.9147     2.4168 H       
  56 H56            2.2261     5.2403     3.2254 H       
  57 H57           -0.0141     6.1401    -0.2808 H       
  58 H58            1.5837     9.0385    -0.0582 H       
  59 H59           -0.1713     8.7954     0.1120 H       
  60 H60            0.7679     9.4763     1.4620 H       
@<TRIPOS>BOND
   1    1    2 1
   2    1    3 1
   3    1    7 2
   4    2    4 am
   5    2   11 2
   6    3    6 1
   7    3   10 am
   8    4    5 1
   9    4   13 1
  10    5    6 1
  11    5   36 1
  12    5   37 1
  13    6   38 1
  14    6   39 1
  15    7    8 1
  16    7   40 1
  17    8    9 2
  18    8   41 1
  19    9   10 1
  20    9   34 1
  21   10   12 2
  22   13   14 1
  23   13   29 1
  24   13   42 1
  25   14   15 1
  26   14   43 1
  27   14   44 1
  28   15   16 1
  29   16   17 ar
  30   16   25 ar
  31   17   18 ar
  32   17   45 1
  33   18   19 ar
  34   18   46 1
  35   19   20 ar
  36   19   28 1
  37   20   21 1
  38   20   25 ar
  39   21   22 1
  40   21   47 1
  41   21   48 1
  42   22   23 1
  43   22   49 1
  44   22   50 1
  45   23   24 1
  46   23   51 1
  47   23   52 1
  48   24   25 1
  49   24   26 1
  50   24   27 1
  51   29   53 1
  52   29   54 1
  53   29   55 1
  54   30   31 2
  55   30   34 1
  56   30   56 1
  57   31   32 1
  58   32   33 2
  59   32   35 1
  60   33   34 1
  61   33   57 1
  62   35   58 1
  63   35   59 1
  64   35   60 1

#	End of record

