#	Name: ASD02039212
#	Creating user name:	WinNT
#	Creation time:	15. 06. 2019 20:17

#	Modifying user name:	WinNT
#	Modification time:	15. 06. 2019 20:17

#	Program:	/corina/corina34_cracker 3.40 0067  02.08.2006

@<TRIPOS>MOLECULE
ASD02039212
  35   38    0    0    0
SMALL
NO_CHARGES


@<TRIPOS>ATOM
   1 N1             0.0020     1.2624     0.3699 N.2     
   2 C2             0.0063    -0.0136     0.0892 C.2     
   3 N3             1.2922    -0.3754    -0.1073 N.2     
   4 C4             1.9960     0.7158     0.0684 C.2     
   5 O5             1.1351     1.6952     0.3619 O.3     
   6 C6             3.4937     0.8426    -0.0396 C.3     
   7 N7            -1.1051    -0.8435     0.0085 N.pl3   
   8 C8            -2.3900    -0.3050     0.1292 C.ar    
   9 C9            -2.6362     1.0032    -0.2682 C.ar    
  10 C10           -3.9057     1.5336    -0.1484 C.ar    
  11 C11           -4.9333     0.7638     0.3670 C.ar    
  12 C12           -4.6916    -0.5417     0.7645 C.ar    
  13 C13           -3.4229    -1.0790     0.6410 C.ar    
  14 Cl14          -6.5276     1.4343     0.5165 Cl      
  15 C15            3.8677     1.1883    -1.4579 C.ar    
  16 C16            4.1129     0.1695    -2.3707 C.ar    
  17 C17            3.9560     2.4990    -1.8319 C.ar    
  18 C18            4.3012     2.8245    -3.1415 C.ar    
  19 C19            4.5556     1.7937    -4.0664 C.ar    
  20 C20            4.4534     0.4584    -3.6602 C.ar    
  21 F21           -5.6966    -1.2915     1.2675 F       
  22 N22            4.4691     4.0074    -3.8128 N.pl3   
  23 N23            4.8232     3.7345    -5.1382 N.2     
  24 C24            4.8850     2.4476    -5.3288 C.2     
  25 H25            3.8409     1.6297     0.6298 H       
  26 H26            3.9594    -0.1027     0.2389 H       
  27 H27           -0.9897    -1.7963    -0.1316 H       
  28 H28           -1.8350     1.6054    -0.6704 H       
  29 H29           -4.0965     2.5508    -0.4571 H       
  30 H30           -3.2341    -2.0963     0.9506 H       
  31 H31            4.0335    -0.8607    -2.0565 H       
  32 H32            3.7583     3.2812    -1.1140 H       
  33 H33            4.6469    -0.3391    -4.3624 H       
  34 H34            4.3596     4.8920    -3.4303 H       
  35 H35            5.1349     1.9527    -6.2556 H       
@<TRIPOS>BOND
   1    1    2 2
   2    1    5 1
   3    2    3 1
   4    2    7 1
   5    3    4 2
   6    4    5 1
   7    4    6 1
   8    6   15 1
   9    6   25 1
  10    6   26 1
  11    7    8 1
  12    7   27 1
  13    8    9 ar
  14    8   13 ar
  15    9   10 ar
  16    9   28 1
  17   10   11 ar
  18   10   29 1
  19   11   12 ar
  20   11   14 1
  21   12   13 ar
  22   12   21 1
  23   13   30 1
  24   15   17 ar
  25   15   16 ar
  26   16   20 ar
  27   16   31 1
  28   17   18 ar
  29   17   32 1
  30   18   19 ar
  31   18   22 1
  32   19   20 ar
  33   19   24 1
  34   20   33 1
  35   22   23 1
  36   22   34 1
  37   23   24 2
  38   24   35 1

#	End of record

