#	Name: ASD02198050
#	Creating user name:	WinNT
#	Creation time:	15. 06. 2019 20:18

#	Modifying user name:	WinNT
#	Modification time:	15. 06. 2019 20:18

#	Program:	/corina/corina34_cracker 3.40 0067  02.08.2006

@<TRIPOS>MOLECULE
ASD02198050
  44   46    0    0    0
SMALL
NO_CHARGES


@<TRIPOS>ATOM
   1 C1            -0.0187     1.3475    -0.2630 C.2     
   2 C2             0.0073    -0.0299    -0.2125 C.2     
   3 C3            -1.1766    -0.8348    -0.2440 C.1     
   4 S4             1.5605     1.9877    -0.2055 S.3     
   5 C5             2.2768     0.3868    -0.1120 C.2     
   6 C6             1.2902    -0.5683    -0.1281 C.2     
   7 C7             3.6591     0.1218    -0.0322 C.2     
   8 O8             4.0525    -1.0212     0.1312 O.2     
   9 C9             4.6303     1.2272    -0.1464 C.ar    
  10 N10            1.5445    -1.9303    -0.0656 N.pl3   
  11 N11           -1.1643     2.1035    -0.3535 N.pl3   
  12 N12           -2.1159    -1.4734    -0.2690 N.1     
  13 C13           -1.0756     3.5651    -0.4006 C.3     
  14 C14            5.2811     1.7093     0.9920 C.ar    
  15 C15            6.1867     2.7402     0.8817 C.ar    
  16 C16            6.4569     3.3049    -0.3604 C.ar    
  17 C17            5.8161     2.8335    -1.4970 C.ar    
  18 C18            4.9077     1.7940    -1.3990 C.ar    
  19 O19            4.2799     1.3315    -2.5097 O.3     
  20 C20            4.6042     1.9643    -3.7492 C.3     
  21 O21            7.3509     4.3215    -0.4608 O.3     
  22 C22            7.9745     4.7589     0.7483 C.3     
  23 C23           -0.8778     4.0351    -1.8254 C.2     
  24 C24           -2.4127     4.1995     0.0429 C.3     
  25 C25           -2.6340     5.2811    -1.0389 C.3     
  26 O26           -1.9281     4.7742    -2.2100 O.3     
  27 O27            0.0828     3.7822    -2.5133 O.2     
  28 H28            2.4581    -2.2509    -0.0070 H       
  29 H29            0.8087    -2.5622    -0.0806 H       
  30 H30           -2.0309     1.6689    -0.3862 H       
  31 H31           -0.2595     3.9155     0.2313 H       
  32 H32            5.0735     1.2736     1.9582 H       
  33 H33            6.6887     3.1121     1.7626 H       
  34 H34            6.0290     3.2754    -2.4592 H       
  35 H35            5.6702     1.8513    -3.9469 H       
  36 H36            4.0342     1.5002    -4.5541 H       
  37 H37            4.3556     3.0240    -3.6921 H       
  38 H38            7.2119     5.1072     1.4449 H       
  39 H39            8.5230     3.9296     1.1948 H       
  40 H40            8.6641     5.5736     0.5273 H       
  41 H41           -3.2163     3.4632     0.0259 H       
  42 H42           -2.3193     4.6513     1.0304 H       
  43 H43           -3.6968     5.3927    -1.2538 H       
  44 H44           -2.2075     6.2320    -0.7193 H       
@<TRIPOS>BOND
   1    1    2 2
   2    1    4 1
   3    1   11 1
   4    2    3 1
   5    2    6 1
   6    3   12 3
   7    4    5 1
   8    5    6 2
   9    5    7 1
  10    6   10 1
  11    7    8 2
  12    7    9 1
  13    9   14 ar
  14    9   18 ar
  15   10   28 1
  16   10   29 1
  17   11   13 1
  18   11   30 1
  19   13   23 1
  20   13   24 1
  21   13   31 1
  22   14   15 ar
  23   14   32 1
  24   15   16 ar
  25   15   33 1
  26   16   17 ar
  27   16   21 1
  28   17   18 ar
  29   17   34 1
  30   18   19 1
  31   19   20 1
  32   20   35 1
  33   20   36 1
  34   20   37 1
  35   21   22 1
  36   22   38 1
  37   22   39 1
  38   22   40 1
  39   23   27 2
  40   23   26 1
  41   24   25 1
  42   24   41 1
  43   24   42 1
  44   25   26 1
  45   25   43 1
  46   25   44 1

#	End of record

