#	Name: ASD00431187
#	Creating user name:	WinNT
#	Creation time:	15. 06. 2019 18:35

#	Modifying user name:	WinNT
#	Modification time:	15. 06. 2019 18:35

#	Program:	/corina/corina34_cracker 3.40 0067  02.08.2006

@<TRIPOS>MOLECULE
ASD00431187
  47   49    0    0    0
SMALL
NO_CHARGES


@<TRIPOS>ATOM
   1 C1             0.3082     1.7693     0.0318 C.2     
   2 C2             0.3024     0.2651    -0.0605 C.3     
   3 O3             1.3589     2.3667     0.1310 O.2     
   4 N4            -0.8540     2.4509    -0.0015 N.am    
   5 C5            -0.8484     3.9132     0.0882 C.3     
   6 C6            -0.6287     4.5087    -1.3039 C.3     
   7 S7            -3.7426     3.8561     0.1752 S.3     
   8 N8            -4.5583     4.8834     1.2556 N.2     
   9 C9            -3.6204     5.5515     1.8848 C.2     
  10 N10           -2.3674     5.2912     1.5587 N.2     
  11 C11           -2.1701     4.3880     0.6348 C.2     
  12 S12           -2.7993     7.5207     3.8340 S.3     
  13 C13           -4.0823     8.2813     4.6691 C.2     
  14 N14           -5.2226     7.8190     4.2598 N.2     
  15 C15           -5.1935     6.8946     3.3233 C.2     
  16 C16           -3.9531     6.5555     2.9168 C.2     
  17 O17           -3.9296     9.2312     5.6227 O.3     
  18 C18           -5.0491     9.8159     6.1263 C.ar    
  19 C19           -5.9365     9.0720     6.8902 C.ar    
  20 C20           -7.0734     9.6661     7.4021 C.ar    
  21 C21           -7.3281    11.0065     7.1520 C.ar    
  22 C22           -6.4410    11.7503     6.3879 C.ar    
  23 C23           -5.3010    11.1579     5.8811 C.ar    
  24 O24           -8.4476    11.5913     7.6557 O.3     
  25 C25           -8.6066    12.9928     7.4265 C.3     
  26 C26          -10.0877    13.3620     7.5318 C.3     
  27 C27           -7.8106    13.7743     8.4736 C.3     
  28 H28            1.3268    -0.1052    -0.0220 H       
  29 H29           -0.2648    -0.1479     0.7737 H       
  30 H30           -0.1591    -0.0395    -0.9998 H       
  31 H31           -1.6942     1.9734    -0.0848 H       
  32 H32           -0.0448     4.2334     0.7513 H       
  33 H33           -0.6245     5.5967    -1.2372 H       
  34 H34            0.3272     4.1653    -1.6993 H       
  35 H35           -1.4323     4.1885    -1.9670 H       
  36 H36           -6.0870     6.4454     2.9155 H       
  37 H37           -5.7386     8.0281     7.0843 H       
  38 H38           -7.7643     9.0870     7.9968 H       
  39 H39           -6.6398    12.7938     6.1927 H       
  40 H40           -4.6079    11.7383     5.2901 H       
  41 H41           -8.2399    13.2420     6.4308 H       
  42 H42          -10.4544    13.1127     8.5275 H       
  43 H43          -10.2090    14.4310     7.3570 H       
  44 H44          -10.6548    12.8052     6.7858 H       
  45 H45           -8.1773    13.5251     9.4694 H       
  46 H46           -6.7554    13.5113     8.3986 H       
  47 H47           -7.9319    14.8433     8.2988 H       
@<TRIPOS>BOND
   1    1    2 1
   2    1    3 2
   3    1    4 am
   4    2   28 1
   5    2   29 1
   6    2   30 1
   7    4    5 1
   8    4   31 1
   9    5    6 1
  10    5   11 1
  11    5   32 1
  12    6   33 1
  13    6   34 1
  14    6   35 1
  15    7    8 1
  16    7   11 1
  17    8    9 2
  18    9   10 1
  19    9   16 1
  20   10   11 2
  21   12   13 1
  22   12   16 1
  23   13   14 2
  24   13   17 1
  25   14   15 1
  26   15   16 2
  27   15   36 1
  28   17   18 1
  29   18   19 ar
  30   18   23 ar
  31   19   20 ar
  32   19   37 1
  33   20   21 ar
  34   20   38 1
  35   21   22 ar
  36   21   24 1
  37   22   23 ar
  38   22   39 1
  39   23   40 1
  40   24   25 1
  41   25   26 1
  42   25   27 1
  43   25   41 1
  44   26   42 1
  45   26   43 1
  46   26   44 1
  47   27   45 1
  48   27   46 1
  49   27   47 1

#	End of record

