#	Name: ASD02508325
#	Creating user name:	WinNT
#	Creation time:	15. 06. 2019 20:24

#	Modifying user name:	WinNT
#	Modification time:	15. 06. 2019 20:24

#	Program:	/corina/corina34_cracker 3.40 0067  02.08.2006

@<TRIPOS>MOLECULE
ASD02508325
  56   58    0    0    0
SMALL
NO_CHARGES


@<TRIPOS>ATOM
   1 C1            -0.4431     0.5994    -0.0894 C.ar    
   2 C2            -0.0264    -0.7250    -0.0530 C.ar    
   3 C3             1.3261    -1.0273    -0.1502 C.ar    
   4 C4             2.2514    -0.0109    -0.2825 C.ar    
   5 C5             1.8330     1.3069    -0.3179 C.ar    
   6 C6             0.4877     1.6112    -0.2219 C.ar    
   7 S7             3.0171     2.6008    -0.4863 S.o2    
   8 O8             2.7078     3.5606     0.5149 O.2     
   9 O9             4.2866     1.9715    -0.5940 O.2     
  10 C10            2.7170     3.3840    -2.0359 C.ar    
  11 C11            1.8426     4.4526    -2.1110 C.ar    
  12 C12            1.6052     5.0687    -3.3241 C.ar    
  13 C13            2.2462     4.6142    -4.4691 C.ar    
  14 C14            3.1241     3.5411    -4.3903 C.ar    
  15 C15            3.3609     2.9324    -3.1733 C.ar    
  16 N16           -0.9650    -1.7507     0.0814 N.am    
  17 C17           -1.8164    -1.8130     1.2719 C.3     
  18 S18           -1.1153    -2.8962    -1.1050 S.o2    
  19 C19           -0.1524    -4.2870    -0.6121 C.ar    
  20 O20           -2.4716    -3.3195    -1.0845 O.2     
  21 O21           -0.4854    -2.3615    -2.2612 O.2     
  22 N22            2.0075     5.2358    -5.6998 N.am    
  23 C23            1.7555     6.5589    -5.7488 C.2     
  24 O24            1.8273     7.2277    -4.7395 O.2     
  25 C25            1.3845     7.2074    -7.0575 C.3     
  26 C26            0.0366     3.0486    -0.2604 C.3     
  27 C27           -0.7260    -5.2915     0.1448 C.ar    
  28 C28            0.0294    -6.3827     0.5315 C.ar    
  29 C29            1.3583    -6.4696     0.1610 C.ar    
  30 C30            1.9317    -5.4656    -0.5967 C.ar    
  31 C31            1.1751    -4.3765    -0.9871 C.ar    
  32 C32            2.1821    -7.6587     0.5835 C.3     
  33 H33           -1.4942     0.8376    -0.0186 H       
  34 H34            1.6535    -2.0561    -0.1219 H       
  35 H35            3.3029    -0.2452    -0.3581 H       
  36 H36            1.3444     4.8056    -1.2201 H       
  37 H37            0.9216     5.9027    -3.3822 H       
  38 H38            3.6241     3.1853    -5.2790 H       
  39 H39            4.0438     2.0981    -3.1113 H       
  40 H40           -2.7308    -1.2469     1.0947 H       
  41 H41           -2.0678    -2.8521     1.4847 H       
  42 H42           -1.2840    -1.3866     2.1221 H       
  43 H43            2.0235     4.7145    -6.5176 H       
  44 H44            0.3019     7.1816    -7.1818 H       
  45 H45            1.7260     8.2425    -7.0598 H       
  46 H46            1.8573     6.6670    -7.8776 H       
  47 H47           -0.1574     3.3410    -1.2924 H       
  48 H48           -0.8755     3.1590     0.3261 H       
  49 H49            0.8164     3.6855     0.1572 H       
  50 H50           -1.7643    -5.2236     0.4343 H       
  51 H51           -0.4186    -7.1671     1.1235 H       
  52 H52            2.9700    -5.5334    -0.8859 H       
  53 H53            1.6231    -3.5921    -1.5791 H       
  54 H54            2.1088    -8.4391    -0.1740 H       
  55 H55            3.2237    -7.3578     0.6955 H       
  56 H56            1.8096    -8.0394     1.5345 H       
@<TRIPOS>BOND
   1    1    2 ar
   2    1    6 ar
   3    1   33 1
   4    2    3 ar
   5    2   16 1
   6    3    4 ar
   7    3   34 1
   8    4    5 ar
   9    4   35 1
  10    5    6 ar
  11    5    7 1
  12    6   26 1
  13    7    8 2
  14    7    9 2
  15    7   10 1
  16   10   11 ar
  17   10   15 ar
  18   11   12 ar
  19   11   36 1
  20   12   13 ar
  21   12   37 1
  22   13   14 ar
  23   13   22 1
  24   14   15 ar
  25   14   38 1
  26   15   39 1
  27   16   17 1
  28   16   18 am
  29   17   40 1
  30   17   41 1
  31   17   42 1
  32   18   19 1
  33   18   20 2
  34   18   21 2
  35   19   27 ar
  36   19   31 ar
  37   22   23 am
  38   22   43 1
  39   23   24 2
  40   23   25 1
  41   25   44 1
  42   25   45 1
  43   25   46 1
  44   26   47 1
  45   26   48 1
  46   26   49 1
  47   27   28 ar
  48   27   50 1
  49   28   29 ar
  50   28   51 1
  51   29   30 ar
  52   29   32 1
  53   30   31 ar
  54   30   52 1
  55   31   53 1
  56   32   54 1
  57   32   55 1
  58   32   56 1

#	End of record

