#	Name: ASD01230240
#	Creating user name:	WinNT
#	Creation time:	15. 06. 2019 19:12

#	Modifying user name:	WinNT
#	Modification time:	15. 06. 2019 19:12

#	Program:	/corina/corina34_cracker 3.40 0067  02.08.2006

@<TRIPOS>MOLECULE
ASD01230240
  31   33    0    0    0
SMALL
NO_CHARGES


@<TRIPOS>ATOM
   1 C1            -0.0168     1.3842     0.0097 C.ar    
   2 C2             0.0021    -0.0041     0.0020 C.ar    
   3 C3             1.2044    -0.6789    -0.0127 C.ar    
   4 C4             2.4031     0.0351    -0.0203 C.ar    
   5 C5             2.3802     1.4302    -0.0131 C.ar    
   6 C6             1.1740     2.0981     0.0021 C.ar    
   7 O7            -1.2037     2.0459     0.0189 O.3     
   8 S8             5.1167     0.3521     3.4886 S.o2    
   9 N9             4.2063     0.1360     2.1240 N.am    
  10 C10            4.6233    -0.5853     1.1117 C.2     
  11 N11            5.8224    -1.2355     1.0417 N.pl3   
  12 C12            6.8547    -1.1625     2.0790 C.3     
  13 C13            6.2170    -1.0985     3.4697 C.3     
  14 C14            3.6963    -0.6858    -0.0356 C.2     
  15 C15            4.0513    -1.4594    -1.1191 C.2     
  16 C16            5.2837    -2.1271    -1.1027 C.2     
  17 C17            6.1161    -2.0082    -0.0543 C.2     
  18 O18            5.8499     1.5445     3.2442 O.2     
  19 O19            4.1848     0.2644     4.5578 O.2     
  20 H20           -0.9262    -0.5561     0.0080 H       
  21 H21            1.2183    -1.7588    -0.0179 H       
  22 H22            3.3061     1.9862    -0.0186 H       
  23 H23            1.1555     3.1779     0.0078 H       
  24 H24           -1.5431     2.2326     0.9049 H       
  25 H25            7.4910    -2.0453     2.0157 H       
  26 H26            7.4613    -0.2709     1.9203 H       
  27 H27            6.9914    -0.9873     4.2287 H       
  28 H28            5.6404    -2.0045     3.6559 H       
  29 H29            3.3899    -1.5503    -1.9681 H       
  30 H30            5.5674    -2.7446    -1.9421 H       
  31 H31            7.0550    -2.5417    -0.0753 H       
@<TRIPOS>BOND
   1    1    2 ar
   2    1    6 ar
   3    1    7 1
   4    2    3 ar
   5    2   20 1
   6    3    4 ar
   7    3   21 1
   8    4    5 ar
   9    4   14 1
  10    5    6 ar
  11    5   22 1
  12    6   23 1
  13    7   24 1
  14    8    9 am
  15    8   13 1
  16    8   18 2
  17    8   19 2
  18    9   10 2
  19   10   11 1
  20   10   14 1
  21   11   12 1
  22   11   17 1
  23   12   13 1
  24   12   25 1
  25   12   26 1
  26   13   27 1
  27   13   28 1
  28   14   15 2
  29   15   16 1
  30   15   29 1
  31   16   17 2
  32   16   30 1
  33   17   31 1

#	End of record

