#	Name: ASD03092232
#	Creating user name:	WinNT
#	Creation time:	15. 06. 2019 20:32

#	Modifying user name:	WinNT
#	Modification time:	15. 06. 2019 20:32

#	Program:	/corina/corina34_cracker 3.40 0067  02.08.2006

@<TRIPOS>MOLECULE
ASD03092232
  48   50    0    0    0
SMALL
NO_CHARGES


@<TRIPOS>ATOM
   1 N1            -0.3164     1.2760     0.1290 N.pl3   
   2 C2            -0.3759    -0.0662     0.2764 C.2     
   3 N3            -1.6425    -0.4255     0.2162 N.2     
   4 C4            -2.4075     0.6514     0.0332 C.2     
   5 N5            -1.6413     1.7170    -0.0202 N.2     
   6 C6             0.8903     2.1067     0.1310 C.3     
   7 C7             1.3936     2.2785    -1.3036 C.3     
   8 O8             0.4303     3.0130    -2.0616 O.3     
   9 C9             2.7207     3.0399    -1.2908 C.3     
  10 C10            3.2861     3.1032    -2.7110 C.3     
  11 C11            0.7778    -0.9727     0.4710 C.ar    
  12 C12            0.6043    -2.2512     1.0119 C.ar    
  13 C13            1.7075    -3.0637     1.1756 C.ar    
  14 N14            2.9112    -2.6493     0.8300 N.ar    
  15 C15            3.1186    -1.4520     0.3166 C.ar    
  16 C16            2.0712    -0.5770     0.1136 C.ar    
  17 N17           -3.7993     0.6475    -0.0779 N.pl3   
  18 C18           -4.4939    -0.5644    -0.1147 C.ar    
  19 C19           -5.8083    -0.6269     0.3293 C.ar    
  20 C20           -6.4925    -1.8275     0.2911 C.ar    
  21 C21           -5.8686    -2.9656    -0.1890 C.ar    
  22 C22           -4.5597    -2.9058    -0.6312 C.ar    
  23 C23           -3.8727    -1.7084    -0.6009 C.ar    
  24 Cl24          -8.1354    -1.9075     0.8462 Cl      
  25 C25            1.5349    -4.4430     1.7577 C.3     
  26 C26            4.5178    -1.0364    -0.0586 C.3     
  27 H27            0.6580     3.0841     0.5540 H       
  28 H28            1.6620     1.6251     0.7316 H       
  29 H29            1.5416     1.2982    -1.7565 H       
  30 H30            0.2486     3.8973    -1.7152 H       
  31 H31            2.5556     4.0515    -0.9200 H       
  32 H32            3.4284     2.5256    -0.6405 H       
  33 H33            4.2315     3.6456    -2.7019 H       
  34 H34            3.4512     2.0915    -3.0818 H       
  35 H35            2.5784     3.6174    -3.3613 H       
  36 H36           -0.3782    -2.5968     1.2975 H       
  37 H37            2.2483     0.4017    -0.3075 H       
  38 H38           -4.2841     1.4861    -0.1297 H       
  39 H39           -6.2951     0.2612     0.7043 H       
  40 H40           -6.4050    -3.9026    -0.2180 H       
  41 H41           -4.0754    -3.7961    -1.0046 H       
  42 H42           -2.8506    -1.6628    -0.9465 H       
  43 H43            1.3529    -5.1564     0.9539 H       
  44 H44            2.4392    -4.7257     2.2965 H       
  45 H45            0.6878    -4.4445     2.4436 H       
  46 H46            4.7149    -1.3167    -1.0933 H       
  47 H47            4.6176     0.0435     0.0506 H       
  48 H48            5.2327    -1.5353     0.5956 H       
@<TRIPOS>BOND
   1    1    2 1
   2    1    6 1
   3    1    5 1
   4    2    3 2
   5    2   11 1
   6    3    4 1
   7    4    5 2
   8    4   17 1
   9    6    7 1
  10    6   27 1
  11    6   28 1
  12    7    8 1
  13    7    9 1
  14    7   29 1
  15    8   30 1
  16    9   10 1
  17    9   31 1
  18    9   32 1
  19   10   33 1
  20   10   34 1
  21   10   35 1
  22   11   12 ar
  23   11   16 ar
  24   12   13 ar
  25   12   36 1
  26   13   14 ar
  27   13   25 1
  28   14   15 ar
  29   15   16 ar
  30   15   26 1
  31   16   37 1
  32   17   18 1
  33   17   38 1
  34   18   19 ar
  35   18   23 ar
  36   19   20 ar
  37   19   39 1
  38   20   21 ar
  39   20   24 1
  40   21   22 ar
  41   21   40 1
  42   22   23 ar
  43   22   41 1
  44   23   42 1
  45   25   43 1
  46   25   44 1
  47   25   45 1
  48   26   46 1
  49   26   47 1
  50   26   48 1

#	End of record

