#	Name: ASD01918334
#	Creating user name:	WinNT
#	Creation time:	15. 06. 2019 20:11

#	Modifying user name:	WinNT
#	Modification time:	15. 06. 2019 20:11

#	Program:	/corina/corina34_cracker 3.40 0067  02.08.2006

@<TRIPOS>MOLECULE
ASD01918334
  25   26    0    0    0
SMALL
NO_CHARGES


@<TRIPOS>ATOM
   1 C1            -0.0168     1.3910     0.0097 C.ar    
   2 C2             0.0021    -0.0041     0.0020 C.ar    
   3 N3             1.1518    -0.6655    -0.0125 N.ar    
   4 C4             2.3166    -0.0298    -0.0202 C.ar    
   5 C5             2.3654     1.3687    -0.0127 C.ar    
   6 C6             1.1828     2.0866     0.0020 C.ar    
   7 C7            -1.2326    -0.7295     0.0104 C.1     
   8 N8            -2.2120    -1.3049     0.0170 N.1     
   9 C9             3.5351    -0.7820    -0.0359 C.1     
  10 C10            4.5340    -1.3986    -0.0487 C.1     
  11 C11            5.7525    -2.1508    -0.0644 C.ar    
  12 C12            6.9812    -1.4909    -0.0726 C.ar    
  13 C13            5.7132    -3.5484    -0.0657 C.ar    
  14 C14            6.8889    -4.2754    -0.0803 C.ar    
  15 C15            8.1102    -3.6259    -0.0938 C.ar    
  16 C16            8.1626    -2.2300    -0.0874 C.ar    
  17 C17            9.4280    -1.5597    -0.1013 C.1     
  18 N18           10.4318    -1.0279    -0.1124 N.1     
  19 F19            6.8449    -5.6257    -0.0811 F       
  20 H20           -0.9563     1.9237     0.0171 H       
  21 H21            3.3157     1.8820    -0.0183 H       
  22 H22            1.1937     3.1665     0.0077 H       
  23 H23            7.0170    -0.4115    -0.0679 H       
  24 H24            4.7626    -4.0610    -0.0549 H       
  25 H25            9.0253    -4.1994    -0.1049 H       
@<TRIPOS>BOND
   1    1    2 ar
   2    1    6 ar
   3    1   20 1
   4    2    3 ar
   5    2    7 1
   6    3    4 ar
   7    4    5 ar
   8    4    9 1
   9    5    6 ar
  10    5   21 1
  11    6   22 1
  12    7    8 3
  13    9   10 3
  14   10   11 1
  15   11   12 ar
  16   11   13 ar
  17   12   16 ar
  18   12   23 1
  19   13   14 ar
  20   13   24 1
  21   14   15 ar
  22   14   19 1
  23   15   16 ar
  24   15   25 1
  25   16   17 1
  26   17   18 3

#	End of record

