#	Name: ASD05832002
#	Creating user name:	WinNT
#	Creation time:	15. 06. 2019 21:03

#	Modifying user name:	WinNT
#	Modification time:	15. 06. 2019 21:03

#	Program:	/corina/corina34_cracker 3.40 0067  02.08.2006

@<TRIPOS>MOLECULE
ASD05832002
  55   55    0    0    0
SMALL
NO_CHARGES


@<TRIPOS>ATOM
   1 C1            -0.5063     1.6526    -1.7161 C.ar    
   2 C2            -0.2999     0.3155    -1.4324 C.ar    
   3 C3             0.9490    -0.2463    -1.6209 C.ar    
   4 C4             1.9914     0.5289    -2.0934 C.ar    
   5 C5             1.7848     1.8658    -2.3779 C.ar    
   6 C6             0.5363     2.4280    -2.1881 C.ar    
   7 C7             2.9214     2.7110    -2.8926 C.3     
   8 C8             2.9482     2.6535    -4.4213 C.3     
   9 C9             4.1021     3.5116    -4.9438 C.3     
  10 C10            4.1288     3.4541    -6.4725 C.3     
  11 C11            5.2827     4.3122    -6.9950 C.3     
  12 C12            5.3095     4.2547    -8.5237 C.3     
  13 C13            6.4634     5.1128    -9.0463 C.3     
  14 C14            6.4901     5.0553   -10.5749 C.3     
  15 C15           -1.4364    -0.5296    -0.9173 C.3     
  16 C16           -2.1800    -1.1583    -2.0974 C.3     
  17 C17           -3.3338    -2.0163    -1.5743 C.3     
  18 C18           -3.9997    -2.7434    -2.7443 C.3     
  19 O19           -5.0463    -3.5818    -2.2505 O.3     
  20 C20           -2.7943    -3.0429    -0.5764 C.3     
  21 N21           -1.7720    -3.8708    -1.2301 N.3     
  22 O22           -4.2934    -1.1797    -0.9252 O.3     
  23 H23           -1.4831     2.0905    -1.5731 H       
  24 H24            1.1104    -1.2908    -1.3986 H       
  25 H25            2.9673     0.0902    -2.2400 H       
  26 H26            0.3748     3.4724    -2.4108 H       
  27 H27            2.7818     3.7429    -2.5702 H       
  28 H28            3.8640     2.3315    -2.4982 H       
  29 H29            3.0877     1.6217    -4.7437 H       
  30 H30            2.0056     3.0330    -4.8157 H       
  31 H31            3.9625     4.5435    -4.6214 H       
  32 H32            5.0447     3.1321    -4.5494 H       
  33 H33            4.2684     2.4223    -6.7949 H       
  34 H34            3.1862     3.8336    -6.8669 H       
  35 H35            5.1431     5.3441    -6.6727 H       
  36 H36            6.2253     3.9327    -6.6006 H       
  37 H37            5.4491     3.2229    -8.8461 H       
  38 H38            4.3669     4.6342    -8.9181 H       
  39 H39            6.3238     6.1447    -8.7239 H       
  40 H40            7.4060     4.7333    -8.6518 H       
  41 H41            5.5475     5.4349   -10.9694 H       
  42 H42            7.3122     5.6667   -10.9472 H       
  43 H43            6.6297     4.0235   -10.8973 H       
  44 H44           -1.0416    -1.3171    -0.2754 H       
  45 H45           -2.1233     0.0946    -0.3459 H       
  46 H46           -2.5748    -0.3707    -2.7392 H       
  47 H47           -1.4931    -1.7825    -2.6688 H       
  48 H48           -4.4163    -2.0121    -3.4369 H       
  49 H49           -3.2593    -3.3533    -3.2618 H       
  50 H50           -5.5134    -4.0746    -2.9390 H       
  51 H51           -2.3526    -2.5248     0.2748 H       
  52 H52           -3.6103    -3.6780    -0.2316 H       
  53 H53           -0.9610    -3.3209    -1.4709 H       
  54 H54           -1.5172    -4.6559    -0.6498 H       
  55 H55           -4.6782    -0.5035    -1.4996 H       
@<TRIPOS>BOND
   1    1    2 ar
   2    1    6 ar
   3    1   23 1
   4    2    3 ar
   5    2   15 1
   6    3    4 ar
   7    3   24 1
   8    4    5 ar
   9    4   25 1
  10    5    6 ar
  11    5    7 1
  12    6   26 1
  13    7    8 1
  14    7   27 1
  15    7   28 1
  16    8    9 1
  17    8   29 1
  18    8   30 1
  19    9   10 1
  20    9   31 1
  21    9   32 1
  22   10   11 1
  23   10   33 1
  24   10   34 1
  25   11   12 1
  26   11   35 1
  27   11   36 1
  28   12   13 1
  29   12   37 1
  30   12   38 1
  31   13   14 1
  32   13   39 1
  33   13   40 1
  34   14   41 1
  35   14   42 1
  36   14   43 1
  37   15   16 1
  38   15   44 1
  39   15   45 1
  40   16   17 1
  41   16   46 1
  42   16   47 1
  43   17   18 1
  44   17   20 1
  45   17   22 1
  46   18   19 1
  47   18   48 1
  48   18   49 1
  49   19   50 1
  50   20   21 1
  51   20   51 1
  52   20   52 1
  53   21   53 1
  54   21   54 1
  55   22   55 1

#	End of record

