#	Name: ASD08070411
#	Creating user name:	WinNT
#	Creation time:	15. 06. 2019 21:14

#	Modifying user name:	WinNT
#	Modification time:	15. 06. 2019 21:14

#	Program:	/corina/corina34_cracker 3.40 0067  02.08.2006

@<TRIPOS>MOLECULE
ASD08070411
  46   47    0    0    0
SMALL
NO_CHARGES


@<TRIPOS>ATOM
   1 O1            -0.0164     1.3590     0.0095 O.3     
   2 C2             0.0021    -0.0041     0.0020 C.ar    
   3 C3             0.4483    -0.6778    -1.1298 C.ar    
   4 O4             0.8615     0.0341    -2.2187 O.3     
   5 C5             2.0703     0.7787    -2.0565 C.3     
   6 C6             1.7897     2.1303    -1.4187 C.3     
   7 C7             1.2597     2.0015     0.0008 C.3     
   8 C8             0.4723    -2.0575    -1.1525 C.ar    
   9 C9             0.0450    -2.7744    -0.0303 C.ar    
  10 C10           -0.4018    -2.0918     1.1033 C.ar    
  11 C11           -0.4221    -0.7130     1.1166 C.ar    
  12 C12            0.0658    -4.2503    -0.0441 C.2     
  13 O13            0.4546    -4.8436    -1.0316 O.2     
  14 N14           -0.3461    -4.9402     1.0379 N.am    
  15 C15            1.2259    -7.0309     4.4922 C.3     
  16 C16            1.1224    -6.5089     3.0578 C.3     
  17 C17           -0.2219    -6.9270     2.4587 C.3     
  18 C18           -0.3255    -6.4050     1.0242 C.3     
  19 C19           -1.6128    -6.9272     0.3831 C.3     
  20 C20           -1.6559    -6.5092    -1.0880 C.3     
  21 C21           -2.9432    -7.0314    -1.7291 C.3     
  22 H22            2.7550     0.2172    -1.4208 H       
  23 H23            2.5314     0.9313    -3.0323 H       
  24 H24            2.7124     2.7102    -1.3999 H       
  25 H25            1.0539     2.6602    -2.0236 H       
  26 H26            1.1643     2.9947     0.4395 H       
  27 H27            1.9611     1.4142     0.5936 H       
  28 H28            0.8186    -2.5804    -2.0318 H       
  29 H29           -0.7322    -2.6445     1.9704 H       
  30 H30           -0.7675    -0.1857     1.9935 H       
  31 H31           -0.6563    -4.4668     1.8258 H       
  32 H32            2.1837    -6.7330     4.9190 H       
  33 H33            0.4160    -6.6132     5.0902 H       
  34 H34            1.1520    -8.1184     4.4893 H       
  35 H35            1.1964    -5.4214     3.0607 H       
  36 H36            1.9323    -6.9265     2.4597 H       
  37 H37           -0.2959    -8.0145     2.4558 H       
  38 H38           -1.0319    -6.5093     3.0567 H       
  39 H39            0.5332    -6.7509     0.4488 H       
  40 H40           -1.6382    -8.0147     0.4528 H       
  41 H41           -2.4739    -6.5095     0.9049 H       
  42 H42           -1.6305    -5.4217    -1.1577 H       
  43 H43           -0.7948    -6.9269    -1.6098 H       
  44 H44           -2.9739    -6.7336    -2.7772 H       
  45 H45           -2.9686    -8.1189    -1.6595 H       
  46 H46           -3.8043    -6.6137    -1.2074 H       
@<TRIPOS>BOND
   1    1    2 1
   2    1    7 1
   3    2    3 ar
   4    2   11 ar
   5    3    4 1
   6    3    8 ar
   7    4    5 1
   8    5    6 1
   9    5   22 1
  10    5   23 1
  11    6    7 1
  12    6   24 1
  13    6   25 1
  14    7   26 1
  15    7   27 1
  16    8    9 ar
  17    8   28 1
  18    9   10 ar
  19    9   12 1
  20   10   11 ar
  21   10   29 1
  22   11   30 1
  23   12   13 2
  24   12   14 am
  25   14   18 1
  26   14   31 1
  27   15   16 1
  28   15   32 1
  29   15   33 1
  30   15   34 1
  31   16   17 1
  32   16   35 1
  33   16   36 1
  34   17   18 1
  35   17   37 1
  36   17   38 1
  37   18   19 1
  38   18   39 1
  39   19   20 1
  40   19   40 1
  41   19   41 1
  42   20   21 1
  43   20   42 1
  44   20   43 1
  45   21   44 1
  46   21   45 1
  47   21   46 1

#	End of record

