#	Name: ASD01811405
#	Creating user name:	WinNT
#	Creation time:	15. 06. 2019 19:26

#	Modifying user name:	WinNT
#	Modification time:	15. 06. 2019 19:26

#	Program:	/corina/corina34_cracker 3.40 0067  02.08.2006

@<TRIPOS>MOLECULE
ASD01811405
  61   64    0    0    0
SMALL
NO_CHARGES


@<TRIPOS>ATOM
   1 N1             0.2100     1.8199     1.4877 N.am    
   2 C2             0.1841     0.4987     1.7528 C.2     
   3 O3             1.0264    -0.2345     1.2720 O.2     
   4 N4            -0.7756    -0.0097     2.5510 N.am    
   5 C5            -0.8038    -1.4458     2.8392 C.3     
   6 C6            -1.9835    -1.7577     3.7622 C.3     
   7 O7            -3.2083    -1.4852     3.0783 O.3     
   8 C8            -4.3786    -1.7447     3.8562 C.3     
   9 C9             1.2545     2.3611     0.7290 C.ar    
  10 C10            1.0285     3.4769    -0.0682 C.ar    
  11 C11            2.0564     4.0148    -0.8195 C.ar    
  12 C12            3.3141     3.4475    -0.7832 C.ar    
  13 C13            3.5513     2.3270     0.0145 C.ar    
  14 C14            2.5153     1.7876     0.7772 C.ar    
  15 C15           -0.3419     4.1021    -0.1139 C.3     
  16 C16            4.8976     1.7169     0.0550 C.2     
  17 O17            5.0163     0.5154     0.1961 O.2     
  18 C18            8.1930     4.0387     0.7933 C.3     
  19 O19            8.7024     4.4156    -0.4958 O.3     
  20 C20            9.3508     5.6832    -0.2811 C.3     
  21 C21            9.8118     5.6761     1.1583 C.ar    
  22 C22           10.7307     6.4373     1.8451 C.ar    
  23 C23           10.9540     6.1988     3.2032 C.ar    
  24 C24           10.2425     5.1889     3.8545 C.ar    
  25 C25            9.3241     4.4337     3.1547 C.ar    
  26 C26            9.1069     4.6744     1.8118 C.ar    
  27 N27            5.9930     2.4929    -0.0645 N.am    
  28 C28            5.8706     3.9561    -0.1185 C.3     
  29 C29            6.7692     4.5656     0.9629 C.3     
  30 C30            8.2178     2.5185     0.9382 C.3     
  31 C31            7.3310     1.8909    -0.1426 C.3     
  32 C32           11.9084     6.9861     3.9242 C.1     
  33 N33           12.6656     7.6106     4.4962 N.1     
  34 H34           -0.4972     2.3950     1.8192 H       
  35 H35           -1.4475     0.5752     2.9346 H       
  36 H36           -0.9143    -2.0012     1.9079 H       
  37 H37            0.1263    -1.7367     3.3275 H       
  38 H38           -1.9531    -2.8091     4.0481 H       
  39 H39           -1.9202    -1.1363     4.6554 H       
  40 H40           -4.3978    -2.7958     4.1441 H       
  41 H41           -4.3649    -1.1230     4.7515 H       
  42 H42           -5.2656    -1.5131     3.2666 H       
  43 H43            1.8747     4.8818    -1.4374 H       
  44 H44            4.1144     3.8703    -1.3723 H       
  45 H45            2.6940     0.9234     1.3997 H       
  46 H46           -0.4191     4.8652     0.6605 H       
  47 H47           -0.5006     4.5586    -1.0909 H       
  48 H48           -1.0972     3.3347     0.0556 H       
  49 H49           10.2063     5.7853    -0.9488 H       
  50 H50            8.6460     6.4982    -0.4456 H       
  51 H51           11.2777     7.2165     1.3351 H       
  52 H52           10.4112     4.9992     4.9042 H       
  53 H53            8.7739     3.6523     3.6579 H       
  54 H54            6.1852     4.3132    -1.0992 H       
  55 H55            4.8348     4.2432     0.0624 H       
  56 H56            6.3933     4.2874     1.9475 H       
  57 H57            6.7692     5.6513     0.8664 H       
  58 H58            9.2403     2.1589     0.8237 H       
  59 H59            7.8423     2.2409     1.9232 H       
  60 H60            7.2583     0.8160     0.0230 H       
  61 H61            7.7613     2.0831    -1.1254 H       
@<TRIPOS>BOND
   1    1    2 am
   2    1    9 1
   3    1   34 1
   4    2    3 2
   5    2    4 am
   6    4    5 1
   7    4   35 1
   8    5    6 1
   9    5   36 1
  10    5   37 1
  11    6    7 1
  12    6   38 1
  13    6   39 1
  14    7    8 1
  15    8   40 1
  16    8   41 1
  17    8   42 1
  18    9   10 ar
  19    9   14 ar
  20   10   11 ar
  21   10   15 1
  22   11   12 ar
  23   11   43 1
  24   12   13 ar
  25   12   44 1
  26   13   14 ar
  27   13   16 1
  28   14   45 1
  29   15   46 1
  30   15   47 1
  31   15   48 1
  32   16   17 2
  33   16   27 am
  34   18   19 1
  35   18   26 1
  36   18   29 1
  37   18   30 1
  38   19   20 1
  39   20   21 1
  40   20   49 1
  41   20   50 1
  42   21   22 ar
  43   21   26 ar
  44   22   23 ar
  45   22   51 1
  46   23   24 ar
  47   23   32 1
  48   24   25 ar
  49   24   52 1
  50   25   26 ar
  51   25   53 1
  52   27   28 1
  53   27   31 1
  54   28   29 1
  55   28   54 1
  56   28   55 1
  57   29   56 1
  58   29   57 1
  59   30   31 1
  60   30   58 1
  61   30   59 1
  62   31   60 1
  63   31   61 1
  64   32   33 3

#	End of record

