#	Name: ASD00310323
#	Creating user name:	WinNT
#	Creation time:	15. 06. 2019 18:34

#	Modifying user name:	WinNT
#	Modification time:	15. 06. 2019 18:34

#	Program:	/corina/corina34_cracker 3.40 0067  02.08.2006

@<TRIPOS>MOLECULE
ASD00310323
  37   40    0    0    0
SMALL
NO_CHARGES


@<TRIPOS>ATOM
   1 N1            -0.0162     1.3426     0.0094 N.pl3   
   2 C2             0.0021    -0.0041     0.0020 C.2     
   3 C3             1.3064    -0.4496    -0.0128 C.2     
   4 C4             2.1540     0.7598    -0.0144 C.ar    
   5 C5             3.5274     0.9736    -0.0260 C.ar    
   6 C6             4.0195     2.2728    -0.0233 C.ar    
   7 C7             3.1343     3.3560    -0.0090 C.ar    
   8 C8             1.7742     3.1460     0.0029 C.ar    
   9 C9             1.2676     1.8488    -0.0001 C.ar    
  10 C10            1.7456    -1.7969    -0.0236 C.2     
  11 O11            0.9342    -2.6999    -0.0204 O.2     
  12 Cl12           3.7560     4.9768    -0.0058 Cl      
  13 C13            5.4838     2.5115    -0.0351 C.ar    
  14 C14            6.0412     3.3937    -0.9587 C.ar    
  15 C15            7.4039     3.6119    -0.9651 C.ar    
  16 C16            8.2162     2.9564    -0.0574 C.ar    
  17 C17            7.6684     2.0796     0.8615 C.ar    
  18 C18            6.3062     1.8586     0.8811 C.ar    
  19 N19           11.4200     2.8698     1.0765 N.3     
  20 C20           10.2596     3.7645     1.2439 C.3     
  21 C21            9.7037     3.1980    -0.0701 C.3     
  22 C22           10.5434     1.9689     0.3052 C.3     
  23 H23           -0.8217     1.8829     0.0163 H       
  24 H24           -0.8721    -0.6383     0.0073 H       
  25 H25            4.2077     0.1349    -0.0366 H       
  26 H26            1.0987     3.9886     0.0146 H       
  27 H27            2.8022    -2.0203    -0.0345 H       
  28 H28            5.4079     3.9054    -1.6683 H       
  29 H29            7.8370     4.2954    -1.6805 H       
  30 H30            8.3073     1.5703     1.5678 H       
  31 H31            5.8789     1.1775     1.6022 H       
  32 H32           12.1185     3.2908     0.4823 H       
  33 H33            9.6480     3.5243     2.1136 H       
  34 H34           10.5153     4.8226     1.1869 H       
  35 H35           10.0471     3.7214    -0.9624 H       
  36 H36           11.0395     1.5052    -0.5474 H       
  37 H37           10.0074     1.2495     0.9244 H       
@<TRIPOS>BOND
   1    1    2 1
   2    1    9 1
   3    1   23 1
   4    2    3 2
   5    2   24 1
   6    3    4 1
   7    3   10 1
   8    4    5 ar
   9    4    9 ar
  10    5    6 ar
  11    5   25 1
  12    6    7 ar
  13    6   13 1
  14    7    8 ar
  15    7   12 1
  16    8    9 ar
  17    8   26 1
  18   10   11 2
  19   10   27 1
  20   13   14 ar
  21   13   18 ar
  22   14   15 ar
  23   14   28 1
  24   15   16 ar
  25   15   29 1
  26   16   17 ar
  27   16   21 1
  28   17   18 ar
  29   17   30 1
  30   18   31 1
  31   19   20 1
  32   19   22 1
  33   19   32 1
  34   20   21 1
  35   20   33 1
  36   20   34 1
  37   21   22 1
  38   21   35 1
  39   22   36 1
  40   22   37 1

#	End of record

