#	Name: ASD08150905
#	Creating user name:	WinNT
#	Creation time:	15. 06. 2019 21:16

#	Modifying user name:	WinNT
#	Modification time:	15. 06. 2019 21:16

#	Program:	/corina/corina34_cracker 3.40 0067  02.08.2006

@<TRIPOS>MOLECULE
ASD08150905
  45   49    0    0    0
SMALL
NO_CHARGES


@<TRIPOS>ATOM
   1 N1            -0.2756     1.4112     0.0457 N.2     
   2 C2            -0.6788     0.2763     0.5388 C.2     
   3 N3            -0.3436     0.1962     1.8577 N.pl3   
   4 C4             0.3061     1.3585     2.1883 C.ar    
   5 N5             0.8533     1.8449     3.2974 N.ar    
   6 C6             1.4223     3.0320     3.2999 C.ar    
   7 N7             1.4803     3.7926     2.2220 N.ar    
   8 C8             0.9603     3.3902     1.0670 C.ar    
   9 C9             0.3423     2.1295     1.0140 C.ar    
  10 N10            1.0255     4.1946    -0.0573 N.pl3   
  11 C11            1.6735     5.5064     0.0171 C.3     
  12 C12            2.1642     5.9125    -1.3740 C.3     
  13 N13            0.6026     9.7970     2.1281 N.ar    
  14 N14           -0.2517    10.6586     2.5510 N.ar    
  15 C15           -1.5629    10.4843     2.4646 C.ar    
  16 C16           -2.0812     9.3486     1.9066 C.ar    
  17 C17           -1.1726     8.3842     1.4327 C.ar    
  18 C18           -1.5997     7.1833     0.8422 C.ar    
  19 C19           -0.6774     6.2801     0.3967 C.ar    
  20 C20            0.6850     6.5272     0.5189 C.ar    
  21 C21            1.1458     7.6977     1.0955 C.ar    
  22 C22            0.2135     8.6524     1.5653 C.ar    
  23 C23            2.6005     7.9487     1.2192 C.ar    
  24 C24            3.1914     8.9995     0.5181 C.ar    
  25 C25            4.5489     9.2287     0.6381 C.ar    
  26 C26            5.3212     8.4163     1.4531 C.ar    
  27 C27            4.7388     7.3731     2.1494 C.ar    
  28 C28            3.3830     7.1387     2.0415 C.ar    
  29 F29            5.1239    10.2457    -0.0404 F       
  30 F30           -2.9192     6.9228     0.7149 F       
  31 H31           -1.2021    -0.4890    -0.0151 H       
  32 H32           -0.5303    -0.5463     2.4533 H       
  33 H33            1.8577     3.3978     4.2181 H       
  34 H34            0.6422     3.8898    -0.8946 H       
  35 H35            2.5210     5.4547     0.7006 H       
  36 H36            1.3167     5.9641    -2.0575 H       
  37 H37            2.6463     6.8885    -1.3186 H       
  38 H38            2.8792     5.1741    -1.7369 H       
  39 H39           -2.2290    11.2474     2.8392 H       
  40 H40           -3.1480     9.1974     1.8324 H       
  41 H41           -1.0119     5.3585    -0.0561 H       
  42 H42            2.5897     9.6324    -0.1173 H       
  43 H43            6.3818     8.5984     1.5444 H       
  44 H44            5.3458     6.7429     2.7826 H       
  45 H45            2.9294     6.3263     2.5897 H       
@<TRIPOS>BOND
   1    1    2 2
   2    1    9 1
   3    2    3 1
   4    2   31 1
   5    3    4 1
   6    3   32 1
   7    4    5 ar
   8    4    9 ar
   9    5    6 ar
  10    6    7 ar
  11    6   33 1
  12    7    8 ar
  13    8    9 ar
  14    8   10 1
  15   10   11 1
  16   10   34 1
  17   11   12 1
  18   11   20 1
  19   11   35 1
  20   12   36 1
  21   12   37 1
  22   12   38 1
  23   13   14 ar
  24   13   22 ar
  25   14   15 ar
  26   15   16 ar
  27   15   39 1
  28   16   17 ar
  29   16   40 1
  30   17   18 ar
  31   17   22 ar
  32   18   19 ar
  33   18   30 1
  34   19   20 ar
  35   19   41 1
  36   20   21 ar
  37   21   22 ar
  38   21   23 1
  39   23   24 ar
  40   23   28 ar
  41   24   25 ar
  42   24   42 1
  43   25   26 ar
  44   25   29 1
  45   26   27 ar
  46   26   43 1
  47   27   28 ar
  48   27   44 1
  49   28   45 1

#	End of record

