#	Name: ASD01410195
#	Creating user name:	WinNT
#	Creation time:	15. 06. 2019 19:16

#	Modifying user name:	WinNT
#	Modification time:	15. 06. 2019 19:16

#	Program:	/corina/corina34_cracker 3.40 0067  02.08.2006

@<TRIPOS>MOLECULE
ASD01410195
  38   41    0    0    0
SMALL
NO_CHARGES


@<TRIPOS>ATOM
   1 C1            -0.0100     1.4127    -0.0546 C.ar    
   2 C2            -0.0034     0.0155     0.1255 C.ar    
   3 C3            -1.2060    -0.6853     0.2657 C.ar    
   4 C4            -2.3914    -0.0148     0.2281 C.ar    
   5 C5            -2.4112     1.3761     0.0489 C.ar    
   6 C6            -1.2180     2.0868    -0.0870 C.ar    
   7 O7             1.2741     1.8150    -0.1592 O.3     
   8 C8             2.1139     0.7675    -0.0584 C.2     
   9 C9             1.4050    -0.3763     0.1183 C.2     
  10 C10           -3.6989     2.0914     0.0089 C.2     
  11 O11           -3.7199     3.2966    -0.1462 O.2     
  12 O12           -4.8533     1.4092     0.1442 O.3     
  13 C13            5.7302     0.4410    -0.6672 C.2     
  14 O14            5.6644     1.4736     0.1870 O.3     
  15 C15            4.3932     1.7349     0.5212 C.2     
  16 C16            3.5874     0.8508    -0.1291 C.2     
  17 C17            4.4875    -0.0033    -0.9152 C.2     
  18 C18            1.4512    -2.4163     1.5882 C.3     
  19 C19            1.5581    -3.9331     1.3283 C.3     
  20 C20            1.5178    -4.1214    -0.1984 C.3     
  21 C21            1.3878    -2.7123    -0.8129 C.3     
  22 C22            1.9581    -1.7693     0.2754 C.3     
  23 H23           -1.1948    -1.7564     0.4031 H       
  24 H24           -3.3195    -0.5565     0.3364 H       
  25 H25           -1.2376     3.1578    -0.2248 H       
  26 H26           -5.6726     1.9218     0.1113 H       
  27 H27            6.6369     0.0352    -1.0910 H       
  28 H28            4.0638     2.5141     1.1925 H       
  29 H29            4.2069    -0.8220    -1.5612 H       
  30 H30            0.4157    -2.1338     1.7777 H       
  31 H31            2.0859    -2.1272     2.4259 H       
  32 H32            2.4980    -4.3150     1.7269 H       
  33 H33            0.7180    -4.4513     1.7907 H       
  34 H34            2.4382    -4.5945    -0.5407 H       
  35 H35            0.6582    -4.7309    -0.4769 H       
  36 H36            1.9762    -2.6393    -1.7275 H       
  37 H37            0.3420    -2.4776    -1.0112 H       
  38 H38            3.0476    -1.7566     0.2433 H       
@<TRIPOS>BOND
   1    1    2 ar
   2    1    7 1
   3    1    6 ar
   4    2    3 ar
   5    2    9 1
   6    3    4 ar
   7    3   23 1
   8    4    5 ar
   9    4   24 1
  10    5    6 ar
  11    5   10 1
  12    6   25 1
  13    7    8 1
  14    8    9 2
  15    8   16 1
  16    9   22 1
  17   10   11 2
  18   10   12 1
  19   12   26 1
  20   13   14 1
  21   13   17 2
  22   13   27 1
  23   14   15 1
  24   15   16 2
  25   15   28 1
  26   16   17 1
  27   17   29 1
  28   18   19 1
  29   18   22 1
  30   18   30 1
  31   18   31 1
  32   19   20 1
  33   19   32 1
  34   19   33 1
  35   20   21 1
  36   20   34 1
  37   20   35 1
  38   21   22 1
  39   21   36 1
  40   21   37 1
  41   22   38 1

#	End of record

