#	Name: ASD08178306
#	Creating user name:	WinNT
#	Creation time:	15. 06. 2019 21:18

#	Modifying user name:	WinNT
#	Modification time:	15. 06. 2019 21:18

#	Program:	/corina/corina34_cracker 3.40 0067  02.08.2006

@<TRIPOS>MOLECULE
ASD08178306
  73   76    0    0    0
SMALL
NO_CHARGES


@<TRIPOS>ATOM
   1 N1             0.0282     0.7938    -0.3706 N.am    
   2 C2            -0.0377    -0.5982    -0.3211 C.ar    
   3 C3             1.1283    -1.3573    -0.3982 C.ar    
   4 N4            -1.2086    -1.2047    -0.1951 N.ar    
   5 N5            -1.3122    -2.4831    -0.1452 N.ar    
   6 C6            -0.2624    -3.2778    -0.2160 C.ar    
   7 C7             1.0090    -2.7377    -0.3439 C.ar    
   8 C8            -0.4432    -4.7725    -0.1518 C.3     
   9 C9            -1.2147    -5.1389     1.1177 C.3     
  10 C10           -1.3983    -6.6564     1.1829 C.3     
  11 C11           -2.1697    -7.0227     2.4523 C.3     
  12 C12           -2.3505    -8.5175     2.5166 C.2     
  13 N13           -1.5407    -9.3618     3.0725 N.2     
  14 N14           -1.8709   -10.5792     3.0205 N.2     
  15 C15           -2.9834   -10.8772     2.4199 C.2     
  16 S16           -3.7068    -9.4308     1.8548 S.3     
  17 N17           -3.5038   -12.1577     2.2661 N.am    
  18 C18           -2.8393   -13.2195     2.7637 C.2     
  19 C19           -3.4032   -14.6070     2.5971 C.3     
  20 O20           -1.7874   -13.0582     3.3455 O.2     
  21 C21           -2.4753   -15.6067     3.2379 C.ar    
  22 C22           -1.1058     1.5214    -0.4055 C.2     
  23 C23           -1.0386     3.0253    -0.3361 C.3     
  24 O24           -2.1802     0.9658    -0.4928 O.2     
  25 C25           -2.6403   -15.9489     4.5658 C.ar    
  26 C26           -1.7859   -16.8697     5.1551 C.ar    
  27 C27           -0.7678   -17.4443     4.4086 C.ar    
  28 C28           -0.6069   -17.0987     3.0806 C.ar    
  29 C29           -1.4628   -16.1849     2.4944 C.ar    
  30 C30           -2.4331     3.5936    -0.3933 C.ar    
  31 C31           -3.1429     3.8023     0.7744 C.ar    
  32 C32           -4.4221     4.3235     0.7219 C.ar    
  33 C33           -4.9914     4.6365    -0.4982 C.ar    
  34 C34           -4.2813     4.4287    -1.6659 C.ar    
  35 C35           -3.0004     3.9115    -1.6132 C.ar    
  36 O36           -1.9460   -17.2077     6.4617 O.3     
  37 C37           -1.0883   -18.2276     6.9777 C.3     
  38 C38           -0.9765   -18.0797     8.4964 C.3     
  39 O39           -2.2522   -18.3205     9.0937 O.3     
  40 O40           -2.9139   -19.7731     7.3229 O.3     
  41 C41           -1.6700   -19.6019     6.6406 C.3     
  42 H42            0.8902     1.2386    -0.3758 H       
  43 H43            2.0946    -0.8853    -0.4974 H       
  44 H44            1.8798    -3.3737    -0.4036 H       
  45 H45           -1.0010    -5.1089    -1.0257 H       
  46 H46            0.5334    -5.2563    -0.1357 H       
  47 H47           -0.6569    -4.8025     1.9917 H       
  48 H48           -2.1914    -4.6551     1.1017 H       
  49 H49           -1.9560    -6.9928     0.3089 H       
  50 H50           -0.4216    -7.1402     1.1989 H       
  51 H51           -1.6120    -6.6864     3.3263 H       
  52 H52           -3.1464    -6.5390     2.4363 H       
  53 H53           -4.3451   -12.2867     1.8008 H       
  54 H54           -4.3815   -14.6613     3.0745 H       
  55 H55           -3.5039   -14.8332     1.5356 H       
  56 H56           -0.5621     3.3250     0.5973 H       
  57 H57           -0.4578     3.4022    -1.1779 H       
  58 H58           -3.4336   -15.4998     5.1451 H       
  59 H59           -0.1013   -18.1611     4.8651 H       
  60 H60            0.1857   -17.5458     2.4989 H       
  61 H61           -1.3353   -15.9160     1.4562 H       
  62 H62           -2.6981     3.5577     1.7277 H       
  63 H63           -4.9769     4.4859     1.6342 H       
  64 H64           -5.9911     5.0431    -0.5393 H       
  65 H65           -4.7262     4.6730    -2.6192 H       
  66 H66           -2.4456     3.7491    -2.5254 H       
  67 H67           -0.0994   -18.1317     6.5295 H       
  68 H68           -0.2541   -18.8004     8.8795 H       
  69 H69           -0.6463   -17.0698     8.7398 H       
  70 H70           -2.2560   -18.2436    10.0576 H       
  71 H71           -3.3407   -20.6245     7.1551 H       
  72 H72           -1.8326   -19.6738     5.5652 H       
  73 H73           -0.9731   -20.3786     6.9554 H       
@<TRIPOS>BOND
   1    1    2 1
   2    1   22 am
   3    1   42 1
   4    2    3 ar
   5    2    4 ar
   6    3    7 ar
   7    3   43 1
   8    4    5 ar
   9    5    6 ar
  10    6    7 ar
  11    6    8 1
  12    7   44 1
  13    8    9 1
  14    8   45 1
  15    8   46 1
  16    9   10 1
  17    9   47 1
  18    9   48 1
  19   10   11 1
  20   10   49 1
  21   10   50 1
  22   11   12 1
  23   11   51 1
  24   11   52 1
  25   12   13 2
  26   12   16 1
  27   13   14 1
  28   14   15 2
  29   15   16 1
  30   15   17 1
  31   17   18 am
  32   17   53 1
  33   18   19 1
  34   18   20 2
  35   19   21 1
  36   19   54 1
  37   19   55 1
  38   21   25 ar
  39   21   29 ar
  40   22   23 1
  41   22   24 2
  42   23   30 1
  43   23   56 1
  44   23   57 1
  45   25   26 ar
  46   25   58 1
  47   26   27 ar
  48   26   36 1
  49   27   28 ar
  50   27   59 1
  51   28   29 ar
  52   28   60 1
  53   29   61 1
  54   30   31 ar
  55   30   35 ar
  56   31   32 ar
  57   31   62 1
  58   32   33 ar
  59   32   63 1
  60   33   34 ar
  61   33   64 1
  62   34   35 ar
  63   34   65 1
  64   35   66 1
  65   36   37 1
  66   37   38 1
  67   37   41 1
  68   37   67 1
  69   38   39 1
  70   38   68 1
  71   38   69 1
  72   39   70 1
  73   40   41 1
  74   40   71 1
  75   41   72 1
  76   41   73 1

#	End of record

