#	Name: ASD03430524
#	Creating user name:	WinNT
#	Creation time:	15. 06. 2019 20:41

#	Modifying user name:	WinNT
#	Modification time:	15. 06. 2019 20:41

#	Program:	/corina/corina34_cracker 3.40 0067  02.08.2006

@<TRIPOS>MOLECULE
ASD03430524
  45   50    0    0    0
SMALL
NO_CHARGES


@<TRIPOS>ATOM
   1 O1            -0.0161     1.3365     0.0094 O.3     
   2 C2             0.0021    -0.0041     0.0020 C.2     
   3 N3             1.2336    -0.4166    -0.0120 N.2     
   4 C4             2.0528     0.6713    -0.0139 C.2     
   5 C5             1.2519     1.7745    -0.0004 C.2     
   6 C6             3.5227     0.6584    -0.0276 C.2     
   7 O7             4.1252    -0.4067    -0.0387 O.co2   
   8 O8             4.1438     1.7128    -0.0279 O.co2   
   9 C9            -1.2151    -0.8926     0.0096 C.3     
  10 O10           -4.0631    -1.2564     5.2231 O.3     
  11 C11           -3.1429    -0.3146     5.5769 C.ar    
  12 C12           -2.1835    -0.1494     4.5807 C.ar    
  13 C13           -2.5578    -1.0858     3.4641 C.3     
  14 C14           -4.0054    -1.4706     3.8000 C.3     
  15 O15           -1.7585     2.1977     7.9475 O.3     
  16 C16           -2.0200     1.3616     6.9047 C.ar    
  17 C17           -1.0684     1.4983     5.9016 C.ar    
  18 C18           -0.0714     2.5390     6.3720 C.3     
  19 C19           -0.3864     2.6216     7.8844 C.3     
  20 C20           -1.1526     0.7501     4.7476 C.ar    
  21 C21           -3.0538     0.4477     6.7349 C.ar    
  22 N22           -1.5958    -1.1875     1.3932 N.am    
  23 C23           -2.4511    -0.4359     2.1148 C.2     
  24 C24           -1.6611    -2.2864     3.3992 C.ar    
  25 C25           -1.3309    -3.2768     4.2971 C.ar    
  26 C26           -0.4499    -4.2787     3.9308 C.ar    
  27 C27            0.0987    -4.2827     2.6612 C.ar    
  28 C28           -0.2288    -3.2927     1.7583 C.ar    
  29 C29           -1.1154    -2.2807     2.1181 C.ar    
  30 O30           -3.0229     0.5682     1.7461 O.2     
  31 H31            1.5764     2.8046     0.0018 H       
  32 H32           -2.0383    -0.3854    -0.4935 H       
  33 H33           -0.9889    -1.8231    -0.5111 H       
  34 H34           -4.1940    -2.5165     3.5581 H       
  35 H35           -4.7092    -0.8193     3.2817 H       
  36 H36            0.9516     2.2021     6.2049 H       
  37 H37           -0.2491     3.4973     5.8840 H       
  38 H38           -0.2813     3.6448     8.2454 H       
  39 H39            0.2535     1.9440     8.4497 H       
  40 H40           -0.4095     0.8685     3.9729 H       
  41 H41           -3.7955     0.3295     7.5110 H       
  42 H42           -1.7603    -3.2717     5.2880 H       
  43 H43           -0.1909    -5.0556     4.6348 H       
  44 H44            0.7865    -5.0647     2.3753 H       
  45 H45            0.2044    -3.3020     0.7690 H       
@<TRIPOS>BOND
   1    1    2 1
   2    1    5 1
   3    2    3 2
   4    2    9 1
   5    3    4 1
   6    4    5 2
   7    4    6 1
   8    5   31 1
   9    6    7 ar
  10    6    8 ar
  11    9   22 1
  12    9   32 1
  13    9   33 1
  14   10   11 1
  15   10   14 1
  16   11   12 ar
  17   11   21 ar
  18   12   13 1
  19   12   20 ar
  20   13   14 1
  21   13   23 1
  22   13   24 1
  23   14   34 1
  24   14   35 1
  25   15   16 1
  26   15   19 1
  27   16   17 ar
  28   16   21 ar
  29   17   18 1
  30   17   20 ar
  31   18   19 1
  32   18   36 1
  33   18   37 1
  34   19   38 1
  35   19   39 1
  36   20   40 1
  37   21   41 1
  38   22   23 am
  39   22   29 1
  40   23   30 2
  41   24   25 ar
  42   24   29 ar
  43   25   26 ar
  44   25   42 1
  45   26   27 ar
  46   26   43 1
  47   27   28 ar
  48   27   44 1
  49   28   29 ar
  50   28   45 1

#	End of record

