#	Name: ASD02500022
#	Creating user name:	WinNT
#	Creation time:	15. 06. 2019 20:22

#	Modifying user name:	WinNT
#	Modification time:	15. 06. 2019 20:22

#	Program:	/corina/corina34_cracker 3.40 0067  02.08.2006

@<TRIPOS>MOLECULE
ASD02500022
  55   57    0    0    0
SMALL
NO_CHARGES


@<TRIPOS>ATOM
   1 C1            -0.6150     0.3625    -1.5040 C.ar    
   2 C2             0.0400     0.0543    -0.3131 C.ar    
   3 C3            -0.5272     0.4232     0.9052 C.ar    
   4 C4            -1.7487     1.0999     0.9282 C.ar    
   5 C5            -2.3968     1.4046    -0.2584 C.ar    
   6 C6            -1.8333     1.0446    -1.4724 C.ar    
   7 C7            -0.0182    -0.0263    -2.7986 C.2     
   8 O8             1.0439    -0.6151    -2.8253 O.2     
   9 O9            -0.6520     0.2721    -3.9492 O.3     
  10 C10           -0.0074    -0.1405    -5.1831 C.3     
  11 C11            0.1626     0.0985     2.1709 C.2     
  12 O12            1.2247    -0.4904     2.1500 O.2     
  13 O13           -0.3865     0.4556     3.3480 O.3     
  14 C14            0.3467     0.1041     4.5510 C.3     
  15 O15           -3.5852     2.0632    -0.2317 O.3     
  16 C16           -3.5688     3.3978     0.0158 C.ar    
  17 C17           -2.3599     4.0510     0.2129 C.ar    
  18 C18           -2.3376     5.4057     0.4645 C.ar    
  19 C19           -3.5336     6.1263     0.5220 C.ar    
  20 C20           -4.7520     5.4702     0.3238 C.ar    
  21 C21           -4.7677     4.1119     0.0660 C.ar    
  22 C22           -3.5105     7.5760     0.7917 C.2     
  23 O23           -2.3354     8.2070     0.9830 O.3     
  24 O24           -4.5511     8.2014     0.8414 O.2     
  25 C25           -2.3884     9.6344     1.2437 C.3     
  26 N26           -5.9861     3.4506    -0.1332 N.am    
  27 C27           -7.1089     3.9167     0.4488 C.2     
  28 C28           -8.3728     3.1596     0.3284 C.ar    
  29 O29           -7.0822     4.9597     1.0727 O.2     
  30 C30           -9.5371     3.6397     0.9299 C.ar    
  31 C31          -10.7147     2.9280     0.8140 C.ar    
  32 C32          -10.7419     1.7404     0.1028 C.ar    
  33 C33           -9.5901     1.2588    -0.4957 C.ar    
  34 C34           -8.4079     1.9647    -0.3921 C.ar    
  35 Cl35          -9.6340    -0.2318    -1.3844 Cl      
  36 Cl36         -12.1638     3.5232     1.5620 Cl      
  37 H37            0.9843    -0.4694    -0.3343 H       
  38 H38           -2.1891     1.3859     1.8720 H       
  39 H39           -2.3413     1.2841    -2.3949 H       
  40 H40            0.9720     0.3323    -5.2570 H       
  41 H41            0.1111    -1.2240    -5.1864 H       
  42 H42           -0.6212     0.1606    -6.0320 H       
  43 H43           -0.2044     0.4486     5.4261 H       
  44 H44            0.4667    -0.9782     4.6002 H       
  45 H45            1.3281     0.5779     4.5299 H       
  46 H46           -1.4345     3.4960     0.1692 H       
  47 H47           -1.3954     5.9107     0.6177 H       
  48 H48           -5.6784     6.0237     0.3678 H       
  49 H49           -2.8588    10.1405     0.4007 H       
  50 H50           -2.9696     9.8173     2.1476 H       
  51 H51           -1.3767    10.0170     1.3787 H       
  52 H52           -6.0219     2.6571    -0.6900 H       
  53 H53           -9.5170     4.5658     1.4853 H       
  54 H54          -11.6654     1.1873     0.0149 H       
  55 H55           -7.5100     1.5881    -0.8594 H       
@<TRIPOS>BOND
   1    1    2 ar
   2    1    7 1
   3    1    6 ar
   4    2    3 ar
   5    2   37 1
   6    3    4 ar
   7    3   11 1
   8    4    5 ar
   9    4   38 1
  10    5    6 ar
  11    5   15 1
  12    6   39 1
  13    7    8 2
  14    7    9 1
  15    9   10 1
  16   10   40 1
  17   10   41 1
  18   10   42 1
  19   11   12 2
  20   11   13 1
  21   13   14 1
  22   14   43 1
  23   14   44 1
  24   14   45 1
  25   15   16 1
  26   16   17 ar
  27   16   21 ar
  28   17   18 ar
  29   17   46 1
  30   18   19 ar
  31   18   47 1
  32   19   20 ar
  33   19   22 1
  34   20   21 ar
  35   20   48 1
  36   21   26 1
  37   22   23 1
  38   22   24 2
  39   23   25 1
  40   25   49 1
  41   25   50 1
  42   25   51 1
  43   26   27 am
  44   26   52 1
  45   27   28 1
  46   27   29 2
  47   28   30 ar
  48   28   34 ar
  49   30   31 ar
  50   30   53 1
  51   31   32 ar
  52   31   36 1
  53   32   33 ar
  54   32   54 1
  55   33   34 ar
  56   33   35 1
  57   34   55 1

#	End of record

