#	Name: ASD01810505
#	Creating user name:	WinNT
#	Creation time:	15. 06. 2019 19:24

#	Modifying user name:	WinNT
#	Modification time:	15. 06. 2019 19:24

#	Program:	/corina/corina34_cracker 3.40 0067  02.08.2006

@<TRIPOS>MOLECULE
ASD01810505
  82   84    0    0    0
SMALL
NO_CHARGES


@<TRIPOS>ATOM
   1 C1             0.0099     1.4260    -0.0858 C.ar    
   2 C2             0.0120     0.0392    -0.0888 C.ar    
   3 C3             1.1992    -0.6637    -0.0667 C.ar    
   4 C4             2.4174     0.0166    -0.0405 C.ar    
   5 C5             2.4102     1.4205    -0.0487 C.ar    
   6 C6             1.1997     2.1196    -0.0662 C.ar    
   7 N7             3.5942    -0.7094     0.0031 N.3     
   8 C8             4.7506     0.0010    -0.5445 C.3     
   9 C9             4.9387     1.3300     0.2014 C.3     
  10 C10            3.6876     2.1534    -0.0483 C.2     
  11 C11            3.4286    -2.0198    -0.6399 C.3     
  12 C12            4.7836    -2.6068    -0.9404 C.ar    
  13 C13            5.4144    -3.4044    -0.0040 C.ar    
  14 C14            6.6574    -3.9429    -0.2795 C.ar    
  15 C15            7.2694    -3.6841    -1.4917 C.ar    
  16 C16            6.6382    -2.8873    -2.4285 C.ar    
  17 C17            5.3933    -2.3524    -2.1546 C.ar    
  18 F18            1.1821    -2.0146    -0.0700 F       
  19 O19            3.7376     3.3506    -0.2377 O.2     
  20 C20            5.1009     1.0739     1.6776 C.2     
  21 N21            5.2799     2.1065     2.5250 N.am    
  22 O22            5.0703    -0.0614     2.1030 O.2     
  23 C23            6.6634     6.3587    11.2918 C.3     
  24 C24            6.8218     6.1085    12.7337 C.1     
  25 C25            6.9481     5.9090    13.8837 C.1     
  26 C26            7.1065     5.6588    15.3256 C.3     
  27 O27            7.2807     6.9019    16.0084 O.3     
  28 C28            7.4411     6.8482    17.3501 C.2     
  29 N29            7.4510     5.7857    18.0591 N.2     
  30 C30            7.6462     8.0390    18.2670 C.3     
  31 C31            7.3683     7.4364    19.6652 C.3     
  32 O32            7.6453     6.0382    19.4365 O.3     
  33 N33            6.4843     5.0808    10.5898 N.4     
  34 C34            7.6613     4.2304    10.8129 C.3     
  35 C35            5.2864     4.4034    11.1038 C.3     
  36 C36            5.4375     1.8575     3.9601 C.3     
  37 C37            5.6240     3.1885     4.6912 C.3     
  38 C38            5.7886     2.9285     6.1899 C.3     
  39 C39            5.9752     4.2595     6.9210 C.3     
  40 C40            6.1398     3.9994     8.4198 C.3     
  41 C41            6.3263     5.3304     9.1509 C.3     
  42 H42           -0.9268     1.9634    -0.1033 H       
  43 H43           -0.9256    -0.4963    -0.1083 H       
  44 H44            1.1975     3.1996    -0.0644 H       
  45 H45            5.6436    -0.6122    -0.4244 H       
  46 H46            4.5865     0.1993    -1.6037 H       
  47 H47            5.8129     1.8539    -0.1853 H       
  48 H48            2.8840    -2.6864     0.0288 H       
  49 H49            2.8701    -1.9009    -1.5684 H       
  50 H50            4.9362    -3.6065     0.9431 H       
  51 H51            7.1505    -4.5654     0.4523 H       
  52 H52            8.2408    -4.1042    -1.7068 H       
  53 H53            7.1165    -2.6849    -3.3754 H       
  54 H54            4.9001    -1.7298    -2.8865 H       
  55 H55            5.3044     3.0145     2.1848 H       
  56 H56            5.7901     6.9896    11.1263 H       
  57 H57            7.5523     6.8613    10.9104 H       
  58 H58            6.2176     5.1562    15.7070 H       
  59 H59            7.9798     5.0279    15.4911 H       
  60 H60            8.6701     8.4069    18.2006 H       
  61 H61            6.9334     8.8312    18.0382 H       
  62 H62            8.0467     7.8504    20.4111 H       
  63 H63            6.3292     7.5889    19.9569 H       
  64 H64            8.5501     4.7330    10.4316 H       
  65 H65            7.7785     4.0452    11.8806 H       
  66 H66            7.5284     3.2822    10.2920 H       
  67 H67            5.1535     3.4552    10.5829 H       
  68 H68            5.4037     4.2182    12.1715 H       
  69 H69            4.4131     5.0344    10.9383 H       
  70 H70            4.5487     1.3549     4.3414 H       
  71 H71            6.3108     1.2266     4.1256 H       
  72 H72            6.5129     3.6911     4.3098 H       
  73 H73            4.7507     3.8194     4.5257 H       
  74 H74            4.8998     2.4259     6.5713 H       
  75 H75            6.6619     2.2975     6.3554 H       
  76 H76            6.8640     4.7620     6.5397 H       
  77 H77            5.1019     4.8904     6.7555 H       
  78 H78            5.2509     3.4969     8.8011 H       
  79 H79            7.0131     3.3685     8.5853 H       
  80 H80            5.4530     5.9614     8.9853 H       
  81 H81            7.2151     5.8330     8.7695 H       
  82 Br82          13.6701    13.8312    25.4111 Br      
@<TRIPOS>BOND
   1    1    2 ar
   2    1    6 ar
   3    1   42 1
   4    2    3 ar
   5    2   43 1
   6    3    4 ar
   7    3   18 1
   8    4    5 ar
   9    4    7 1
  10    5    6 ar
  11    5   10 1
  12    6   44 1
  13    7    8 1
  14    7   11 1
  15    8    9 1
  16    8   45 1
  17    8   46 1
  18    9   10 1
  19    9   20 1
  20    9   47 1
  21   10   19 2
  22   11   12 1
  23   11   48 1
  24   11   49 1
  25   12   13 ar
  26   12   17 ar
  27   13   14 ar
  28   13   50 1
  29   14   15 ar
  30   14   51 1
  31   15   16 ar
  32   15   52 1
  33   16   17 ar
  34   16   53 1
  35   17   54 1
  36   20   21 am
  37   20   22 2
  38   21   36 1
  39   21   55 1
  40   23   24 1
  41   23   33 1
  42   23   56 1
  43   23   57 1
  44   24   25 3
  45   25   26 1
  46   26   27 1
  47   26   58 1
  48   26   59 1
  49   27   28 1
  50   28   29 2
  51   28   30 1
  52   29   32 1
  53   30   31 1
  54   30   60 1
  55   30   61 1
  56   31   32 1
  57   31   62 1
  58   31   63 1
  59   33   41 1
  60   33   34 1
  61   33   35 1
  62   34   64 1
  63   34   65 1
  64   34   66 1
  65   35   67 1
  66   35   68 1
  67   35   69 1
  68   36   37 1
  69   36   70 1
  70   36   71 1
  71   37   38 1
  72   37   72 1
  73   37   73 1
  74   38   39 1
  75   38   74 1
  76   38   75 1
  77   39   40 1
  78   39   76 1
  79   39   77 1
  80   40   41 1
  81   40   78 1
  82   40   79 1
  83   41   80 1
  84   41   81 1

#	End of record

