#	Name: ASD01903200
#	Creating user name:	WinNT
#	Creation time:	15. 06. 2019 19:54

#	Modifying user name:	WinNT
#	Modification time:	15. 06. 2019 19:54

#	Program:	/corina/corina34_cracker 3.40 0067  02.08.2006

@<TRIPOS>MOLECULE
ASD01903200
  27   29    0    0    0
SMALL
NO_CHARGES


@<TRIPOS>ATOM
   1 S1            -0.0242     1.7575    -0.0297 S.3     
   2 C2             0.0013    -0.0032    -0.0096 C.2     
   3 N3             1.2315    -0.4158    -0.0142 N.2     
   4 C4             2.1773     0.5134    -0.0320 C.2     
   5 C5             1.7377     1.7835    -0.0433 C.2     
   6 N6            -1.1186    -0.8212     0.0090 N.pl3   
   7 C7            -2.3869    -0.2616     0.1295 C.ar    
   8 N8            -2.5129     1.0409     0.3311 N.ar    
   9 C9            -3.6968     1.6112     0.4504 C.ar    
  10 C10           -4.8544     0.8636     0.3684 C.ar    
  11 C11           -4.7658    -0.5062     0.1575 C.ar    
  12 C12           -3.5114    -1.0749     0.0312 C.ar    
  13 C13            3.6217     0.1744    -0.0386 C.2     
  14 C14            4.2317    -1.1613    -0.0279 C.2     
  15 N15            5.5362    -0.9664    -0.0395 N.2     
  16 N16            5.8053     0.2874    -0.0557 N.pl3   
  17 C17            4.6830     1.0351    -0.0621 C.2     
  18 C18            3.5489    -2.4199    -0.0082 C.1     
  19 N19            3.0073    -3.4184     0.0074 N.1     
  20 H20            2.3576     2.6678    -0.0582 H       
  21 H21           -1.0177    -1.7833    -0.0619 H       
  22 H22           -3.7610     2.6767     0.6146 H       
  23 H23           -5.8190     1.3390     0.4675 H       
  24 H24           -5.6566    -1.1131     0.0896 H       
  25 H25           -3.4060    -2.1371    -0.1335 H       
  26 H26            6.7039     0.6524    -0.0663 H       
  27 H27            4.6324     2.1138    -0.0756 H       
@<TRIPOS>BOND
   1    1    2 1
   2    1    5 1
   3    2    3 2
   4    2    6 1
   5    3    4 1
   6    4    5 2
   7    4   13 1
   8    5   20 1
   9    6    7 1
  10    6   21 1
  11    7    8 ar
  12    7   12 ar
  13    8    9 ar
  14    9   10 ar
  15    9   22 1
  16   10   11 ar
  17   10   23 1
  18   11   12 ar
  19   11   24 1
  20   12   25 1
  21   13   14 1
  22   13   17 2
  23   14   15 2
  24   14   18 1
  25   15   16 1
  26   16   17 1
  27   16   26 1
  28   17   27 1
  29   18   19 3

#	End of record

