#	Name: ASD02030220
#	Creating user name:	WinNT
#	Creation time:	15. 06. 2019 20:14

#	Modifying user name:	WinNT
#	Modification time:	15. 06. 2019 20:14

#	Program:	/corina/corina34_cracker 3.40 0067  02.08.2006

@<TRIPOS>MOLECULE
ASD02030220
  59   63    0    0    0
SMALL
NO_CHARGES


@<TRIPOS>ATOM
   1 N1            -0.0447     1.8305     0.0659 N.am    
   2 C2             0.1894     0.3988    -0.1691 C.3     
   3 C3            -0.5687    -0.4031     0.8960 C.3     
   4 N4            -1.9526     0.0876     0.9567 N.am    
   5 C5            -2.1868     1.5194     1.1918 C.3     
   6 C6            -1.4288     2.3203     0.1322 C.3     
   7 C7             0.9912     2.6782     0.2235 C.2     
   8 C8             2.3733     2.1556     0.2711 C.2     
   9 N9             3.4556     2.8537     0.5391 N.2     
  10 N10            2.7452     0.8807     0.0535 N.2     
  11 C11            4.0459     0.8268     0.1877 C.2     
  12 N12            4.4762     2.0686     0.4915 N.pl3   
  13 C13            5.8081     2.4417     0.7172 C.ar    
  14 O14            0.7891     3.8724     0.3265 O.2     
  15 C15           -2.9885    -0.7600     0.7992 C.2     
  16 C16           -2.7414    -2.1641     0.4420 C.2     
  17 O17           -4.1282    -0.3629     0.9526 O.2     
  18 C18            6.1187     3.7595     1.0233 C.ar    
  19 C19            7.4336     4.1243     1.2453 C.ar    
  20 C20            8.4389     3.1771     1.1621 C.ar    
  21 C21            8.1314     1.8639     0.8568 C.ar    
  22 C22            6.8190     1.4925     0.6406 C.ar    
  23 C23           -3.6839     1.8182     1.0906 C.3     
  24 Cl24           7.8238     5.7720     1.6283 Cl      
  25 C25           -3.7018    -3.0709     0.1262 C.2     
  26 C26           -3.0001    -4.3227    -0.1556 C.ar    
  27 C27           -1.6327    -4.0420     0.0234 C.ar    
  28 O28           -1.5255    -2.7453     0.3727 O.3     
  29 C29           -3.4085    -5.6051    -0.5304 C.ar    
  30 C30           -2.4751    -6.5841    -0.7220 C.ar    
  31 C31           -1.1248    -6.3128    -0.5463 C.ar    
  32 C32           -0.7014    -5.0546    -0.1769 C.ar    
  33 C33           -5.1894    -2.8351     0.0764 C.3     
  34 O34           -5.5611    -2.4135    -1.2375 O.3     
  35 C35           -6.9590    -2.1615    -1.3933 C.3     
  36 H36           -0.1744     0.1265    -1.1599 H       
  37 H37            1.2560     0.1859    -0.0971 H       
  38 H38           -0.5667    -1.4598     0.6286 H       
  39 H39           -0.0896    -0.2676     1.8657 H       
  40 H40           -1.8229     1.7917     2.1825 H       
  41 H41           -1.4316     3.3767     0.4008 H       
  42 H42           -1.9057     2.1859    -0.8386 H       
  43 H43            4.6626    -0.0530     0.0783 H       
  44 H44            5.3342     4.4990     1.0876 H       
  45 H45            9.4655     3.4640     1.3355 H       
  46 H46            8.9182     1.1269     0.7918 H       
  47 H47            6.5799     0.4665     0.4026 H       
  48 H48           -4.2083     1.3289     1.9114 H       
  49 H49           -3.8441     2.8949     1.1476 H       
  50 H50           -4.0658     1.4438     0.1409 H       
  51 H51           -4.4576    -5.8216    -0.6677 H       
  52 H52           -2.7896    -7.5758    -1.0117 H       
  53 H53           -0.3982    -7.0967    -0.7010 H       
  54 H54            0.3516    -4.8556    -0.0430 H       
  55 H55           -5.7123    -3.7591     0.3230 H       
  56 H56           -5.4590    -2.0619     0.7959 H       
  57 H57           -7.5186    -3.0716    -1.1771 H       
  58 H58           -7.2653    -1.3744    -0.7043 H       
  59 H59           -7.1595    -1.8463    -2.4173 H       
@<TRIPOS>BOND
   1    1    2 1
   2    1    7 am
   3    1    6 1
   4    2    3 1
   5    2   36 1
   6    2   37 1
   7    3    4 1
   8    3   38 1
   9    3   39 1
  10    4    5 1
  11    4   15 am
  12    5    6 1
  13    5   23 1
  14    5   40 1
  15    6   41 1
  16    6   42 1
  17    7    8 1
  18    7   14 2
  19    8    9 2
  20    8   10 1
  21    9   12 1
  22   10   11 2
  23   11   12 1
  24   11   43 1
  25   12   13 1
  26   13   18 ar
  27   13   22 ar
  28   15   16 1
  29   15   17 2
  30   16   25 2
  31   16   28 1
  32   18   19 ar
  33   18   44 1
  34   19   20 ar
  35   19   24 1
  36   20   21 ar
  37   20   45 1
  38   21   22 ar
  39   21   46 1
  40   22   47 1
  41   23   48 1
  42   23   49 1
  43   23   50 1
  44   25   26 1
  45   25   33 1
  46   26   27 ar
  47   26   29 ar
  48   27   28 1
  49   27   32 ar
  50   29   30 ar
  51   29   51 1
  52   30   31 ar
  53   30   52 1
  54   31   32 ar
  55   31   53 1
  56   32   54 1
  57   33   34 1
  58   33   55 1
  59   33   56 1
  60   34   35 1
  61   35   57 1
  62   35   58 1
  63   35   59 1

#	End of record

