#	Name: ASD00842212
#	Creating user name:	WinNT
#	Creation time:	15. 06. 2019 18:43

#	Modifying user name:	WinNT
#	Modification time:	15. 06. 2019 18:43

#	Program:	/corina/corina34_cracker 3.40 0067  02.08.2006

@<TRIPOS>MOLECULE
ASD00842212
 100  105    0    0    0
SMALL
NO_CHARGES


@<TRIPOS>ATOM
   1 F1             5.9962    -1.6865    -2.1843 F       
   2 C2             0.8716     1.5120    -0.7171 C.ar    
   3 C3             1.2091     0.1736    -0.8545 C.ar    
   4 C4             1.1950    -0.6604     0.2544 C.ar    
   5 C5             0.8451    -0.1562     1.4918 C.ar    
   6 C6             0.5086     1.1784     1.6260 C.ar    
   7 C7             0.5224     2.0114     0.5228 C.ar    
   8 C8             1.5606    -2.1151     0.1086 C.3     
   9 C9             1.3506    -2.8480     1.4162 C.2     
  10 C10            0.7388    -2.7636    -1.0071 C.3     
  11 C11           -0.7282    -2.5372    -0.7471 C.2     
  12 N12           -1.6496    -3.0773    -1.5692 N.am    
  13 O13           -1.0797    -1.8689     0.2020 O.2     
  14 C14           -3.0762    -2.7694    -1.3998 C.3     
  15 C15           -3.8547    -4.0842    -1.2899 C.3     
  16 C16           -3.5408    -4.9613    -2.5041 C.3     
  17 C17           -2.0454    -5.2860    -2.5281 C.3     
  18 C18           -1.2458    -3.9804    -2.6555 C.3     
  19 C19           -4.3432    -6.2610    -2.4152 C.3     
  20 C20           -5.8397    -5.9379    -2.3928 C.3     
  21 C21           -6.6381    -7.2432    -2.3653 C.3     
  22 N22           -6.3097    -8.0444    -3.5513 N.3     
  23 C23           -4.8868    -8.4069    -3.5699 C.3     
  24 C24           -4.0361    -7.1363    -3.6334 C.3     
  25 C25           -7.1587    -9.2406    -3.6301 C.3     
  26 O26            0.2998    -2.9787     2.0077 O.2     
  27 N27            2.5460    -3.3272     1.7989 N.am    
  28 C28            3.0402    -2.2644    -0.1643 C.ar    
  29 C29            3.5598    -3.0029     0.8941 C.ar    
  30 C30            3.8486    -1.8250    -1.1893 C.ar    
  31 C31            5.2017    -2.1158    -1.1795 C.ar    
  32 C32            5.7417    -2.8571    -0.1236 C.ar    
  33 C33            4.9176    -3.2993     0.9109 C.ar    
  34 C34            2.5675    -5.9011     2.7730 C.ar    
  35 C35            1.3220    -6.3592     2.3677 C.ar    
  36 C36            3.6352    -6.7752     2.8492 C.ar    
  37 C37            3.4657    -8.1066     2.5220 C.ar    
  38 C38            2.2219    -8.5698     2.1161 C.ar    
  39 C39            1.1493    -7.6952     2.0392 C.ar    
  40 O40            2.0557    -9.8797     1.7947 O.3     
  41 O41            0.2723    -5.4994     2.2933 O.3     
  42 C42            3.2042   -10.7237     1.8974 C.3     
  43 C43           -0.9804    -6.0401     1.8686 C.3     
  44 C44           -2.0337    -4.9306     1.8468 C.3     
  45 C45           -6.9667    -9.9136    -4.9907 C.3     
  46 O46            1.5526    -0.3202    -2.0732 O.3     
  47 C47            1.9596    -0.1281    -4.4476 C.3     
  48 C48            1.4371     0.5660    -3.1882 C.3     
  49 S49            2.7896    -4.2021     3.1836 S.o2    
  50 O50            4.1613    -4.0467     3.5204 O.2     
  51 O51            1.7292    -3.8606     4.0658 O.2     
  52 C52            7.1405    -3.1627    -0.1051 C.1     
  53 N53            8.2503    -3.4051    -0.0904 N.1     
  54 H54            0.8862     2.1641    -1.5779 H       
  55 H55            0.8340    -0.8049     2.3552 H       
  56 H56            0.2347     1.5705     2.5943 H       
  57 H57            0.2592     3.0533     0.6302 H       
  58 H58            1.0110    -2.3188    -1.9643 H       
  59 H59            0.9422    -3.8341    -1.0330 H       
  60 H60           -3.2183    -2.1836    -0.4917 H       
  61 H61           -3.4328    -2.2045    -2.2611 H       
  62 H62           -3.5613    -4.6056    -0.3788 H       
  63 H63           -4.9236    -3.8727    -1.2605 H       
  64 H64           -3.8115    -4.4293    -3.4161 H       
  65 H65           -1.7690    -5.7961    -1.6053 H       
  66 H66           -1.8265    -5.9299    -3.3799 H       
  67 H67           -1.4544    -3.5169    -3.6198 H       
  68 H68           -0.1803    -4.1950    -2.5737 H       
  69 H69           -4.0721    -6.7948    -1.5043 H       
  70 H70           -6.0720    -5.3505    -1.5045 H       
  71 H71           -6.1026    -5.3693    -3.2848 H       
  72 H72           -6.3849    -7.8049    -1.4661 H       
  73 H73           -7.7043    -7.0168    -2.3638 H       
  74 H74           -4.6418    -8.9631    -2.6651 H       
  75 H75           -4.6810    -9.0257    -4.4433 H       
  76 H76           -4.2706    -6.5865    -4.5449 H       
  77 H77           -2.9798    -7.4051    -3.6314 H       
  78 H78           -6.8809    -9.9362    -2.8382 H       
  79 H79           -8.2034    -8.9532    -3.5112 H       
  80 H80            3.4259    -1.2529    -2.0020 H       
  81 H81            5.3349    -3.8717     1.7261 H       
  82 H82            4.6039    -6.4167     3.1649 H       
  83 H83            4.3019    -8.7876     2.5817 H       
  84 H84            0.1805    -8.0537     1.7239 H       
  85 H85            3.9859   -10.3559     1.2327 H       
  86 H86            3.5686   -10.7181     2.9247 H       
  87 H87            2.9343   -11.7407     1.6132 H       
  88 H88           -0.8744    -6.4601     0.8684 H       
  89 H89           -1.2915    -6.8229     2.5603 H       
  90 H90           -2.9892    -5.3430     1.5228 H       
  91 H91           -2.1396    -4.5105     2.8470 H       
  92 H92           -1.7225    -4.1478     1.1550 H       
  93 H93           -5.9220   -10.2011    -5.1096 H       
  94 H94           -7.5966   -10.8012    -5.0491 H       
  95 H95           -7.2445    -9.2180    -5.7825 H       
  96 H96            1.9532     0.5759    -5.2797 H       
  97 H97            2.9778    -0.4767    -4.2744 H       
  98 H98            1.3202    -0.9781    -4.6858 H       
  99 H99            0.3908     0.8369    -3.3302 H       
 100 H100           2.0229     1.4656    -2.9996 H       
@<TRIPOS>BOND
   1    1   31 1
   2    2    3 ar
   3    2    7 ar
   4    2   54 1
   5    3    4 ar
   6    3   46 1
   7    4    5 ar
   8    4    8 1
   9    5    6 ar
  10    5   55 1
  11    6    7 ar
  12    6   56 1
  13    7   57 1
  14    8    9 1
  15    8   10 1
  16    8   28 1
  17    9   26 2
  18    9   27 am
  19   10   11 1
  20   10   58 1
  21   10   59 1
  22   11   12 am
  23   11   13 2
  24   12   14 1
  25   12   18 1
  26   14   15 1
  27   14   60 1
  28   14   61 1
  29   15   16 1
  30   15   62 1
  31   15   63 1
  32   16   17 1
  33   16   19 1
  34   16   64 1
  35   17   18 1
  36   17   65 1
  37   17   66 1
  38   18   67 1
  39   18   68 1
  40   19   20 1
  41   19   24 1
  42   19   69 1
  43   20   21 1
  44   20   70 1
  45   20   71 1
  46   21   22 1
  47   21   72 1
  48   21   73 1
  49   22   23 1
  50   22   25 1
  51   23   24 1
  52   23   74 1
  53   23   75 1
  54   24   76 1
  55   24   77 1
  56   25   45 1
  57   25   78 1
  58   25   79 1
  59   27   49 am
  60   27   29 1
  61   28   29 ar
  62   28   30 ar
  63   29   33 ar
  64   30   31 ar
  65   30   80 1
  66   31   32 ar
  67   32   33 ar
  68   32   52 1
  69   33   81 1
  70   34   35 ar
  71   34   36 ar
  72   34   49 1
  73   35   41 1
  74   35   39 ar
  75   36   37 ar
  76   36   82 1
  77   37   38 ar
  78   37   83 1
  79   38   39 ar
  80   38   40 1
  81   39   84 1
  82   40   42 1
  83   41   43 1
  84   42   85 1
  85   42   86 1
  86   42   87 1
  87   43   44 1
  88   43   88 1
  89   43   89 1
  90   44   90 1
  91   44   91 1
  92   44   92 1
  93   45   93 1
  94   45   94 1
  95   45   95 1
  96   46   48 1
  97   47   48 1
  98   47   96 1
  99   47   97 1
 100   47   98 1
 101   48   99 1
 102   48  100 1
 103   49   50 2
 104   49   51 2
 105   52   53 3

#	End of record

