#	Name: ASD08150175
#	Creating user name:	WinNT
#	Creation time:	15. 06. 2019 21:15

#	Modifying user name:	WinNT
#	Modification time:	15. 06. 2019 21:15

#	Program:	/corina/corina34_cracker 3.40 0067  02.08.2006

@<TRIPOS>MOLECULE
ASD08150175
  53   55    0    0    0
SMALL
NO_CHARGES


@<TRIPOS>ATOM
   1 O1             0.7921     3.4451    -2.1016 O.3     
   2 C2             0.4393     2.3202    -1.4695 C.2     
   3 N3             1.4783     1.5718    -1.0745 N.am    
   4 C4             2.7260     2.2419    -1.4718 C.3     
   5 C5             2.2451     3.5256    -2.1755 C.3     
   6 O6            -0.7176     2.0061    -1.2711 O.2     
   7 C7             2.7519     4.7650    -1.4353 C.3     
   8 C8             3.5225     1.3646    -2.4397 C.3     
   9 O9             3.9725     0.1915    -1.7591 O.3     
  10 Si10           4.7463    -0.8765    -2.7187 Si      
  11 C11            6.1252    -0.0078    -3.6318 C.ar    
  12 C12            7.4304    -0.4386    -3.4845 C.ar    
  13 C13            8.4508     0.2043    -4.1602 C.ar    
  14 C14            8.1658     1.2775    -4.9835 C.ar    
  15 C15            6.8604     1.7077    -5.1315 C.ar    
  16 C16            5.8396     1.0621    -4.4592 C.ar    
  17 C17            5.4605    -2.2497    -1.6728 C.ar    
  18 C18            6.6705    -2.0703    -1.0291 C.ar    
  19 C19            7.1990    -3.0865    -0.2551 C.ar    
  20 C20            6.5172    -4.2819    -0.1247 C.ar    
  21 C21            5.3067    -4.4610    -0.7677 C.ar    
  22 C22            4.7761    -3.4432    -1.5381 C.ar    
  23 C23            3.5430    -1.5931    -3.9471 C.3     
  24 C24            3.3114    -0.5900    -5.0789 C.3     
  25 C25            4.1145    -2.8898    -4.5240 C.3     
  26 C26            2.2147    -1.8881    -3.2473 C.3     
  27 H27            1.4175     0.7261    -0.6033 H       
  28 H28            3.3248     2.4874    -0.5948 H       
  29 H29            2.5747     3.5383    -3.2144 H       
  30 H30            2.4312     4.7230    -0.3944 H       
  31 H31            3.8406     4.7945    -1.4792 H       
  32 H32            2.3449     5.6605    -1.9050 H       
  33 H33            2.8865     1.0774    -3.2771 H       
  34 H34            4.3827     1.9217    -2.8111 H       
  35 H35            7.6531    -1.2771    -2.8413 H       
  36 H36            9.4706    -0.1318    -4.0446 H       
  37 H37            8.9631     1.7802    -5.5108 H       
  38 H38            6.6378     2.5464    -5.7744 H       
  39 H39            4.8193     1.3958    -4.5777 H       
  40 H40            7.2032    -1.1364    -1.1310 H       
  41 H41            8.1448    -2.9466     0.2472 H       
  42 H42            6.9304    -5.0761     0.4794 H       
  43 H43            4.7742    -5.3950    -0.6660 H       
  44 H44            3.8286    -3.5817    -2.0375 H       
  45 H45            4.2692    -0.3084    -5.5165 H       
  46 H46            2.6819    -1.0444    -5.8440 H       
  47 H47            2.8180     0.2975    -4.6825 H       
  48 H48            4.1757    -3.6416    -3.7371 H       
  49 H49            3.4645    -3.2504    -5.3212 H       
  50 H50            5.1105    -2.7013    -4.9246 H       
  51 H51            1.7619    -0.9529    -2.9182 H       
  52 H52            1.5426    -2.3927    -3.9414 H       
  53 H53            2.3934    -2.5289    -2.3839 H       
@<TRIPOS>BOND
   1    1    2 1
   2    1    5 1
   3    2    3 am
   4    2    6 2
   5    3    4 1
   6    3   27 1
   7    4    5 1
   8    4    8 1
   9    4   28 1
  10    5    7 1
  11    5   29 1
  12    7   30 1
  13    7   31 1
  14    7   32 1
  15    8    9 1
  16    8   33 1
  17    8   34 1
  18    9   10 1
  19   10   11 1
  20   10   17 1
  21   10   23 1
  22   11   12 ar
  23   11   16 ar
  24   12   13 ar
  25   12   35 1
  26   13   14 ar
  27   13   36 1
  28   14   15 ar
  29   14   37 1
  30   15   16 ar
  31   15   38 1
  32   16   39 1
  33   17   18 ar
  34   17   22 ar
  35   18   19 ar
  36   18   40 1
  37   19   20 ar
  38   19   41 1
  39   20   21 ar
  40   20   42 1
  41   21   22 ar
  42   21   43 1
  43   22   44 1
  44   23   24 1
  45   23   26 1
  46   23   25 1
  47   24   45 1
  48   24   46 1
  49   24   47 1
  50   25   48 1
  51   25   49 1
  52   25   50 1
  53   26   51 1
  54   26   52 1
  55   26   53 1

#	End of record

