#	Name: ASD01820230
#	Creating user name:	WinNT
#	Creation time:	15. 06. 2019 19:36

#	Modifying user name:	WinNT
#	Modification time:	15. 06. 2019 19:36

#	Program:	/corina/corina34_cracker 3.40 0067  02.08.2006

@<TRIPOS>MOLECULE
ASD01820230
  33   33    0    0    0
SMALL
NO_CHARGES


@<TRIPOS>ATOM
   1 O1             0.0021    -0.0041     0.0020 O.2     
   2 C2            -0.0144     1.2086     0.0087 C.2     
   3 C3             1.2138     2.0919     0.0017 C.3     
   4 C4             0.6854     3.4795     0.4332 C.3     
   5 C5            -0.7999     3.3942     0.0173 C.3     
   6 N6            -1.1266     1.9634     0.0175 N.am    
   7 C7            -2.4896     1.4268     0.0342 C.3     
   8 C8            -2.9648     1.2511    -1.3478 C.1     
   9 C9            -3.3438     1.1110    -2.4501 C.1     
  10 C10           -3.8190     0.9353    -3.8322 C.3     
  11 N11           -5.1857     0.3972    -3.8154 N.4     
  12 C12           -6.0713     1.3318    -3.1082 C.3     
  13 C13           -5.6599     0.2219    -5.1947 C.3     
  14 C14           -5.1927    -0.9003    -3.1266 C.3     
  15 H15            1.9512     1.7255     0.7159 H       
  16 H16            1.6425     2.1413    -0.9992 H       
  17 H17            0.7817     3.6159     1.5104 H       
  18 H18            1.1965     4.2767    -0.1066 H       
  19 H19           -1.4238     3.9263     0.7355 H       
  20 H20           -0.9363     3.8084    -0.9816 H       
  21 H21           -2.4948     0.4640     0.5454 H       
  22 H22           -3.1467     2.1203     0.5590 H       
  23 H23           -3.8138     1.8981    -4.3433 H       
  24 H24           -3.1618     0.2419    -4.3569 H       
  25 H25           -6.0662     2.2946    -3.6193 H       
  26 H26           -7.0855     0.9325    -3.0957 H       
  27 H27           -5.7195     1.4619    -2.0848 H       
  28 H28           -5.0028    -0.4716    -5.7194 H       
  29 H29           -6.6741    -0.1774    -5.1822 H       
  30 H30           -5.6548     1.1846    -5.7058 H       
  31 H31           -4.8409    -0.7702    -2.1032 H       
  32 H32           -6.2069    -1.2996    -3.1141 H       
  33 H33           -4.5356    -1.5938    -3.6513 H       
@<TRIPOS>BOND
   1    1    2 2
   2    2    3 1
   3    2    6 am
   4    3    4 1
   5    3   15 1
   6    3   16 1
   7    4    5 1
   8    4   17 1
   9    4   18 1
  10    5    6 1
  11    5   19 1
  12    5   20 1
  13    6    7 1
  14    7    8 1
  15    7   21 1
  16    7   22 1
  17    8    9 3
  18    9   10 1
  19   10   11 1
  20   10   23 1
  21   10   24 1
  22   11   12 1
  23   11   13 1
  24   11   14 1
  25   12   25 1
  26   12   26 1
  27   12   27 1
  28   13   28 1
  29   13   29 1
  30   13   30 1
  31   14   31 1
  32   14   32 1
  33   14   33 1

#	End of record

