#	Name: ASD01200486
#	Creating user name:	WinNT
#	Creation time:	15. 06. 2019 19:09

#	Modifying user name:	WinNT
#	Modification time:	15. 06. 2019 19:09

#	Program:	/corina/corina34_cracker 3.40 0067  02.08.2006

@<TRIPOS>MOLECULE
ASD01200486
  22   23    0    0    0
SMALL
NO_CHARGES


@<TRIPOS>ATOM
   1 N1             2.2306     1.3387     0.5646 N.ar    
   2 C2             2.2415     0.0208     0.5646 C.ar    
   3 C3             1.2056    -0.6960    -0.0207 C.ar    
   4 C4             0.1516    -0.0017    -0.6089 C.ar    
   5 C5             0.1813     1.3832    -0.5853 C.ar    
   6 C6             1.2474     2.0255     0.0160 C.ar    
   7 N7             1.2212    -2.0949    -0.0195 N.am    
   8 C8             0.0667    -2.7816     0.0900 C.2     
   9 O9            -0.9775    -2.1887     0.2860 O.2     
  10 C10           -1.0546    -5.0111     0.0713 C.2     
  11 C11            0.0691    -4.2471    -0.0272 C.2     
  12 C12            1.2636    -5.0266    -0.2594 C.2     
  13 C13            1.0287    -6.3306    -0.3305 C.2     
  14 S14           -0.6808    -6.6637    -0.1142 S.3     
  15 Cl15          -2.6495    -4.3868     0.3545 Cl      
  16 H16            3.0642    -0.5070     1.0238 H       
  17 H17           -0.6685    -0.5297    -1.0725 H       
  18 H18           -0.6189     1.9544    -1.0322 H       
  19 H19            1.2753     3.1050     0.0375 H       
  20 H20            2.0630    -2.5706    -0.0975 H       
  21 H21            2.2468    -4.5923    -0.3646 H       
  22 H22            1.7849    -7.0831    -0.4985 H       
@<TRIPOS>BOND
   1    1    2 ar
   2    1    6 ar
   3    2    3 ar
   4    2   16 1
   5    3    4 ar
   6    3    7 1
   7    4    5 ar
   8    4   17 1
   9    5    6 ar
  10    5   18 1
  11    6   19 1
  12    7    8 am
  13    7   20 1
  14    8    9 2
  15    8   11 1
  16   10   11 2
  17   10   14 1
  18   10   15 1
  19   11   12 1
  20   12   13 2
  21   12   21 1
  22   13   14 1
  23   13   22 1

#	End of record

