#	Name: ASD01510092
#	Creating user name:	WinNT
#	Creation time:	15. 06. 2019 19:21

#	Modifying user name:	WinNT
#	Modification time:	15. 06. 2019 19:21

#	Program:	/corina/corina34_cracker 3.40 0067  02.08.2006

@<TRIPOS>MOLECULE
ASD01510092
  60   63    0    0    0
SMALL
NO_CHARGES


@<TRIPOS>ATOM
   1 C1             0.0051     1.8050    -0.6492 C.3     
   2 O2             0.1102     0.3936    -0.4523 O.3     
   3 C3            -1.0428    -0.2843    -0.2273 C.ar    
   4 N4            -2.2062     0.3570    -0.1958 N.ar    
   5 C5            -3.3365    -0.2974     0.0228 C.ar    
   6 N6            -3.3585    -1.6070     0.2180 N.ar    
   7 C7            -2.2357    -2.3173     0.2011 C.ar    
   8 C8            -1.0246    -1.6653    -0.0314 C.ar    
   9 S9             0.4919    -2.5619    -0.0637 S.3     
  10 C10            0.6463    -3.0185    -1.7585 C.ar    
  11 C11           -0.3314    -2.6424    -2.6727 C.ar    
  12 C12           -0.2106    -3.0002    -4.0015 C.ar    
  13 C13            0.8811    -3.7325    -4.4266 C.ar    
  14 C14            1.8626    -4.1115    -3.5183 C.ar    
  15 C15            1.7478    -3.7498    -2.1841 C.ar    
  16 N16            2.9671    -4.8526    -3.9500 N.am    
  17 C17            3.5026    -5.7936    -3.1474 C.2     
  18 O18            3.0805    -5.9401    -2.0168 O.2     
  19 C19            4.6032    -6.6476    -3.6418 C.ar    
  20 C20            5.1600    -7.6232    -2.8131 C.ar    
  21 C21            6.1870    -8.4168    -3.2807 C.ar    
  22 C22            6.6651    -8.2474    -4.5680 C.ar    
  23 C23            6.1176    -7.2823    -5.3946 C.ar    
  24 C24            5.0864    -6.4858    -4.9413 C.ar    
  25 O25           -2.2672    -3.6583     0.4024 O.3     
  26 C26           -3.5479    -4.2504     0.6287 C.3     
  27 N27           -4.5298     0.4082     0.0486 N.3     
  28 C28           -5.6662    -0.4881     0.3034 C.3     
  29 C29           -6.9511     0.3374     0.4031 C.3     
  30 N30           -7.1459     1.0883    -0.8450 N.3     
  31 C31           -6.0095     1.9846    -1.0998 C.3     
  32 C32           -4.7246     1.1591    -1.1995 C.3     
  33 C33           -8.4102     1.8359    -0.8178 C.3     
  34 H34            0.9974     2.2232    -0.8185 H       
  35 H35           -0.6260     2.0051    -1.5151 H       
  36 H36           -0.4362     2.2635     0.2358 H       
  37 H37           -1.1862    -2.0703    -2.3435 H       
  38 H38           -0.9716    -2.7072    -4.7096 H       
  39 H39            0.9719    -4.0110    -5.4661 H       
  40 H40            2.5092    -4.0427    -1.4764 H       
  41 H41            3.3479    -4.6894    -4.8271 H       
  42 H42            4.7879    -7.7561    -1.8079 H       
  43 H43            6.6189    -9.1717    -2.6405 H       
  44 H44            7.4695    -8.8711    -4.9291 H       
  45 H45            6.4954    -7.1552    -6.3983 H       
  46 H46            4.6597    -5.7331    -5.5876 H       
  47 H47           -3.9999    -3.8102     1.5175 H       
  48 H48           -4.1897    -4.0685    -0.2334 H       
  49 H49           -3.4310    -5.3243     0.7745 H       
  50 H50           -5.7558    -1.2032    -0.5144 H       
  51 H51           -5.5044    -1.0235     1.2390 H       
  52 H52           -7.7994    -0.3281     0.5632 H       
  53 H53           -6.8721     1.0337     1.2379 H       
  54 H54           -6.1713     2.5200    -2.0354 H       
  55 H55           -5.9199     2.6997    -0.2821 H       
  56 H56           -3.8763     1.8246    -1.3597 H       
  57 H57           -4.8035     0.4628    -2.0344 H       
  58 H58           -8.3986     2.5390     0.0150 H       
  59 H59           -8.5293     2.3825    -1.7532 H       
  60 H60           -9.2407     1.1408    -0.6949 H       
@<TRIPOS>BOND
   1    1    2 1
   2    1   34 1
   3    1   35 1
   4    1   36 1
   5    2    3 1
   6    3    4 ar
   7    3    8 ar
   8    4    5 ar
   9    5    6 ar
  10    5   27 1
  11    6    7 ar
  12    7    8 ar
  13    7   25 1
  14    8    9 1
  15    9   10 1
  16   10   11 ar
  17   10   15 ar
  18   11   12 ar
  19   11   37 1
  20   12   13 ar
  21   12   38 1
  22   13   14 ar
  23   13   39 1
  24   14   15 ar
  25   14   16 1
  26   15   40 1
  27   16   17 am
  28   16   41 1
  29   17   18 2
  30   17   19 1
  31   19   20 ar
  32   19   24 ar
  33   20   21 ar
  34   20   42 1
  35   21   22 ar
  36   21   43 1
  37   22   23 ar
  38   22   44 1
  39   23   24 ar
  40   23   45 1
  41   24   46 1
  42   25   26 1
  43   26   47 1
  44   26   48 1
  45   26   49 1
  46   27   28 1
  47   27   32 1
  48   28   29 1
  49   28   50 1
  50   28   51 1
  51   29   30 1
  52   29   52 1
  53   29   53 1
  54   30   31 1
  55   30   33 1
  56   31   32 1
  57   31   54 1
  58   31   55 1
  59   32   56 1
  60   32   57 1
  61   33   58 1
  62   33   59 1
  63   33   60 1

#	End of record

