#	Name: ASD01916947
#	Creating user name:	WinNT
#	Creation time:	15. 06. 2019 20:08

#	Modifying user name:	WinNT
#	Modification time:	15. 06. 2019 20:08

#	Program:	/corina/corina34_cracker 3.40 0067  02.08.2006

@<TRIPOS>MOLECULE
ASD01916947
  65   69    0    0    0
SMALL
NO_CHARGES


@<TRIPOS>ATOM
   1 C1            -0.1439     1.2316     0.2057 C.2     
   2 N2            -0.1806    -0.0552    -0.0668 N.2     
   3 N3            -1.5262    -0.4500     0.0069 N.pl3   
   4 C4            -2.2331     0.6581     0.3286 C.2     
   5 N5            -1.3874     1.6594     0.4503 N.2     
   6 C6             1.0793     2.0708     0.2420 C.ar    
   7 C7             0.9863     3.4279     0.5449 C.ar    
   8 C8             2.3242     1.5021    -0.0212 C.ar    
   9 C9             3.4594     2.2843     0.0137 C.ar    
  10 C10            3.3630     3.6371     0.3106 C.ar    
  11 C11           -2.0593    -1.7956    -0.2198 C.3     
  12 C12           -2.0564    -2.5622     1.0777 C.2     
  13 N13           -2.5064    -3.8321     1.1111 N.am    
  14 O14           -1.6492    -2.0363     2.0918 O.2     
  15 C15           -2.5124    -4.5982     2.3666 C.3     
  16 C16           -3.9106    -5.1922     2.5678 C.3     
  17 N17           -4.2912    -5.9561     1.3723 N.3     
  18 C18           -4.3834    -5.0871     0.1915 C.3     
  19 C19           -3.0102    -4.4867    -0.1058 C.3     
  20 C20           -5.4763    -6.6410     1.5778 C.ar    
  21 N21           -5.9710    -7.3855     0.5998 N.ar    
  22 C22           -7.1013    -8.0527     0.7635 C.ar    
  23 C23           -7.7685    -7.9656     1.9752 C.ar    
  24 C24           -7.2231    -7.1778     2.9768 C.ar    
  25 N25           -6.0864    -6.5407     2.7496 N.ar    
  26 C26           -3.6992     0.7303     0.5170 C.ar    
  27 C27            2.1249     4.2053     0.5784 C.ar    
  28 C28           -4.3556     1.9587     0.4397 C.ar    
  29 C29           -5.7227     2.0193     0.6163 C.ar    
  30 C30           -6.4422     0.8653     0.8700 C.ar    
  31 C31           -5.7970    -0.3560     0.9479 C.ar    
  32 C32           -4.4311    -0.4306     0.7670 C.ar    
  33 O33            4.4832     4.4053     0.3448 O.3     
  34 C34            4.3004     5.8115     0.5207 C.3     
  35 C35            4.3907     6.1553     2.0089 C.3     
  36 C36            5.3890     6.5670    -0.2442 C.3     
  37 H37            0.0234     3.8705     0.7529 H       
  38 H38            2.3998     0.4497    -0.2519 H       
  39 H39            4.4244     1.8441    -0.1898 H       
  40 H40           -3.0794    -1.7235    -0.5969 H       
  41 H41           -1.4379    -2.3144    -0.9497 H       
  42 H42           -1.7781    -5.4016     2.3088 H       
  43 H43           -2.2718    -3.9377     3.1997 H       
  44 H44           -3.9038    -5.8528     3.4348 H       
  45 H45           -4.6279    -4.3874     2.7289 H       
  46 H46           -4.7195    -5.6716    -0.6650 H       
  47 H47           -5.0941    -4.2838     0.3857 H       
  48 H48           -3.0969    -3.7543    -0.9084 H       
  49 H49           -2.3209    -5.2778    -0.4011 H       
  50 H50           -7.4998    -8.6577    -0.0375 H       
  51 H51           -8.6934    -8.4997     2.1355 H       
  52 H52           -7.7183    -7.0883     3.9324 H       
  53 H53            2.0529     5.2579     0.8090 H       
  54 H54           -3.7949     2.8604     0.2423 H       
  55 H55           -6.2321     2.9698     0.5566 H       
  56 H56           -7.5120     0.9180     1.0083 H       
  57 H57           -6.3641    -1.2534     1.1463 H       
  58 H58           -3.9285    -1.3847     0.8277 H       
  59 H59            3.3211     6.1011     0.1397 H       
  60 H60            4.2512     7.2280     2.1431 H       
  61 H61            3.6152     5.6171     2.5538 H       
  62 H62            5.3700     5.8658     2.3899 H       
  63 H63            5.3247     6.3221    -1.3044 H       
  64 H64            5.2495     7.6397    -0.1100 H       
  65 H65            6.3683     6.2775     0.1368 H       
@<TRIPOS>BOND
   1    1    2 2
   2    1    6 1
   3    1    5 1
   4    2    3 1
   5    3    4 1
   6    3   11 1
   7    4    5 2
   8    4   26 1
   9    6    7 ar
  10    6    8 ar
  11    7   27 ar
  12    7   37 1
  13    8    9 ar
  14    8   38 1
  15    9   10 ar
  16    9   39 1
  17   10   27 ar
  18   10   33 1
  19   11   12 1
  20   11   40 1
  21   11   41 1
  22   12   13 am
  23   12   14 2
  24   13   15 1
  25   13   19 1
  26   15   16 1
  27   15   42 1
  28   15   43 1
  29   16   17 1
  30   16   44 1
  31   16   45 1
  32   17   18 1
  33   17   20 1
  34   18   19 1
  35   18   46 1
  36   18   47 1
  37   19   48 1
  38   19   49 1
  39   20   21 ar
  40   20   25 ar
  41   21   22 ar
  42   22   23 ar
  43   22   50 1
  44   23   24 ar
  45   23   51 1
  46   24   25 ar
  47   24   52 1
  48   26   28 ar
  49   26   32 ar
  50   27   53 1
  51   28   29 ar
  52   28   54 1
  53   29   30 ar
  54   29   55 1
  55   30   31 ar
  56   30   56 1
  57   31   32 ar
  58   31   57 1
  59   32   58 1
  60   33   34 1
  61   34   35 1
  62   34   36 1
  63   34   59 1
  64   35   60 1
  65   35   61 1
  66   35   62 1
  67   36   63 1
  68   36   64 1
  69   36   65 1

#	End of record

