#	Name: ASD01910424
#	Creating user name:	WinNT
#	Creation time:	15. 06. 2019 19:55

#	Modifying user name:	WinNT
#	Modification time:	15. 06. 2019 19:55

#	Program:	/corina/corina34_cracker 3.40 0067  02.08.2006

@<TRIPOS>MOLECULE
ASD01910424
  42   45    0    0    0
SMALL
NO_CHARGES


@<TRIPOS>ATOM
   1 C1            -0.0663     1.4560    -0.0230 C.ar    
   2 C2            -0.0615     0.0706    -0.0470 C.ar    
   3 C3             1.1385    -0.6216    -0.0745 C.ar    
   4 C4             2.3342     0.0666    -0.0775 C.ar    
   5 C5             2.3339     1.4598    -0.0533 C.ar    
   6 C6             1.1249     2.1520    -0.0263 C.ar    
   7 F7            -1.2302    -0.6072    -0.0433 F       
   8 C8             3.6177     2.2044    -0.0560 C.2     
   9 N9             3.7633     3.5452    -0.0345 N.2     
  10 C10            5.0675     3.7590    -0.0466 C.2     
  11 O11            5.6589     2.5536    -0.0747 O.3     
  12 N12            4.8171     1.6807    -0.0739 N.2     
  13 C13            5.7419     5.0665    -0.0326 C.2     
  14 C14            7.2451     5.0937    -0.0503 C.3     
  15 N15            7.6996     6.4692    -0.2993 N.am    
  16 C16            7.0111     7.5510     0.4256 C.3     
  17 C17            5.5426     7.5492    -0.0065 C.3     
  18 C18            4.9988     6.1514    -0.0106 C.2     
  19 C19            8.7064     6.7302    -1.1564 C.2     
  20 O20            8.9919     7.8805    -1.4266 O.2     
  21 C21            9.4631     5.6183    -1.7675 C.ar    
  22 C22            9.9364     5.7289    -3.0767 C.ar    
  23 C23           10.6418     4.6884    -3.6420 C.ar    
  24 C24           10.8818     3.5335    -2.9133 C.ar    
  25 C25           10.4138     3.4182    -1.6132 C.ar    
  26 C26            9.7126     4.4551    -1.0361 C.ar    
  27 F27           11.5738     2.5166    -3.4722 F       
  28 H28           -1.0039     1.9918    -0.0061 H       
  29 H29            1.1378    -1.7015    -0.0932 H       
  30 H30            3.2691    -0.4737    -0.0982 H       
  31 H31            1.1203     3.2319    -0.0075 H       
  32 H32            7.6269     4.7525     0.9119 H       
  33 H33            7.6120     4.4400    -0.8415 H       
  34 H34            7.0795     7.3768     1.4994 H       
  35 H35            7.4672     8.5094     0.1774 H       
  36 H36            4.9629     8.1620     0.6838 H       
  37 H37            5.4616     7.9670    -1.0101 H       
  38 H38            3.9262     6.0275     0.0128 H       
  39 H39            9.7497     6.6279    -3.6452 H       
  40 H40           11.0080     4.7728    -4.6545 H       
  41 H41           10.6031     2.5163    -1.0501 H       
  42 H42            9.3488     4.3644    -0.0232 H       
@<TRIPOS>BOND
   1    1    2 ar
   2    1    6 ar
   3    1   28 1
   4    2    3 ar
   5    2    7 1
   6    3    4 ar
   7    3   29 1
   8    4    5 ar
   9    4   30 1
  10    5    6 ar
  11    5    8 1
  12    6   31 1
  13    8    9 1
  14    8   12 2
  15    9   10 2
  16   10   11 1
  17   10   13 1
  18   11   12 1
  19   13   14 1
  20   13   18 2
  21   14   15 1
  22   14   32 1
  23   14   33 1
  24   15   16 1
  25   15   19 am
  26   16   17 1
  27   16   34 1
  28   16   35 1
  29   17   18 1
  30   17   36 1
  31   17   37 1
  32   18   38 1
  33   19   20 2
  34   19   21 1
  35   21   22 ar
  36   21   26 ar
  37   22   23 ar
  38   22   39 1
  39   23   24 ar
  40   23   40 1
  41   24   25 ar
  42   24   27 1
  43   25   26 ar
  44   25   41 1
  45   26   42 1

#	End of record

