#	Name: ASD01810922
#	Creating user name:	WinNT
#	Creation time:	15. 06. 2019 19:25

#	Modifying user name:	WinNT
#	Modification time:	15. 06. 2019 19:25

#	Program:	/corina/corina34_cracker 3.40 0067  02.08.2006

@<TRIPOS>MOLECULE
ASD01810922
  37   38    0    0    0
SMALL
NO_CHARGES


@<TRIPOS>ATOM
   1 C1            -0.0179     1.4717     0.0101 C.2     
   2 C2             0.0021    -0.0041     0.0020 C.ar    
   3 C3             1.2226    -0.6898    -0.0133 C.ar    
   4 C4             1.2402    -2.0735    -0.0210 C.ar    
   5 C5             0.0576    -2.7841    -0.0140 C.ar    
   6 C6            -1.1665    -2.1115     0.0008 C.ar    
   7 C7            -1.1944    -0.7198     0.0154 C.ar    
   8 O8             1.0258     2.0934     0.0035 O.2     
   9 O9            -1.1937     2.1294     0.0193 O.3     
  10 N10           -3.7992    -4.5059     0.0114 N.2     
  11 N11           -2.5542    -4.1863     0.0018 N.2     
  12 C12           -2.4322    -2.8775     0.0078 C.2     
  13 N13           -3.6983    -2.3580     0.0221 N.pl3   
  14 C14           -4.5382    -3.4293     0.0240 C.2     
  15 C15           -6.0444    -3.3815     0.0372 C.3     
  16 C16           -6.5905    -4.1860    -1.1441 C.3     
  17 O17           -8.0187    -4.1407    -1.1315 O.3     
  18 C18           -8.6326    -4.8650    -2.1995 C.3     
  19 F19            2.3842     0.0000    -0.0211 F       
  20 C20            0.0867    -4.2908    -0.0229 C.3     
  21 C21           -0.0426    -4.7949    -1.4617 C.3     
  22 H22            2.1835    -2.5993    -0.0328 H       
  23 H23           -2.1391    -0.1966     0.0317 H       
  24 H24           -1.1562     3.0956     0.0244 H       
  25 H25           -3.9460    -1.4202     0.0301 H       
  26 H26           -6.4133    -3.8090     0.9695 H       
  27 H27           -6.3758    -2.3463    -0.0440 H       
  28 H28           -6.2216    -3.7585    -2.0764 H       
  29 H29           -6.2591    -5.2212    -1.0629 H       
  30 H30           -8.3061    -4.4516    -3.1538 H       
  31 H31           -8.3436    -5.9143    -2.1402 H       
  32 H32           -9.7164    -4.7816    -2.1192 H       
  33 H33            1.0289    -4.6386     0.4006 H       
  34 H34           -0.7424    -4.6738     0.5721 H       
  35 H35            0.7865    -4.4120    -2.0567 H       
  36 H36           -0.0215    -5.8847    -1.4681 H       
  37 H37           -0.9848    -4.4472    -1.8852 H       
@<TRIPOS>BOND
   1    1    2 1
   2    1    8 2
   3    1    9 1
   4    2    3 ar
   5    2    7 ar
   6    3    4 ar
   7    3   19 1
   8    4    5 ar
   9    4   22 1
  10    5    6 ar
  11    5   20 1
  12    6    7 ar
  13    6   12 1
  14    7   23 1
  15    9   24 1
  16   10   11 1
  17   10   14 2
  18   11   12 2
  19   12   13 1
  20   13   14 1
  21   13   25 1
  22   14   15 1
  23   15   16 1
  24   15   26 1
  25   15   27 1
  26   16   17 1
  27   16   28 1
  28   16   29 1
  29   17   18 1
  30   18   30 1
  31   18   31 1
  32   18   32 1
  33   20   21 1
  34   20   33 1
  35   20   34 1
  36   21   35 1
  37   21   36 1
  38   21   37 1

#	End of record

