#	Name: ASD01200087
#	Creating user name:	WinNT
#	Creation time:	15. 06. 2019 19:08

#	Modifying user name:	WinNT
#	Modification time:	15. 06. 2019 19:08

#	Program:	/corina/corina34_cracker 3.40 0067  02.08.2006

@<TRIPOS>MOLECULE
ASD01200087
  53   56    0    0    0
SMALL
NO_CHARGES


@<TRIPOS>ATOM
   1 C1             0.0166     1.2623     0.3065 C.2     
   2 C2             0.1363    -0.2010     0.4484 C.ar    
   3 C3             1.3817    -0.8246     0.2899 C.ar    
   4 C4             1.4858    -2.2006     0.4253 C.ar    
   5 C5             0.3667    -2.9555     0.7150 C.ar    
   6 C6            -0.8709    -2.3438     0.8730 C.ar    
   7 C7            -0.9897    -0.9716     0.7471 C.ar    
   8 O8             0.9998     1.9308     0.0514 O.2     
   9 N9            -1.1834     1.8577     0.4541 N.am    
  10 O10            2.4823    -0.0837     0.0042 O.3     
  11 C11            3.6584    -0.7365    -0.1880 C.ar    
  12 C12            3.9048    -1.3856    -1.3895 C.ar    
  13 C13            5.1013    -2.0485    -1.5823 C.ar    
  14 C14            6.0530    -2.0656    -0.5794 C.ar    
  15 C15            5.8098    -1.4201     0.6190 C.ar    
  16 C16            4.6175    -0.7504     0.8147 C.ar    
  17 S17           -0.0004     4.2948    -0.0293 S.3     
  18 C18           -1.2961     3.2357     0.3205 C.2     
  19 N19           -2.3992     3.9058     0.4422 N.2     
  20 C20           -2.3243     5.2139     0.2823 C.2     
  21 C21           -1.0999     5.6707     0.0126 C.2     
  22 C22           -3.5246     6.1182     0.3946 C.3     
  23 O23           -1.9674    -3.0959     1.1573 O.3     
  24 C24           -2.8322    -3.3708     0.1459 C.ar    
  25 C25           -4.0031    -4.0700     0.4032 C.ar    
  26 C26           -4.8803    -4.3482    -0.6267 C.ar    
  27 C27           -4.5928    -3.9306    -1.9133 C.ar    
  28 C28           -3.4268    -3.2344    -2.1724 C.ar    
  29 C29           -2.5489    -2.9481    -1.1448 C.ar    
  30 S30           -4.3699    -4.6028     2.0421 S.o2    
  31 O31           -4.2142    -3.4332     2.8340 O.2     
  32 O32           -5.6312    -5.2471     1.9271 O.2     
  33 C33           -3.0714    -5.8096     2.4271 C.3     
  34 H34            2.4444    -2.6830     0.3036 H       
  35 H35            0.4536    -4.0269     0.8190 H       
  36 H36           -1.9516    -0.4976     0.8750 H       
  37 H37           -1.9684     1.3240     0.6537 H       
  38 H38            3.1617    -1.3727    -2.1730 H       
  39 H39            5.2934    -2.5541    -2.5171 H       
  40 H40            6.9878    -2.5845    -0.7321 H       
  41 H41            6.5545    -1.4356     1.4010 H       
  42 H42            4.4302    -0.2420     1.7489 H       
  43 H43           -0.8301     6.7035    -0.1513 H       
  44 H44           -3.6347     6.4493     1.4272 H       
  45 H45           -3.3884     6.9848    -0.2523 H       
  46 H46           -4.4189     5.5745     0.0901 H       
  47 H47           -5.7915    -4.8925    -0.4271 H       
  48 H48           -5.2801    -4.1492    -2.7172 H       
  49 H49           -3.2043    -2.9101    -3.1783 H       
  50 H50           -1.6407    -2.3997    -1.3468 H       
  51 H51           -2.0964    -5.3264     2.3649 H       
  52 H52           -3.2218    -6.1961     3.4351 H       
  53 H53           -3.1158    -6.6315     1.7125 H       
@<TRIPOS>BOND
   1    1    2 1
   2    1    8 2
   3    1    9 am
   4    2    3 ar
   5    2    7 ar
   6    3    4 ar
   7    3   10 1
   8    4    5 ar
   9    4   34 1
  10    5    6 ar
  11    5   35 1
  12    6    7 ar
  13    6   23 1
  14    7   36 1
  15    9   18 1
  16    9   37 1
  17   10   11 1
  18   11   12 ar
  19   11   16 ar
  20   12   13 ar
  21   12   38 1
  22   13   14 ar
  23   13   39 1
  24   14   15 ar
  25   14   40 1
  26   15   16 ar
  27   15   41 1
  28   16   42 1
  29   17   18 1
  30   17   21 1
  31   18   19 2
  32   19   20 1
  33   20   21 2
  34   20   22 1
  35   21   43 1
  36   22   44 1
  37   22   45 1
  38   22   46 1
  39   23   24 1
  40   24   25 ar
  41   24   29 ar
  42   25   26 ar
  43   25   30 1
  44   26   27 ar
  45   26   47 1
  46   27   28 ar
  47   27   48 1
  48   28   29 ar
  49   28   49 1
  50   29   50 1
  51   30   31 2
  52   30   32 2
  53   30   33 1
  54   33   51 1
  55   33   52 1
  56   33   53 1

#	End of record

