#	Name: ASD07931715
#	Creating user name:	WinNT
#	Creation time:	15. 06. 2019 21:13

#	Modifying user name:	WinNT
#	Modification time:	15. 06. 2019 21:13

#	Program:	/corina/corina34_cracker 3.40 0067  02.08.2006

@<TRIPOS>MOLECULE
ASD07931715
  54   58    0    0    0
SMALL
NO_CHARGES


@<TRIPOS>ATOM
   1 C1            -0.0165     1.3638     0.0095 C.2     
   2 C2             0.0021    -0.0041     0.0020 C.2     
   3 C3             1.2948    -0.6930    -0.0137 C.2     
   4 N4             2.4269     0.0320    -0.0184 N.am    
   5 C5             2.3819     1.4078    -0.0128 C.2     
   6 C6             1.1929     2.0698     0.0018 C.2     
   7 C7             3.7400    -0.6270    -0.0278 C.3     
   8 C8             4.6598     0.1584    -0.9746 C.3     
   9 N9             4.7714     1.5376    -0.4790 N.am    
  10 C10            3.6569     2.1587    -0.0242 C.2     
  11 C11            6.0637     2.2276    -0.4769 C.3     
  12 O12            1.3435    -1.9113    -0.0219 O.2     
  13 N13           -1.1914    -0.7315     0.0096 N.pl3   
  14 C14           -2.1398    -0.7526    -0.9807 C.2     
  15 C15           -1.6287    -1.5563     0.9973 C.2     
  16 N16           -2.7818    -2.0540     0.6427 N.2     
  17 C17           -3.1190    -1.5782    -0.5654 C.2     
  18 C18           -4.3767    -1.9103    -1.3263 C.3     
  19 O19            3.7030     3.3092     0.3661 O.2     
  20 C20            6.2496     2.9662    -1.8038 C.3     
  21 C21            7.6097     3.6967    -1.8105 C.3     
  22 C22            8.0937     3.4786    -3.2700 C.3     
  23 C23            7.5244     2.0672    -3.5609 C.3     
  24 O24            6.2572     2.0275    -2.8856 O.3     
  25 C25            7.3333     1.8756    -5.0434 C.ar    
  26 C26            8.2707     1.1709    -5.7754 C.ar    
  27 C27            6.2179     2.3996    -5.6697 C.ar    
  28 C28            6.0419     2.2238    -7.0293 C.ar    
  29 C29            6.9826     1.5235    -7.7635 C.ar    
  30 C30            8.0961     0.9949    -7.1351 C.ar    
  31 Cl31           6.7619     1.3019    -9.4711 Cl      
  32 H32           -0.9567     1.8952     0.0169 H       
  33 H33            1.1819     3.1497     0.0071 H       
  34 H34            4.1596    -0.6261     0.9781 H       
  35 H35            3.6349    -1.6522    -0.3828 H       
  36 H36            5.6464    -0.3047    -0.9942 H       
  37 H37            4.2344     0.1631    -1.9781 H       
  38 H38            6.0920     2.9435     0.3446 H       
  39 H39            6.8645     1.4988    -0.3514 H       
  40 H40           -2.1074    -0.2110    -1.9146 H       
  41 H41           -1.1089    -1.7651     1.9207 H       
  42 H42           -5.1590    -1.1982    -1.0636 H       
  43 H43           -4.1791    -1.8545    -2.3968 H       
  44 H44           -4.7016    -2.9183    -1.0689 H       
  45 H45            5.4427     3.6858    -1.9425 H       
  46 H46            7.4809     4.7582    -1.5991 H       
  47 H47            8.2991     3.2395    -1.1007 H       
  48 H48            7.6639     4.2217    -3.9417 H       
  49 H49            9.1822     3.4827    -3.3276 H       
  50 H50            8.1897     1.3013    -3.1622 H       
  51 H51            9.1399     0.7583    -5.2849 H       
  52 H52            5.4837     2.9462    -5.0965 H       
  53 H53            5.1701     2.6326    -7.5184 H       
  54 H54            8.8309     0.4485    -7.7078 H       
@<TRIPOS>BOND
   1    1    2 2
   2    1    6 1
   3    1   32 1
   4    2    3 1
   5    2   13 1
   6    3    4 am
   7    3   12 2
   8    4    5 1
   9    4    7 1
  10    5    6 2
  11    5   10 1
  12    6   33 1
  13    7    8 1
  14    7   34 1
  15    7   35 1
  16    8    9 1
  17    8   36 1
  18    8   37 1
  19    9   10 am
  20    9   11 1
  21   10   19 2
  22   11   20 1
  23   11   38 1
  24   11   39 1
  25   13   14 1
  26   13   15 1
  27   14   17 2
  28   14   40 1
  29   15   16 2
  30   15   41 1
  31   16   17 1
  32   17   18 1
  33   18   42 1
  34   18   43 1
  35   18   44 1
  36   20   21 1
  37   20   24 1
  38   20   45 1
  39   21   22 1
  40   21   46 1
  41   21   47 1
  42   22   23 1
  43   22   48 1
  44   22   49 1
  45   23   24 1
  46   23   25 1
  47   23   50 1
  48   25   26 ar
  49   25   27 ar
  50   26   30 ar
  51   26   51 1
  52   27   28 ar
  53   27   52 1
  54   28   29 ar
  55   28   53 1
  56   29   30 ar
  57   29   31 1
  58   30   54 1

#	End of record

