#	Name: ASD02508362
#	Creating user name:	WinNT
#	Creation time:	15. 06. 2019 20:24

#	Modifying user name:	WinNT
#	Modification time:	15. 06. 2019 20:24

#	Program:	/corina/corina34_cracker 3.40 0067  02.08.2006

@<TRIPOS>MOLECULE
ASD02508362
  34   36    0    0    0
SMALL
NO_CHARGES


@<TRIPOS>ATOM
   1 C1            -0.1934     1.7617     0.2775 C.2     
   2 C2            -0.1743     0.3620     0.4449 C.2     
   3 C3             1.1139    -0.0333     0.4041 C.2     
   4 N4             1.8939     1.0729     0.2171 N.pl3   
   5 C5             1.0839     2.1707     0.1404 C.2     
   6 C6             3.2887     1.0804     0.1208 C.ar    
   7 C7             4.0286     1.9599     0.9037 C.ar    
   8 N8             3.8927     0.2470    -0.7102 N.ar    
   9 C9             5.2060     0.2208    -0.8316 C.ar    
  10 C10            6.0032     1.0696    -0.0893 C.ar    
  11 C11            5.4096     1.9562     0.7984 C.ar    
  12 S12            1.6919    -1.6900     0.5647 S.o2    
  13 O13            1.6083    -2.2714    -0.7293 O.2     
  14 O14            2.8999    -1.6231     1.3101 O.2     
  15 N15            0.6018    -2.4998     1.5125 N.am    
  16 C16            0.3853    -2.0932     2.8310 C.ar    
  17 C17           -0.9090    -1.9966     3.3253 C.ar    
  18 C18            1.4642    -1.7904     3.6514 C.ar    
  19 C19            1.2475    -1.3883     4.9572 C.ar    
  20 C20           -0.0441    -1.2881     5.4466 C.ar    
  21 C21           -1.1211    -1.5942     4.6317 C.ar    
  22 F22            2.2966    -1.0936     5.7557 F       
  23 Cl23           3.2323     3.0478     1.9974 Cl      
  24 F24           -2.3801    -1.4955     5.1117 F       
  25 H25           -1.0710     2.3907     0.2578 H       
  26 H26           -1.0344    -0.2767     0.5811 H       
  27 H27            1.4104     3.1898    -0.0053 H       
  28 H28            5.6638    -0.4738    -1.5204 H       
  29 H29            7.0776     1.0410    -0.1954 H       
  30 H30            6.0105     2.6305     1.3906 H       
  31 H31            0.1137    -3.2565     1.1519 H       
  32 H32           -1.7493    -2.2352     2.6902 H       
  33 H33            2.4717    -1.8691     3.2704 H       
  34 H34           -0.2114    -0.9747     6.4665 H       
@<TRIPOS>BOND
   1    1    2 1
   2    1    5 2
   3    1   25 1
   4    2    3 2
   5    2   26 1
   6    3    4 1
   7    3   12 1
   8    4    5 1
   9    4    6 1
  10    5   27 1
  11    6    7 ar
  12    6    8 ar
  13    7   23 1
  14    7   11 ar
  15    8    9 ar
  16    9   10 ar
  17    9   28 1
  18   10   11 ar
  19   10   29 1
  20   11   30 1
  21   12   13 2
  22   12   14 2
  23   12   15 am
  24   15   16 1
  25   15   31 1
  26   16   17 ar
  27   16   18 ar
  28   17   21 ar
  29   17   32 1
  30   18   19 ar
  31   18   33 1
  32   19   20 ar
  33   19   22 1
  34   20   21 ar
  35   20   34 1
  36   21   24 1

#	End of record

