#	Name: ASD02039370
#	Creating user name:	WinNT
#	Creation time:	15. 06. 2019 20:18

#	Modifying user name:	WinNT
#	Modification time:	15. 06. 2019 20:18

#	Program:	/corina/corina34_cracker 3.40 0067  02.08.2006

@<TRIPOS>MOLECULE
ASD02039370
  54   56    0    0    0
SMALL
NO_CHARGES


@<TRIPOS>ATOM
   1 C1            -0.1345     1.5595    -0.1872 C.ar    
   2 C2            -0.1559     0.1782    -0.0590 C.ar    
   3 C3            -1.3628    -0.4920    -0.1418 C.ar    
   4 C4            -2.5119     1.4849    -0.4577 C.ar    
   5 C5            -1.3326     2.2230    -0.3898 C.ar    
   6 C6            -3.8039     2.1809    -0.6748 C.ar    
   7 C7             1.1630     2.3212    -0.1014 C.3     
   8 N8             1.8163     2.3219    -1.4127 N.am    
   9 C9             1.4075     3.2892    -2.4342 C.3     
  10 C10            2.7935     1.4328    -1.6793 C.2     
  11 C11            3.1433     0.4028    -0.6857 C.2     
  12 C12            4.1487    -0.5130    -0.7933 C.2     
  13 N13            2.5275     0.1958     0.5063 N.2     
  14 C14            3.1089    -0.7982     1.1134 C.2     
  15 N15            4.1202    -1.2620     0.3340 N.pl3   
  16 O16            3.3865     1.4808    -2.7400 O.2     
  17 C17            5.0183    -2.3740     0.6553 C.3     
  18 C18           -3.8266     3.5540    -0.9141 C.ar    
  19 C19            2.5761     4.2262    -2.7461 C.3     
  20 C20            0.9971     2.5447    -3.7063 C.3     
  21 N21           -2.4881     0.1634    -0.3407 N.ar    
  22 C22           -4.9971     1.4635    -0.6459 C.ar    
  23 C23           -6.2004     2.1193    -0.8494 C.ar    
  24 C24           -6.2146     3.4875    -1.0818 C.ar    
  25 C25           -5.0299     4.1993    -1.1159 C.ar    
  26 O26           -7.3670     1.4227    -0.8219 O.3     
  27 C27           -8.5699     2.1628    -1.0396 C.3     
  28 C28           -9.7702     1.2164    -0.9726 C.3     
  29 H29            0.7612    -0.3685     0.1036 H       
  30 H30           -1.3830    -1.5672    -0.0425 H       
  31 H31           -1.3535     3.2986    -0.4851 H       
  32 H32            0.9621     3.3477     0.2050 H       
  33 H33            1.8163     1.8449     0.6297 H       
  34 H34            0.5631     3.8717    -2.0657 H       
  35 H35            4.8357    -0.6201    -1.6198 H       
  36 H36            2.8337    -1.1890     2.0819 H       
  37 H37            4.5914    -3.3051     0.2827 H       
  38 H38            5.9876    -2.2053     0.1861 H       
  39 H39            5.1441    -2.4387     1.7361 H       
  40 H40           -2.9028     4.1129    -0.9413 H       
  41 H41            3.4479     3.6372    -3.0312 H       
  42 H42            2.3014     4.8890    -3.5667 H       
  43 H43            2.8116     4.8198    -1.8628 H       
  44 H44            0.1123     1.9410    -3.5046 H       
  45 H45            0.7736     3.2654    -4.4930 H       
  46 H46            1.8131     1.8974    -4.0277 H       
  47 H47           -4.9845     0.3987    -0.4656 H       
  48 H48           -7.1536     3.9970    -1.2406 H       
  49 H49           -5.0463     5.2639    -1.2971 H       
  50 H50           -8.6686     2.9298    -0.2714 H       
  51 H51           -8.5335     2.6345    -2.0215 H       
  52 H52           -9.8065     0.7446     0.0094 H       
  53 H53          -10.6877     1.7809    -1.1386 H       
  54 H54           -9.6715     0.4494    -1.7407 H       
@<TRIPOS>BOND
   1    1    2 ar
   2    1    7 1
   3    1    5 ar
   4    2    3 ar
   5    2   29 1
   6    3   21 ar
   7    3   30 1
   8    4    5 ar
   9    4    6 1
  10    4   21 ar
  11    5   31 1
  12    6   18 ar
  13    6   22 ar
  14    7    8 1
  15    7   32 1
  16    7   33 1
  17    8    9 1
  18    8   10 am
  19    9   20 1
  20    9   19 1
  21    9   34 1
  22   10   11 1
  23   10   16 2
  24   11   12 2
  25   11   13 1
  26   12   15 1
  27   12   35 1
  28   13   14 2
  29   14   15 1
  30   14   36 1
  31   15   17 1
  32   17   37 1
  33   17   38 1
  34   17   39 1
  35   18   25 ar
  36   18   40 1
  37   19   41 1
  38   19   42 1
  39   19   43 1
  40   20   44 1
  41   20   45 1
  42   20   46 1
  43   22   23 ar
  44   22   47 1
  45   23   24 ar
  46   23   26 1
  47   24   25 ar
  48   24   48 1
  49   25   49 1
  50   26   27 1
  51   27   28 1
  52   27   50 1
  53   27   51 1
  54   28   52 1
  55   28   53 1
  56   28   54 1

#	End of record

