#	Name: ASD04590018
#	Creating user name:	WinNT
#	Creation time:	15. 06. 2019 20:50

#	Modifying user name:	WinNT
#	Modification time:	15. 06. 2019 20:50

#	Program:	/corina/corina34_cracker 3.40 0067  02.08.2006

@<TRIPOS>MOLECULE
ASD04590018
  49   52    0    0    0
SMALL
NO_CHARGES


@<TRIPOS>ATOM
   1 C1             0.2441     0.3335     0.5174 C.ar    
   2 C2             0.5580    -1.0061     0.4560 C.ar    
   3 C3             1.1950     1.2909     0.1671 C.ar    
   4 C4             2.4854     0.8971    -0.2475 C.ar    
   5 C5             2.7682    -0.4678    -0.3184 C.ar    
   6 C6             1.8183    -1.4004     0.0368 C.ar    
   7 N7             3.3951     1.8991    -0.5376 N.3     
   8 C8             4.6855     1.4733    -1.1001 C.3     
   9 C9             5.1080     0.2206    -0.3614 C.3     
  10 C10            4.1086    -0.8852    -0.8072 C.3     
  11 C11            6.4441    -0.4142    -0.7472 C.3     
  12 C12            6.2657    -1.8890    -0.2850 C.3     
  13 C13            4.7370    -2.1558    -0.2615 C.3     
  14 Cl14           4.1791    -2.4561     1.4264 Cl      
  15 S15            7.0764    -3.0117    -1.4567 S.3     
  16 C16            6.8920    -4.5868    -0.6888 C.ar    
  17 C17            7.3997    -5.7250    -1.3034 C.ar    
  18 C18            7.2533    -6.9578    -0.6985 C.ar    
  19 C19            6.6024    -7.0604     0.5173 C.ar    
  20 C20            6.0958    -5.9296     1.1320 C.ar    
  21 C21            6.2435    -4.6930     0.5360 C.ar    
  22 C22            4.5285     1.1701    -2.5915 C.3     
  23 C23            0.8509     2.7217     0.2296 C.2     
  24 O24            1.6771     3.5592    -0.0750 O.2     
  25 O25           -0.3802     3.1020     0.6245 O.3     
  26 N26            2.1483    -2.8417    -0.0304 N.pl3   
  27 O27            2.6551    -3.3042    -1.0368 O.2     
  28 O28            1.9129    -3.5654     0.9207 O.2     
  29 N29            8.0960    -5.6162    -2.6048 N.pl3   
  30 O30            8.5406    -6.6144    -3.1429 O.2     
  31 O31            8.2243    -4.5286    -3.1378 O.2     
  32 H32           -0.7414     0.6425     0.8330 H       
  33 H33           -0.1764    -1.7474     0.7344 H       
  34 H34            2.9724     2.6178    -1.1058 H       
  35 H35            5.4293     2.2571    -0.9565 H       
  36 H36            5.0475     0.3775     0.7156 H       
  37 H37            4.0949    -0.9385    -1.8958 H       
  38 H38            6.5998    -0.3628    -1.8248 H       
  39 H39            7.2667     0.0616    -0.2134 H       
  40 H40            6.6844    -2.0220     0.7126 H       
  41 H41            4.4907    -3.0045    -0.8995 H       
  42 H42            7.6472    -7.8429    -1.1758 H       
  43 H43            6.4891    -8.0259     0.9878 H       
  44 H44            5.5881    -6.0135     2.0815 H       
  45 H45            5.8480    -3.8105     1.0167 H       
  46 H46            4.3248     2.0951    -3.1309 H       
  47 H47            5.4478     0.7235    -2.9703 H       
  48 H48            3.7009     0.4755    -2.7359 H       
  49 H49           -0.5592     4.0520     0.6496 H       
@<TRIPOS>BOND
   1    1    2 ar
   2    1    3 ar
   3    1   32 1
   4    2    6 ar
   5    2   33 1
   6    3    4 ar
   7    3   23 1
   8    4    5 ar
   9    4    7 1
  10    5    6 ar
  11    5   10 1
  12    6   26 1
  13    7    8 1
  14    7   34 1
  15    8    9 1
  16    8   22 1
  17    8   35 1
  18    9   10 1
  19    9   11 1
  20    9   36 1
  21   10   13 1
  22   10   37 1
  23   11   12 1
  24   11   38 1
  25   11   39 1
  26   12   13 1
  27   12   15 1
  28   12   40 1
  29   13   14 1
  30   13   41 1
  31   15   16 1
  32   16   17 ar
  33   16   21 ar
  34   17   18 ar
  35   17   29 1
  36   18   19 ar
  37   18   42 1
  38   19   20 ar
  39   19   43 1
  40   20   21 ar
  41   20   44 1
  42   21   45 1
  43   22   46 1
  44   22   47 1
  45   22   48 1
  46   23   24 2
  47   23   25 1
  48   25   49 1
  49   26   27 2
  50   26   28 2
  51   29   30 2
  52   29   31 2

#	End of record

