#	Name: ASD01883834
#	Creating user name:	WinNT
#	Creation time:	15. 06. 2019 19:47

#	Modifying user name:	WinNT
#	Modification time:	15. 06. 2019 19:47

#	Program:	/corina/corina34_cracker 3.40 0067  02.08.2006

@<TRIPOS>MOLECULE
ASD01883834
  49   51    0    0    0
SMALL
NO_CHARGES


@<TRIPOS>ATOM
   1 N1             2.7665     3.2819     1.9843 N.ar    
   2 C2             2.4203     2.1104     2.4833 C.ar    
   3 C3             2.9070     0.9387     1.9421 C.ar    
   4 C4             3.7778     1.0061     0.8506 C.ar    
   5 C5             4.1178     2.2675     0.3541 C.ar    
   6 C6             3.5852     3.3893     0.9555 C.ar    
   7 C7             4.3265    -0.2278     0.2362 C.2     
   8 C8             4.6708    -1.4087     0.9210 C.2     
   9 C9             5.1344    -2.3000     0.0045 C.2     
  10 N10            5.0841    -1.7020    -1.2157 N.pl3   
  11 N11            4.5705    -0.4103    -1.0447 N.2     
  12 C12            3.9437     4.7555     0.4301 C.3     
  13 C13            5.4904    -2.3055    -2.4873 C.3     
  14 C14            4.3192    -3.0960    -3.0739 C.3     
  15 O15            3.2284    -2.2098    -3.3328 O.3     
  16 N16            5.5810    -3.5934     0.2684 N.pl3   
  17 C17            4.6619    -4.6380     0.3929 C.ar    
  18 C18            5.0992    -5.9137     0.7268 C.ar    
  19 C19            4.1887    -6.9452     0.8493 C.ar    
  20 C20            2.8427    -6.7104     0.6398 C.ar    
  21 C21            2.4021    -5.4399     0.3062 C.ar    
  22 C22            3.3083    -4.4019     0.1886 C.ar    
  23 C23            1.8526    -7.8386     0.7740 C.3     
  24 F24            2.5294    -9.0149     1.1139 F       
  25 F25            0.9251    -7.5286     1.7744 F       
  26 F26            1.1844    -8.0197    -0.4416 F       
  27 C27            4.7565    -3.7616    -4.3803 C.3     
  28 C28            1.9425    -2.8235    -3.2237 C.3     
  29 F29            1.0859    -5.2137     0.1017 F       
  30 Cl30           4.5291    -1.6787     2.6300 Cl      
  31 H31            1.7473     2.0684     3.3269 H       
  32 H32            2.6198    -0.0167     2.3557 H       
  33 H33            4.7878     2.3628    -0.4875 H       
  34 H34            4.8318     5.1214     0.9453 H       
  35 H35            4.1442     4.6924    -0.6394 H       
  36 H36            3.1142     5.4409     0.6044 H       
  37 H37            5.7845    -1.5207    -3.1843 H       
  38 H38            6.3330    -2.9760    -2.3185 H       
  39 H39            4.0052    -3.8610    -2.3638 H       
  40 H40            6.5302    -3.7684     0.3656 H       
  41 H41            6.1506    -6.0989     0.8901 H       
  42 H42            4.5291    -7.9368     1.1089 H       
  43 H43            2.9653    -3.4114    -0.0714 H       
  44 H44            5.0385    -2.9950    -5.1020 H       
  45 H45            5.6102    -4.4118    -4.1888 H       
  46 H46            3.9326    -4.3522    -4.7808 H       
  47 H47            1.8687    -3.6421    -3.9396 H       
  48 H48            1.8093    -3.2111    -2.2137 H       
  49 H49            1.1686    -2.0855    -3.4347 H       
@<TRIPOS>BOND
   1    1    2 ar
   2    1    6 ar
   3    2    3 ar
   4    2   31 1
   5    3    4 ar
   6    3   32 1
   7    4    5 ar
   8    4    7 1
   9    5    6 ar
  10    5   33 1
  11    6   12 1
  12    7    8 1
  13    7   11 2
  14    8    9 2
  15    8   30 1
  16    9   10 1
  17    9   16 1
  18   10   11 1
  19   10   13 1
  20   12   34 1
  21   12   35 1
  22   12   36 1
  23   13   14 1
  24   13   37 1
  25   13   38 1
  26   14   15 1
  27   14   27 1
  28   14   39 1
  29   15   28 1
  30   16   17 1
  31   16   40 1
  32   17   18 ar
  33   17   22 ar
  34   18   19 ar
  35   18   41 1
  36   19   20 ar
  37   19   42 1
  38   20   21 ar
  39   20   23 1
  40   21   22 ar
  41   21   29 1
  42   22   43 1
  43   23   24 1
  44   23   25 1
  45   23   26 1
  46   27   44 1
  47   27   45 1
  48   27   46 1
  49   28   47 1
  50   28   48 1
  51   28   49 1

#	End of record

