#	Name: ASD08070339
#	Creating user name:	WinNT
#	Creation time:	15. 06. 2019 21:14

#	Modifying user name:	WinNT
#	Modification time:	15. 06. 2019 21:14

#	Program:	/corina/corina34_cracker 3.40 0067  02.08.2006

@<TRIPOS>MOLECULE
ASD08070339
  38   38    0    0    0
SMALL
NO_CHARGES


@<TRIPOS>ATOM
   1 C1            -0.0171     1.4123     0.0098 C.2     
   2 C2             0.0021    -0.0041     0.0020 C.2     
   3 C3             1.1824    -0.6643    -0.0128 C.2     
   4 O4             1.0290     2.0354     0.0032 O.2     
   5 N5            -1.1934     2.0703     0.0190 N.am    
   6 C6             0.0761    -2.8987    -0.0147 C.2     
   7 C7             1.2023    -2.1310    -0.0209 C.2     
   8 C8             2.4181    -2.9123    -0.0366 C.2     
   9 C9             2.1960    -4.2209    -0.0420 C.2     
  10 S10            0.4735    -4.5561    -0.0278 S.3     
  11 C11           -3.9162     4.1285    -2.6502 C.3     
  12 C12           -2.5992     3.6330    -2.0495 C.3     
  13 C13           -2.5302     4.0306    -0.5737 C.3     
  14 C14           -1.2132     3.5351     0.0270 C.3     
  15 C15           -1.0876     4.0390     1.4662 C.3     
  16 C16            0.2824     3.6497     2.0251 C.3     
  17 C17            0.4080     4.1535     3.4643 C.3     
  18 H18           -0.9258    -0.5567     0.0079 H       
  19 H19            2.1102    -0.1116    -0.0187 H       
  20 H20           -2.0267     1.5739     0.0202 H       
  21 H21           -0.9313    -2.5096     0.0010 H       
  22 H22            3.4061    -2.4760    -0.0434 H       
  23 H23            2.9688    -4.9753    -0.0541 H       
  24 H24           -4.7520     3.6795    -2.1135 H       
  25 H25           -3.9696     5.2137    -2.5634 H       
  26 H26           -3.9653     3.8452    -3.7016 H       
  27 H27           -2.5458     2.5478    -2.1363 H       
  28 H28           -1.7634     4.0819    -2.5862 H       
  29 H29           -2.5836     5.1158    -0.4869 H       
  30 H30           -3.3660     3.5817    -0.0370 H       
  31 H31           -0.3792     3.9131    -0.5643 H       
  32 H32           -1.1914     5.1239     1.4817 H       
  33 H33           -1.8704     3.5903     2.0778 H       
  34 H34            0.3862     2.5647     2.0096 H       
  35 H35            1.0652     4.0983     1.4135 H       
  36 H36            0.3042     5.2385     3.4798 H       
  37 H37           -0.3747     3.7049     4.0759 H       
  38 H38            1.3841     3.8762     3.8625 H       
@<TRIPOS>BOND
   1    1    2 1
   2    1    4 2
   3    1    5 am
   4    2    3 2
   5    2   18 1
   6    3    7 1
   7    3   19 1
   8    5   14 1
   9    5   20 1
  10    6    7 2
  11    6   10 1
  12    6   21 1
  13    7    8 1
  14    8    9 2
  15    8   22 1
  16    9   10 1
  17    9   23 1
  18   11   12 1
  19   11   24 1
  20   11   25 1
  21   11   26 1
  22   12   13 1
  23   12   27 1
  24   12   28 1
  25   13   14 1
  26   13   29 1
  27   13   30 1
  28   14   15 1
  29   14   31 1
  30   15   16 1
  31   15   32 1
  32   15   33 1
  33   16   17 1
  34   16   34 1
  35   16   35 1
  36   17   36 1
  37   17   37 1
  38   17   38 1

#	End of record

