#	Name: ASD06020046
#	Creating user name:	WinNT
#	Creation time:	15. 06. 2019 21:04

#	Modifying user name:	WinNT
#	Modification time:	15. 06. 2019 21:04

#	Program:	/corina/corina34_cracker 3.40 0067  02.08.2006

@<TRIPOS>MOLECULE
ASD06020046
  36   39    0    0    0
SMALL
NO_CHARGES


@<TRIPOS>ATOM
   1 N1            -0.0167     1.3825     0.0096 N.pl3   
   2 C2             1.6729    -1.7564    -0.1799 C.ar    
   3 N3             1.4499    -0.4581    -0.1511 N.ar    
   4 C4             0.2142     0.0155    -0.0208 C.ar    
   5 C5            -0.8471    -0.8859     0.0855 C.ar    
   6 C6            -0.5653    -2.2373     0.0503 C.ar    
   7 N7             0.6933    -2.6322    -0.0821 N.ar    
   8 C8            -1.6750    -3.2509     0.1616 C.3     
   9 C9             1.0570     2.2706     0.0147 C.ar    
  10 C10            0.8213     3.6470    -0.0677 C.ar    
  11 C11            1.9032     4.5343    -0.0617 C.ar    
  12 C12            3.2016     3.9684     0.0301 C.ar    
  13 C13            3.3400     2.6168     0.1070 C.ar    
  14 N14            2.2914     1.8079     0.1028 N.ar    
  15 S15           -0.6636     4.5845    -0.1873 S.3     
  16 C16            0.2691     6.0756    -0.2196 C.2     
  17 N17            1.5332     5.8133    -0.1456 N.2     
  18 F18            4.2922     4.7657     0.0407 F       
  19 C19           -0.3086     7.4323    -0.3174 C.ar    
  20 C20            0.5271     8.5514    -0.3352 C.ar    
  21 C21           -0.0196     9.8159    -0.4272 C.ar    
  22 C22           -1.3919     9.9770    -0.5013 C.ar    
  23 C23           -2.2263     8.8746    -0.4843 C.ar    
  24 C24           -1.6935     7.6017    -0.3983 C.ar    
  25 F25           -2.5094     6.5250    -0.3874 F       
  26 Cl26           2.2491     8.3529    -0.2413 Cl      
  27 H27           -0.9258     1.7206     0.0233 H       
  28 H28            2.6864    -2.1127    -0.2913 H       
  29 H29           -1.8628    -0.5348     0.1928 H       
  30 H30           -2.0490    -3.4909    -0.8337 H       
  31 H31           -1.2942    -4.1560     0.6346 H       
  32 H32           -2.4843    -2.8388     0.7643 H       
  33 H33            4.3309     2.1928     0.1767 H       
  34 H34            0.6257    10.6818    -0.4410 H       
  35 H35           -1.8134    10.9688    -0.5724 H       
  36 H36           -3.2965     9.0079    -0.5424 H       
@<TRIPOS>BOND
   1    1    4 1
   2    1    9 1
   3    1   27 1
   4    2    3 ar
   5    2    7 ar
   6    2   28 1
   7    3    4 ar
   8    4    5 ar
   9    5    6 ar
  10    5   29 1
  11    6    7 ar
  12    6    8 1
  13    8   30 1
  14    8   31 1
  15    8   32 1
  16    9   10 ar
  17    9   14 ar
  18   10   11 ar
  19   10   15 1
  20   11   12 ar
  21   11   17 1
  22   12   13 ar
  23   12   18 1
  24   13   14 ar
  25   13   33 1
  26   15   16 1
  27   16   17 2
  28   16   19 1
  29   19   20 ar
  30   19   24 ar
  31   20   21 ar
  32   20   26 1
  33   21   22 ar
  34   21   34 1
  35   22   23 ar
  36   22   35 1
  37   23   24 ar
  38   23   36 1
  39   24   25 1

#	End of record

