#	Name: ASD01814673
#	Creating user name:	WinNT
#	Creation time:	15. 06. 2019 19:32

#	Modifying user name:	WinNT
#	Modification time:	15. 06. 2019 19:32

#	Program:	/corina/corina34_cracker 3.40 0067  02.08.2006

@<TRIPOS>MOLECULE
ASD01814673
  45   48    0    0    0
SMALL
NO_CHARGES


@<TRIPOS>ATOM
   1 C1             0.3002     1.2345     1.2999 C.2     
   2 N2            -0.9476     1.5968     1.7380 N.pl3   
   3 N3            -1.7649     0.4636     1.6731 N.2     
   4 C4            -1.0553    -0.5486     1.2170 C.2     
   5 C5             0.2366    -0.1141     0.9712 C.2     
   6 C6            -1.1477    -2.0135     0.8669 C.3     
   7 N7             0.1712    -2.4431     0.3921 N.am    
   8 C8             1.0486    -1.2694     0.4448 C.3     
   9 C9            -1.1811     2.8829     2.1327 C.2     
  10 C10           -0.1681     3.7819     2.0833 C.2     
  11 C11            1.0946     3.3740     1.6294 C.2     
  12 N12            1.2926     2.1332     1.2509 N.2     
  13 C13            0.5113    -3.6807    -0.0192 C.2     
  14 C14           -0.4576    -4.7859     0.0901 C.ar    
  15 O15            1.6177    -3.8855    -0.4807 O.2     
  16 C16           -0.6295    -5.6834    -0.9766 C.ar    
  17 C17           -1.5463    -6.7218    -0.8602 C.ar    
  18 C18           -2.2823    -6.8672     0.2974 C.ar    
  19 C19           -2.1151    -5.9828     1.3515 C.ar    
  20 C20           -1.2069    -4.9510     1.2577 C.ar    
  21 S21            0.3115    -5.4939    -2.4542 S.3     
  22 C22           -0.3969     5.2083     2.5123 C.3     
  23 C23            2.2274     4.3662     1.5708 C.3     
  24 C24           -2.5469     3.2972     2.6163 C.3     
  25 C25           -0.2698    -6.8671    -3.4871 C.3     
  26 H26           -1.4272    -2.5874     1.7504 H       
  27 H27           -1.8887    -2.1594     0.0810 H       
  28 H28            1.4171    -1.0372    -0.5543 H       
  29 H29            1.8875    -1.4660     1.1125 H       
  30 H30           -1.6829    -7.4150    -1.6770 H       
  31 H31           -2.9937    -7.6753     0.3829 H       
  32 H32           -2.6971    -6.1056     2.2530 H       
  33 H33           -1.0777    -4.2677     2.0840 H       
  34 H34           -0.1864     5.3057     3.5773 H       
  35 H35            0.2642     5.8674     1.9495 H       
  36 H36           -1.4339     5.4836     2.3202 H       
  37 H37            2.7664     4.3585     2.5182 H       
  38 H38            2.9074     4.0939     0.7637 H       
  39 H39            1.8276     5.3637     1.3883 H       
  40 H40           -2.6106     3.1502     3.6944 H       
  41 H41           -2.7114     4.3491     2.3827 H       
  42 H42           -3.3065     2.6921     2.1215 H       
  43 H43            0.2530    -6.8491    -4.4433 H       
  44 H44           -0.0700    -7.8119    -2.9815 H       
  45 H45           -1.3417    -6.7655    -3.6571 H       
@<TRIPOS>BOND
   1    1    5 2
   2    1   12 1
   3    1    2 1
   4    2    3 1
   5    2    9 1
   6    3    4 2
   7    4    6 1
   8    4    5 1
   9    5    8 1
  10    6    7 1
  11    6   26 1
  12    6   27 1
  13    7    8 1
  14    7   13 am
  15    8   28 1
  16    8   29 1
  17    9   10 2
  18    9   24 1
  19   10   11 1
  20   10   22 1
  21   11   12 2
  22   11   23 1
  23   13   14 1
  24   13   15 2
  25   14   16 ar
  26   14   20 ar
  27   16   17 ar
  28   16   21 1
  29   17   18 ar
  30   17   30 1
  31   18   19 ar
  32   18   31 1
  33   19   20 ar
  34   19   32 1
  35   20   33 1
  36   21   25 1
  37   22   34 1
  38   22   35 1
  39   22   36 1
  40   23   37 1
  41   23   38 1
  42   23   39 1
  43   24   40 1
  44   24   41 1
  45   24   42 1
  46   25   43 1
  47   25   44 1
  48   25   45 1

#	End of record

