#	Name: ASD01881989
#	Creating user name:	WinNT
#	Creation time:	15. 06. 2019 19:43

#	Modifying user name:	WinNT
#	Modification time:	15. 06. 2019 19:43

#	Program:	/corina/corina34_cracker 3.40 0067  02.08.2006

@<TRIPOS>MOLECULE
ASD01881989
  53   56    0    0    0
SMALL
NO_CHARGES


@<TRIPOS>ATOM
   1 N1            -0.0154     1.2840     0.0091 N.pl3   
   2 N2             0.0021    -0.0041     0.0020 N.2     
   3 N3             1.2039    -0.4631    -0.0119 N.2     
   4 C4             2.0717     0.5642    -0.0147 C.ar    
   5 C5             1.2847     1.7283    -0.0009 C.ar    
   6 C6             3.4785     0.6755    -0.0272 C.ar    
   7 C7             4.0636     1.9444    -0.0255 C.ar    
   8 C8             3.2650     3.0834    -0.0118 C.ar    
   9 C9             1.8920     2.9795     0.0007 C.ar    
  10 C10            4.2974    -0.4992    -0.0408 C.1     
  11 N11            4.9470    -1.4311    -0.0517 N.1     
  12 C12           -1.2128     2.1280     0.0196 C.3     
  13 C13           -1.6222     2.4145     1.4657 C.3     
  14 C14           -0.4819     3.1381     2.1847 C.3     
  15 C15           -2.8727     3.2959     1.4766 C.3     
  16 C16           -1.9213     1.0959     2.1818 C.3     
  17 O17            5.4153     2.0660    -0.0370 O.3     
  18 C18            5.9474     3.3922    -0.0346 C.3     
  19 C19            7.4530     3.3294    -0.0484 C.ar    
  20 C20            8.1305     3.3072    -1.2506 C.ar    
  21 C21            9.5231     3.2491    -1.2618 C.ar    
  22 C22           10.2237     3.2138    -0.0568 C.ar    
  23 C23            9.5357     3.2365     1.1390 C.ar    
  24 C24            8.1536     3.2999     1.1439 C.ar    
  25 C25           11.5828     3.1791    -4.8794 C.ar    
  26 N26           12.2706     3.1455    -3.7452 N.ar    
  27 C27           11.6544     3.1663    -2.5788 C.ar    
  28 C28           10.2566     3.2245    -2.5501 C.ar    
  29 C29            9.5687     3.2584    -3.7681 C.ar    
  30 N30           10.2572     3.2344    -4.8933 N.ar    
  31 C31           12.2915     3.1608    -6.1236 C.1     
  32 N32           12.8537     3.1463    -7.1106 N.1     
  33 H33            3.7269     4.0597    -0.0103 H       
  34 H34            1.2847     3.8725     0.0113 H       
  35 H35           -0.9997     3.0674    -0.4906 H       
  36 H36           -2.0252     1.6125    -0.4927 H       
  37 H37           -0.2688     4.0775     1.6746 H       
  38 H38           -0.7736     3.3422     3.2150 H       
  39 H39            0.4090     2.5102     2.1769 H       
  40 H40           -3.6851     2.7804     0.9643 H       
  41 H41           -3.1644     3.5000     2.5068 H       
  42 H42           -2.6596     4.2353     0.9664 H       
  43 H43           -1.0304     0.4680     2.1740 H       
  44 H44           -2.2130     1.3000     3.2120 H       
  45 H45           -2.7337     0.5804     1.6695 H       
  46 H46            5.5979     3.9256    -0.9186 H       
  47 H47            5.6138     3.9159     0.8613 H       
  48 H48            7.5826     3.3344    -2.1810 H       
  49 H49           11.3027     3.1684    -0.0594 H       
  50 H50           10.0773     3.2092     2.0730 H       
  51 H51            7.6195     3.3220     2.0823 H       
  52 H52           12.2206     3.1383    -1.6595 H       
  53 H53            8.4898     3.3038    -3.7869 H       
@<TRIPOS>BOND
   1    1    2 1
   2    1    5 1
   3    1   12 1
   4    2    3 2
   5    3    4 1
   6    4    5 ar
   7    4    6 ar
   8    5    9 ar
   9    6    7 ar
  10    6   10 1
  11    7    8 ar
  12    7   17 1
  13    8    9 ar
  14    8   33 1
  15    9   34 1
  16   10   11 3
  17   12   13 1
  18   12   35 1
  19   12   36 1
  20   13   14 1
  21   13   15 1
  22   13   16 1
  23   14   37 1
  24   14   38 1
  25   14   39 1
  26   15   40 1
  27   15   41 1
  28   15   42 1
  29   16   43 1
  30   16   44 1
  31   16   45 1
  32   17   18 1
  33   18   19 1
  34   18   46 1
  35   18   47 1
  36   19   20 ar
  37   19   24 ar
  38   20   21 ar
  39   20   48 1
  40   21   22 ar
  41   21   28 1
  42   22   23 ar
  43   22   49 1
  44   23   24 ar
  45   23   50 1
  46   24   51 1
  47   25   26 ar
  48   25   30 ar
  49   25   31 1
  50   26   27 ar
  51   27   28 ar
  52   27   52 1
  53   28   29 ar
  54   29   30 ar
  55   29   53 1
  56   31   32 3

#	End of record

