#	Name: ASD02030278
#	Creating user name:	WinNT
#	Creation time:	15. 06. 2019 20:15

#	Modifying user name:	WinNT
#	Modification time:	15. 06. 2019 20:15

#	Program:	/corina/corina34_cracker 3.40 0067  02.08.2006

@<TRIPOS>MOLECULE
ASD02030278
  52   55    0    0    0
SMALL
NO_CHARGES


@<TRIPOS>ATOM
   1 N1            -0.2117     1.4220    -0.1406 N.am    
   2 C2            -0.0217    -0.0116     0.1214 C.3     
   3 C3            -0.9185    -0.4179     1.2974 C.3     
   4 N4            -2.2775     0.0822     1.0463 N.am    
   5 C5            -2.4675     1.5157     0.7842 C.3     
   6 C6            -1.5714     1.9229    -0.3862 C.3     
   7 C7             0.8413     2.2631    -0.1501 C.2     
   8 C8             2.1837     1.7710     0.2259 C.2     
   9 N9             3.2625     2.5079     0.3808 N.2     
  10 N10            2.5162     0.4912     0.4757 N.2     
  11 C11            3.7905     0.4713     0.7730 C.2     
  12 N12            4.2438     1.7402     0.7095 N.pl3   
  13 O13            0.6873     3.4263    -0.4677 O.2     
  14 C14           -3.3305    -0.7589     1.0557 C.2     
  15 C15           -4.7020    -0.2275     0.9118 C.ar    
  16 O16           -3.1522    -1.9547     1.1826 O.2     
  17 C17           -1.5445     3.4480    -0.5060 C.3     
  18 C18           -2.1095     1.3121    -1.6817 C.3     
  19 C19            5.5595     2.1535     0.9585 C.ar    
  20 C20            5.8972     3.4962     0.8586 C.ar    
  21 C21            7.1960     3.9008     1.1053 C.ar    
  22 C22            8.1582     2.9683     1.4510 C.ar    
  23 C23            7.8237     1.6303     1.5510 C.ar    
  24 C24            6.5266     1.2213     1.3113 C.ar    
  25 C25           -5.6735    -0.9689     0.2371 C.ar    
  26 C26           -6.9519    -0.4683     0.1056 C.ar    
  27 C27           -7.2733     0.7674     0.6412 C.ar    
  28 C28           -6.3132     1.5089     1.3124 C.ar    
  29 C29           -5.0325     1.0155     1.4551 C.ar    
  30 Cl30           7.6201     5.5796     0.9808 Cl      
  31 Cl31          -8.8845     1.3910     0.4710 Cl      
  32 Cl32          -6.7248     3.0576     1.9803 Cl      
  33 H33           -0.2970    -0.5849    -0.7637 H       
  34 H34            1.0214    -0.2022     0.3740 H       
  35 H35           -0.9386    -1.5043     1.3838 H       
  36 H36           -0.5329     0.0178     2.2191 H       
  37 H37           -3.5106     1.7063     0.5317 H       
  38 H38           -2.1922     2.0891     1.6694 H       
  39 H39            4.3730    -0.4022     1.0262 H       
  40 H40           -1.0482     3.8723     0.3669 H       
  41 H41           -1.0007     3.7322    -1.4069 H       
  42 H42           -2.5652     3.8260    -0.5632 H       
  43 H43           -3.1229     1.6718    -1.8594 H       
  44 H44           -1.4692     1.6037    -2.5143 H       
  45 H45           -2.1196     0.2257    -1.5943 H       
  46 H46            5.1464     4.2239     0.5881 H       
  47 H47            9.1725     3.2861     1.6427 H       
  48 H48            8.5768     0.9047     1.8207 H       
  49 H49            6.2663     0.1761     1.3900 H       
  50 H50           -5.4243    -1.9328    -0.1815 H       
  51 H51           -7.7039    -1.0413    -0.4166 H       
  52 H52           -4.2850     1.5935     1.9781 H       
@<TRIPOS>BOND
   1    1    2 1
   2    1    7 am
   3    1    6 1
   4    2    3 1
   5    2   33 1
   6    2   34 1
   7    3    4 1
   8    3   35 1
   9    3   36 1
  10    4    5 1
  11    4   14 am
  12    5    6 1
  13    5   37 1
  14    5   38 1
  15    6   17 1
  16    6   18 1
  17    7    8 1
  18    7   13 2
  19    8    9 2
  20    8   10 1
  21    9   12 1
  22   10   11 2
  23   11   12 1
  24   11   39 1
  25   12   19 1
  26   14   15 1
  27   14   16 2
  28   15   25 ar
  29   15   29 ar
  30   17   40 1
  31   17   41 1
  32   17   42 1
  33   18   43 1
  34   18   44 1
  35   18   45 1
  36   19   20 ar
  37   19   24 ar
  38   20   21 ar
  39   20   46 1
  40   21   22 ar
  41   21   30 1
  42   22   23 ar
  43   22   47 1
  44   23   24 ar
  45   23   48 1
  46   24   49 1
  47   25   26 ar
  48   25   50 1
  49   26   27 ar
  50   26   51 1
  51   27   28 ar
  52   27   31 1
  53   28   29 ar
  54   28   32 1
  55   29   52 1

#	End of record

