#	Name: ASD01918210
#	Creating user name:	WinNT
#	Creation time:	15. 06. 2019 20:11

#	Modifying user name:	WinNT
#	Modification time:	15. 06. 2019 20:11

#	Program:	/corina/corina34_cracker 3.40 0067  02.08.2006

@<TRIPOS>MOLECULE
ASD01918210
  41   44    0    0    0
SMALL
NO_CHARGES


@<TRIPOS>ATOM
   1 C1             0.0690     1.3483    -0.0303 C.ar    
   2 C2             0.1824    -0.0438    -0.2742 C.ar    
   3 C3             1.4491    -0.6617    -0.1360 C.ar    
   4 N4             2.5129     0.0667     0.2199 N.ar    
   5 C5             2.4224     1.3551     0.4491 C.ar    
   6 C6             1.2178     2.0382     0.3349 C.ar    
   7 C7            -1.2305     2.0449    -0.1664 C.ar    
   8 C8            -2.2302     1.8542     0.7879 C.ar    
   9 C9            -3.4388     2.5053     0.6566 C.ar    
  10 C10           -3.6612     3.3480    -0.4211 C.ar    
  11 C11           -2.6714     3.5404    -1.3720 C.ar    
  12 C12           -1.4571     2.8986    -1.2463 C.ar    
  13 C13           -0.9290    -0.8114    -0.6462 C.ar    
  14 C14           -0.7812    -2.1468    -0.8719 C.ar    
  15 C15            0.4644    -2.7602    -0.7371 C.ar    
  16 C16            1.5656    -2.0410    -0.3769 C.ar    
  17 S17            1.1479     3.7700     0.6523 S.o2    
  18 C18            0.1645     3.9962     2.0967 C.ar    
  19 O19            2.4673     4.1680     0.9988 O.2     
  20 O20            0.4195     4.3459    -0.4233 O.2     
  21 C21           -1.1703     4.3238     1.9762 C.ar    
  22 C22            0.7311     3.8394     3.3490 C.ar    
  23 C23           -0.0340     4.0147     4.4886 C.ar    
  24 C24           -1.3683     4.3475     4.3828 C.ar    
  25 C25           -1.9481     4.5022     3.1218 C.ar    
  26 F26           -4.8468     3.9836    -0.5453 F       
  27 F27            0.5816    -4.0863    -0.9673 F       
  28 C28           -3.3342     4.8424     3.0043 C.1     
  29 N29           -4.4337     5.1123     2.9111 N.1     
  30 H30            3.3097     1.9007     0.7343 H       
  31 H31           -2.0579     1.1975     1.6278 H       
  32 H32           -4.2134     2.3581     1.3946 H       
  33 H33           -2.8496     4.1977    -2.2102 H       
  34 H34           -0.6847     3.0529    -1.9852 H       
  35 H35           -1.8981    -0.3470    -0.7531 H       
  36 H36           -1.6387    -2.7377    -1.1582 H       
  37 H37            2.5234    -2.5299    -0.2765 H       
  38 H38           -1.6124     4.4423     0.9980 H       
  39 H39            1.7754     3.5785     3.4375 H       
  40 H40            0.4146     3.8904     5.4631 H       
  41 H41           -1.9644     4.4837     5.2730 H       
@<TRIPOS>BOND
   1    1    2 ar
   2    1    6 ar
   3    1    7 1
   4    2    3 ar
   5    2   13 ar
   6    3    4 ar
   7    3   16 ar
   8    4    5 ar
   9    5    6 ar
  10    5   30 1
  11    6   17 1
  12    7    8 ar
  13    7   12 ar
  14    8    9 ar
  15    8   31 1
  16    9   10 ar
  17    9   32 1
  18   10   11 ar
  19   10   26 1
  20   11   12 ar
  21   11   33 1
  22   12   34 1
  23   13   14 ar
  24   13   35 1
  25   14   15 ar
  26   14   36 1
  27   15   16 ar
  28   15   27 1
  29   16   37 1
  30   17   18 1
  31   17   19 2
  32   17   20 2
  33   18   22 ar
  34   18   21 ar
  35   21   25 ar
  36   21   38 1
  37   22   23 ar
  38   22   39 1
  39   23   24 ar
  40   23   40 1
  41   24   25 ar
  42   24   41 1
  43   25   28 1
  44   28   29 3

#	End of record

