#	Name: ASD02039476
#	Creating user name:	WinNT
#	Creation time:	15. 06. 2019 20:18

#	Modifying user name:	WinNT
#	Modification time:	15. 06. 2019 20:18

#	Program:	/corina/corina34_cracker 3.40 0067  02.08.2006

@<TRIPOS>MOLECULE
ASD02039476
  48   51    0    0    0
SMALL
NO_CHARGES


@<TRIPOS>ATOM
   1 C1             0.0707     1.9220    -0.2778 C.2     
   2 S2            -0.1809     0.2315    -0.2680 S.3     
   3 C3             1.4024     2.5936    -0.0616 C.3     
   4 N4             1.5908     2.8557     1.3674 N.am    
   5 C5             2.2094     1.9442     2.1439 C.2     
   6 C6             2.6067     0.6431     1.5785 C.2     
   7 C7             3.1335    -0.4091     2.2689 C.2     
   8 N8             2.5097     0.2705     0.2767 N.2     
   9 C9             2.9555    -0.9462     0.1527 C.2     
  10 N10            3.3512    -1.3986     1.3710 N.pl3   
  11 O11            2.4397     2.1958     3.3113 O.2     
  12 C12            3.9135    -2.7199     1.6610 C.3     
  13 C13           -1.8977     0.4717    -0.5825 C.2     
  14 C14           -2.1215     1.7988    -0.6654 C.2     
  15 N15           -1.0363     2.5414    -0.5012 N.2     
  16 C16           -3.4631     2.3764    -0.9246 C.ar    
  17 C17           -4.5809     1.5466    -0.9909 C.ar    
  18 C18           -5.8267     2.0895    -1.2318 C.ar    
  19 C19           -5.9670     3.4544    -1.4077 C.ar    
  20 C20           -4.8610     4.2826    -1.3433 C.ar    
  21 C21           -3.6113     3.7514    -1.0968 C.ar    
  22 C22           -7.3299     4.0411    -1.6709 C.3     
  23 F23           -7.9385     4.3707    -0.4551 F       
  24 F24           -7.1984     5.1930    -2.4539 F       
  25 F25           -8.1180     3.1044    -2.3481 F       
  26 C26            1.1068     4.1087     1.9524 C.3     
  27 C27            0.1955     3.9064     3.1745 C.3     
  28 C28            0.9118     5.1101     3.8093 C.3     
  29 C29            2.1120     4.7701     2.9100 C.3     
  30 H30            2.1999     1.9428    -0.4199 H       
  31 H31            1.4277     3.5352    -0.6101 H       
  32 H32            3.3380    -0.4456     3.3287 H       
  33 H33            3.0005    -1.5067    -0.7694 H       
  34 H34            4.9983    -2.6831     1.5608 H       
  35 H35            3.6523    -3.0106     2.6785 H       
  36 H36            3.5084    -3.4491     0.9594 H       
  37 H37           -2.6392    -0.3061    -0.6904 H       
  38 H38           -4.4724     0.4808    -0.8544 H       
  39 H39           -6.6936     1.4475    -1.2834 H       
  40 H40           -4.9762     5.3475    -1.4818 H       
  41 H41           -2.7484     4.3990    -1.0468 H       
  42 H42            0.6954     4.7916     1.2092 H       
  43 H43           -0.8594     4.0857     2.9669 H       
  44 H44            0.3710     2.9673     3.6993 H       
  45 H45            0.4476     6.0679     3.5744 H       
  46 H46            1.1143     4.9863     4.8731 H       
  47 H47            2.8114     4.0672     3.3626 H       
  48 H48            2.6042     5.6468     2.4889 H       
@<TRIPOS>BOND
   1    1    2 1
   2    1    3 1
   3    1   15 2
   4    2   13 1
   5    3    4 1
   6    3   30 1
   7    3   31 1
   8    4    5 am
   9    4   26 1
  10    5    6 1
  11    5   11 2
  12    6    7 2
  13    6    8 1
  14    7   10 1
  15    7   32 1
  16    8    9 2
  17    9   10 1
  18    9   33 1
  19   10   12 1
  20   12   34 1
  21   12   35 1
  22   12   36 1
  23   13   14 2
  24   13   37 1
  25   14   15 1
  26   14   16 1
  27   16   17 ar
  28   16   21 ar
  29   17   18 ar
  30   17   38 1
  31   18   19 ar
  32   18   39 1
  33   19   20 ar
  34   19   22 1
  35   20   21 ar
  36   20   40 1
  37   21   41 1
  38   22   23 1
  39   22   24 1
  40   22   25 1
  41   26   27 1
  42   26   29 1
  43   26   42 1
  44   27   28 1
  45   27   43 1
  46   27   44 1
  47   28   29 1
  48   28   45 1
  49   28   46 1
  50   29   47 1
  51   29   48 1

#	End of record

