#	Name: ASD01440011
#	Creating user name:	WinNT
#	Creation time:	15. 06. 2019 19:20

#	Modifying user name:	WinNT
#	Modification time:	15. 06. 2019 19:20

#	Program:	/corina/corina34_cracker 3.40 0067  02.08.2006

@<TRIPOS>MOLECULE
ASD01440011
  41   42    0    0    0
SMALL
NO_CHARGES


@<TRIPOS>ATOM
   1 C1            -0.0178     1.4648     0.0101 C.3     
   2 N2             0.0021    -0.0041     0.0020 N.3     
   3 C3             0.7062    -0.5275     1.1802 C.3     
   4 C4             2.1628    -0.1488     1.1043 C.ar    
   5 C5             2.5978     1.0400     1.6598 C.ar    
   6 C6             3.9339     1.3874     1.5901 C.ar    
   7 C7             4.8352     0.5459     0.9653 C.ar    
   8 C8             4.4004    -0.6433     0.4107 C.ar    
   9 C9             3.0650    -0.9928     0.4842 C.ar    
  10 N10            6.2658     0.9183     0.8899 N.pl3   
  11 O11            6.6488     1.9663     1.3782 O.2     
  12 O12            7.0599     0.1768     0.3394 O.2     
  13 C13           -1.3597    -0.5486    -0.0825 C.3     
  14 C14           -1.9710    -0.1854    -1.4372 C.3     
  15 O15           -1.2392    -0.8339    -2.4793 O.3     
  16 C16           -1.6557    -0.6148    -3.7542 C.ar    
  17 C17           -0.9909    -1.2130    -4.8148 C.ar    
  18 C18           -1.4165    -0.9890    -6.1098 C.ar    
  19 C19           -2.5040    -0.1694    -6.3494 C.ar    
  20 C20           -3.1682     0.4280    -5.2941 C.ar    
  21 C21           -2.7498     0.2030    -3.9969 C.ar    
  22 N22           -2.9576     0.0693    -7.7379 N.pl3   
  23 O23           -2.3730    -0.4562    -8.6683 O.2     
  24 O24           -3.9154     0.7911    -7.9501 O.2     
  25 H25            1.0047     1.8421     0.0024 H       
  26 H26           -0.5450     1.8259    -0.8730 H       
  27 H27           -0.5280     1.8163     0.9069 H       
  28 H28            0.2673    -0.1040     2.0837 H       
  29 H29            0.6139    -1.6133     1.2060 H       
  30 H30            1.8936     1.6975     2.1479 H       
  31 H31            4.2736     2.3165     2.0234 H       
  32 H32            5.1046    -1.3007    -0.0778 H       
  33 H33            2.7253    -1.9219     0.0508 H       
  34 H34           -1.3244    -1.6331     0.0212 H       
  35 H35           -1.9698    -0.1268     0.7163 H       
  36 H36           -3.0106    -0.5117    -1.4659 H       
  37 H37           -1.9251     0.8944    -1.5788 H       
  38 H38           -0.1413    -1.8530    -4.6282 H       
  39 H39           -0.8992    -1.4542    -6.9359 H       
  40 H40           -4.0171     1.0681    -5.4838 H       
  41 H41           -3.2689     0.6698    -3.1729 H       
@<TRIPOS>BOND
   1    1    2 1
   2    1   25 1
   3    1   26 1
   4    1   27 1
   5    2    3 1
   6    2   13 1
   7    3    4 1
   8    3   28 1
   9    3   29 1
  10    4    5 ar
  11    4    9 ar
  12    5    6 ar
  13    5   30 1
  14    6    7 ar
  15    6   31 1
  16    7    8 ar
  17    7   10 1
  18    8    9 ar
  19    8   32 1
  20    9   33 1
  21   10   11 2
  22   10   12 2
  23   13   14 1
  24   13   34 1
  25   13   35 1
  26   14   15 1
  27   14   36 1
  28   14   37 1
  29   15   16 1
  30   16   17 ar
  31   16   21 ar
  32   17   18 ar
  33   17   38 1
  34   18   19 ar
  35   18   39 1
  36   19   20 ar
  37   19   22 1
  38   20   21 ar
  39   20   40 1
  40   21   41 1
  41   22   23 2
  42   22   24 2

#	End of record

