#	Name: ASD01882655
#	Creating user name:	WinNT
#	Creation time:	15. 06. 2019 19:45

#	Modifying user name:	WinNT
#	Modification time:	15. 06. 2019 19:45

#	Program:	/corina/corina34_cracker 3.40 0067  02.08.2006

@<TRIPOS>MOLECULE
ASD01882655
  54   59    0    0    0
SMALL
NO_CHARGES


@<TRIPOS>ATOM
   1 O1             0.1011     1.6136    -0.3541 O.3     
   2 C2             0.0513     0.1763    -0.3041 C.3     
   3 C3             1.4169    -0.2294    -0.8912 C.3     
   4 C4             2.2699     0.9848    -0.6095 C.ar    
   5 C5             1.3990     2.0221    -0.2930 C.ar    
   6 C6             3.6318     1.1895    -0.6189 C.ar    
   7 C7             4.1478     2.4343    -0.3047 C.ar    
   8 C8             3.2920     3.4709     0.0181 C.ar    
   9 C9             1.9270     3.2703     0.0248 C.ar    
  10 N10            0.8225    -2.8069    -1.8548 N.pl3   
  11 C11            1.0225    -2.6444    -0.4083 C.3     
  12 C12            1.9616    -1.4557    -0.1719 C.3     
  13 C13            1.2992    -0.4743    -2.3895 C.3     
  14 C14            0.3552    -1.6560    -2.6399 C.3     
  15 C15            0.3186    -5.9758    -3.6406 C.2     
  16 C16            0.0427    -4.7437    -3.0238 C.2     
  17 C17            1.0708    -4.0298    -2.4707 C.2     
  18 C18            2.3854    -4.5418    -2.5294 C.2     
  19 C19            2.6273    -5.7255    -3.1258 C.2     
  20 N20            1.6092    -6.4450    -3.6802 N.pl3   
  21 N21            0.3001    -7.8545    -4.6497 N.2     
  22 N22           -0.4366    -6.8804    -4.2450 N.2     
  23 C23            1.5499    -7.6416    -4.3323 C.2     
  24 C24           -1.3676    -4.2150    -2.9724 C.3     
  25 F25           -1.5873    -3.3658    -4.0623 F       
  26 F26           -2.2686    -5.2840    -3.0252 F       
  27 F27           -1.5563    -3.5045    -1.7821 F       
  28 C28            2.7128    -8.5525    -4.6309 C.3     
  29 C29            2.9004    -9.5360    -3.4740 C.3     
  30 C30            3.9617   -10.6258    -3.6383 C.3     
  31 C31            4.2080    -9.4558    -2.6836 C.3     
  32 H32           -0.0462    -0.1716     0.7242 H       
  33 H33           -0.7630    -0.2040    -0.9209 H       
  34 H34            4.2977     0.3775    -0.8715 H       
  35 H35            5.2157     2.5954    -0.3112 H       
  36 H36            3.6938     4.4421     0.2664 H       
  37 H37            1.2651     4.0854     0.2778 H       
  38 H38            0.0638    -2.4545     0.0742 H       
  39 H39            1.4684    -3.5500     0.0030 H       
  40 H40            2.9528    -1.6932    -0.5580 H       
  41 H41            2.0270    -1.2511     0.8967 H       
  42 H42            0.9014     0.4177    -2.8735 H       
  43 H43            2.2833    -0.7020    -2.7990 H       
  44 H44            0.3605    -1.9101    -3.6998 H       
  45 H45           -0.6553    -1.3886    -2.3307 H       
  46 H46            3.2004    -3.9821    -2.0948 H       
  47 H47            3.6364    -6.1083    -3.1654 H       
  48 H48            2.5149    -9.1052    -5.5492 H       
  49 H49            3.6181    -7.9578    -4.7527 H       
  50 H50            1.9950    -9.7939    -2.9247 H       
  51 H51            3.7546   -11.6006    -3.1968 H       
  52 H52            4.5262   -10.6421    -4.5706 H       
  53 H53            4.9346    -8.7024    -2.9879 H       
  54 H54            4.1630    -9.6609    -1.6141 H       
@<TRIPOS>BOND
   1    1    2 1
   2    1    5 1
   3    2    3 1
   4    2   32 1
   5    2   33 1
   6    3    4 1
   7    3   12 1
   8    3   13 1
   9    4    5 ar
  10    4    6 ar
  11    5    9 ar
  12    6    7 ar
  13    6   34 1
  14    7    8 ar
  15    7   35 1
  16    8    9 ar
  17    8   36 1
  18    9   37 1
  19   10   11 1
  20   10   14 1
  21   10   17 1
  22   11   12 1
  23   11   38 1
  24   11   39 1
  25   12   40 1
  26   12   41 1
  27   13   14 1
  28   13   42 1
  29   13   43 1
  30   14   44 1
  31   14   45 1
  32   15   16 1
  33   15   20 1
  34   15   22 2
  35   16   17 2
  36   16   24 1
  37   17   18 1
  38   18   19 2
  39   18   46 1
  40   19   20 1
  41   19   47 1
  42   20   23 1
  43   21   22 1
  44   21   23 2
  45   23   28 1
  46   24   25 1
  47   24   26 1
  48   24   27 1
  49   28   29 1
  50   28   48 1
  51   28   49 1
  52   29   30 1
  53   29   31 1
  54   29   50 1
  55   30   31 1
  56   30   51 1
  57   30   52 1
  58   31   53 1
  59   31   54 1

#	End of record

