#	Name: ASD03090676
#	Creating user name:	WinNT
#	Creation time:	15. 06. 2019 20:29

#	Modifying user name:	WinNT
#	Modification time:	15. 06. 2019 20:29

#	Program:	/corina/corina34_cracker 3.40 0067  02.08.2006

@<TRIPOS>MOLECULE
ASD03090676
  34   35    0    0    0
SMALL
NO_CHARGES


@<TRIPOS>ATOM
   1 N1            -0.0162     1.3436     0.0094 N.am    
   2 C2            -0.3010     0.4000     0.9287 C.2     
   3 S3             0.8943    -0.0885     2.0527 S.2     
   4 N4            -1.5269    -0.1590     0.9630 N.am    
   5 S5            -3.3635    -1.9678     2.1023 S.3     
   6 C6            -1.8207    -1.1322     1.9111 C.2     
   7 N7            -1.0071    -1.5920     2.8176 N.2     
   8 N8            -1.4439    -2.4794     3.5997 N.2     
   9 C9            -2.6675    -2.8717     3.4488 C.2     
  10 C10           -3.3733    -3.9149     4.2763 C.3     
  11 F11           -2.5375    -4.3261     5.3201 F       
  12 F12           -4.5490    -3.3727     4.8064 F       
  13 F13           -3.6886    -5.0143     3.4706 F       
  14 C14            1.2279     1.9914     0.0315 C.ar    
  15 C15            1.2926     3.3796    -0.0610 C.ar    
  16 C16            2.5218     4.0172    -0.0390 C.ar    
  17 C17            3.6865     3.2732     0.0750 C.ar    
  18 C18            3.6214     1.8893     0.1672 C.ar    
  19 C19            2.3943     1.2505     0.1512 C.ar    
  20 O20            4.8937     3.8997     0.0961 O.3     
  21 C21            4.8867     5.3252    -0.0033 C.3     
  22 O22            0.1496     4.1084    -0.1733 O.3     
  23 C23            0.2912     5.5275    -0.2637 C.3     
  24 F24            4.7573     1.1663     0.2782 F       
  25 H25           -0.6699     1.5718    -0.6699 H       
  26 H26           -2.2042     0.1177     0.3262 H       
  27 H27            2.5733     5.0936    -0.1111 H       
  28 H28            2.3448     0.1743     0.2279 H       
  29 H29            4.4192     5.6217    -0.9424 H       
  30 H30            4.3243     5.7449     0.8308 H       
  31 H31            5.9111     5.6965     0.0257 H       
  32 H32           -0.6938     5.9863    -0.3488 H       
  33 H33            0.7898     5.9006     0.6308 H       
  34 H34            0.8858     5.7780    -1.1423 H       
@<TRIPOS>BOND
   1    1    2 am
   2    1   14 1
   3    1   25 1
   4    2    3 2
   5    2    4 am
   6    4    6 1
   7    4   26 1
   8    5    6 1
   9    5    9 1
  10    6    7 2
  11    7    8 1
  12    8    9 2
  13    9   10 1
  14   10   11 1
  15   10   12 1
  16   10   13 1
  17   14   15 ar
  18   14   19 ar
  19   15   16 ar
  20   15   22 1
  21   16   17 ar
  22   16   27 1
  23   17   18 ar
  24   17   20 1
  25   18   19 ar
  26   18   24 1
  27   19   28 1
  28   20   21 1
  29   21   29 1
  30   21   30 1
  31   21   31 1
  32   22   23 1
  33   23   32 1
  34   23   33 1
  35   23   34 1

#	End of record

