#	Name: ASD01883546
#	Creating user name:	WinNT
#	Creation time:	15. 06. 2019 19:46

#	Modifying user name:	WinNT
#	Modification time:	15. 06. 2019 19:46

#	Program:	/corina/corina34_cracker 3.40 0067  02.08.2006

@<TRIPOS>MOLECULE
ASD01883546
  49   51    0    0    0
SMALL
NO_CHARGES


@<TRIPOS>ATOM
   1 C1            -0.0171     1.4071     0.0098 C.2     
   2 C2            -0.8717     1.4205    -1.1132 C.2     
   3 C3            -2.0207     0.7137    -1.0894 C.2     
   4 N4            -2.3701    -0.0149     0.0042 N.am    
   5 C5            -1.5828    -0.0533     1.0951 C.2     
   6 C6            -0.3781     0.6573     1.1179 C.2     
   7 O7            -1.9184    -0.7148     2.0656 O.2     
   8 N8             1.1653     2.1265     0.0024 N.pl3   
   9 C9             1.1493     3.5921    -0.0998 C.3     
  10 C10            2.0460     4.0148    -1.2677 C.3     
  11 C11            3.4404     3.4132    -1.0786 C.3     
  12 C12            3.3425     1.8859    -1.0731 C.3     
  13 C13            2.4602     1.4395     0.1026 C.3     
  14 C14           -3.6252    -0.7704    -0.0048 C.3     
  15 C15            4.3351     3.8548    -2.2081 C.ar    
  16 C16            5.4825     4.5773    -1.9390 C.ar    
  17 C17            6.3031     4.9824    -2.9750 C.ar    
  18 C18            5.9766     4.6646    -4.2801 C.ar    
  19 C19            4.8297     3.9413    -4.5491 C.ar    
  20 C20            4.0114     3.5325    -3.5128 C.ar    
  21 C21           -3.3696    -2.1774    -0.5488 C.3     
  22 Cl22           0.6432     0.6129     2.5210 Cl      
  23 C23           -2.4480    -2.9350     0.4092 C.3     
  24 C24           -4.6988    -2.9245    -0.6755 C.3     
  25 H25           -0.6070     1.9951    -1.9886 H       
  26 H26           -2.6721     0.7270    -1.9508 H       
  27 H27            0.1301     3.9347    -0.2790 H       
  28 H28            1.5257     4.0271     0.8260 H       
  29 H29            1.6184     3.6550    -2.2035 H       
  30 H30            2.1195     5.1020    -1.2950 H       
  31 H31            3.8573     3.7536    -0.1308 H       
  32 H32            2.9026     1.5462    -2.0107 H       
  33 H33            4.3387     1.4579    -0.9618 H       
  34 H34            2.9459     1.6993     1.0432 H       
  35 H35            2.3053     0.3616     0.0546 H       
  36 H36           -4.0155    -0.8388     1.0106 H       
  37 H37           -4.3509    -0.2618    -0.6395 H       
  38 H38            5.7376     4.8256    -0.9193 H       
  39 H39            7.1991     5.5475    -2.7648 H       
  40 H40            6.6174     4.9817    -5.0896 H       
  41 H41            4.5745     3.6933    -5.5688 H       
  42 H42            3.1153     2.9674    -3.7230 H       
  43 H43           -2.8971    -2.1079    -1.5286 H       
  44 H44           -1.5011    -2.4027     0.4995 H       
  45 H45           -2.9206    -3.0045     1.3890 H       
  46 H46           -2.2659    -3.9373     0.0217 H       
  47 H47           -5.3553    -2.3848    -1.3580 H       
  48 H48           -4.5166    -3.9269    -1.0630 H       
  49 H49           -5.1713    -2.9941     0.3043 H       
@<TRIPOS>BOND
   1    1    2 1
   2    1    8 1
   3    1    6 2
   4    2    3 2
   5    2   25 1
   6    3    4 1
   7    3   26 1
   8    4    5 am
   9    4   14 1
  10    5    6 1
  11    5    7 2
  12    6   22 1
  13    8    9 1
  14    8   13 1
  15    9   10 1
  16    9   27 1
  17    9   28 1
  18   10   11 1
  19   10   29 1
  20   10   30 1
  21   11   15 1
  22   11   12 1
  23   11   31 1
  24   12   13 1
  25   12   32 1
  26   12   33 1
  27   13   34 1
  28   13   35 1
  29   14   21 1
  30   14   36 1
  31   14   37 1
  32   15   16 ar
  33   15   20 ar
  34   16   17 ar
  35   16   38 1
  36   17   18 ar
  37   17   39 1
  38   18   19 ar
  39   18   40 1
  40   19   20 ar
  41   19   41 1
  42   20   42 1
  43   21   23 1
  44   21   24 1
  45   21   43 1
  46   23   44 1
  47   23   45 1
  48   23   46 1
  49   24   47 1
  50   24   48 1
  51   24   49 1

#	End of record

