#	Name: ASD03930051
#	Creating user name:	WinNT
#	Creation time:	15. 06. 2019 20:47

#	Modifying user name:	WinNT
#	Modification time:	15. 06. 2019 20:47

#	Program:	/corina/corina34_cracker 3.40 0067  02.08.2006

@<TRIPOS>MOLECULE
ASD03930051
  27   29    0    0    0
SMALL
NO_CHARGES


@<TRIPOS>ATOM
   1 C1            -0.0166     1.3720     0.0096 C.ar    
   2 C2             0.0021    -0.0041     0.0020 C.ar    
   3 C3            -1.1770    -0.7417    -0.0017 C.ar    
   4 C4            -2.3957    -0.1027     0.0033 C.ar    
   5 C5            -2.4141     1.3086     0.0347 C.ar    
   6 C6            -1.2420     2.0475     0.0308 C.ar    
   7 C7            -3.6796    -0.8803    -0.0548 C.3     
   8 N8            -4.7890    -0.2079     0.6271 N.am    
   9 S9            -5.2022     1.3442     0.1593 S.o2    
  10 C10           -3.6161     2.1554     0.0990 C.2     
  11 S11           -1.6328     3.7616     0.0443 S.3     
  12 C12           -3.3578     3.4415     0.0992 C.2     
  13 O13           -5.6840     1.2656    -1.1752 O.2     
  14 O14           -5.9301     1.9257     1.2323 O.2     
  15 C15           -5.5238    -0.8835     1.6995 C.3     
  16 F16           -1.1257    -2.0917    -0.0106 F       
  17 C17            1.2757     2.1471     0.0014 C.3     
  18 F18            2.3540     1.2559    -0.0137 F       
  19 F19            1.3255     2.9587    -1.1371 F       
  20 F20            1.3473     2.9464     1.1474 F       
  21 H21            0.9503    -0.5210    -0.0015 H       
  22 H22           -3.9506    -1.0323    -1.0996 H       
  23 H23           -3.5212    -1.8539     0.4091 H       
  24 H24           -4.1152     4.2108     0.1314 H       
  25 H25           -5.0491    -0.6681     2.6567 H       
  26 H26           -6.5533    -0.5257     1.7158 H       
  27 H27           -5.5157    -1.9592     1.5237 H       
@<TRIPOS>BOND
   1    1    2 ar
   2    1   17 1
   3    1    6 ar
   4    2    3 ar
   5    2   21 1
   6    3    4 ar
   7    3   16 1
   8    4    5 ar
   9    4    7 1
  10    5    6 ar
  11    5   10 1
  12    6   11 1
  13    7    8 1
  14    7   22 1
  15    7   23 1
  16    8    9 am
  17    8   15 1
  18    9   10 1
  19    9   13 2
  20    9   14 2
  21   10   12 2
  22   11   12 1
  23   12   24 1
  24   15   25 1
  25   15   26 1
  26   15   27 1
  27   17   18 1
  28   17   19 1
  29   17   20 1

#	End of record

