#	Name: ASD00122080
#	Creating user name:	WinNT
#	Creation time:	15. 06. 2019 18:31

#	Modifying user name:	WinNT
#	Modification time:	15. 06. 2019 18:31

#	Program:	/corina/corina34_cracker 3.40 0067  02.08.2006

@<TRIPOS>MOLECULE
ASD00122080
  37   40    0    0    0
SMALL
NO_CHARGES


@<TRIPOS>ATOM
   1 C1            -0.0168     1.3907     0.0097 C.ar    
   2 C2             0.0021    -0.0041     0.0020 C.ar    
   3 N3            -1.1604    -0.6708     0.0099 N.ar    
   4 C4            -2.3076    -0.0329     0.0247 C.ar    
   5 N5            -2.3784     1.2858     0.0321 N.ar    
   6 C6            -1.2818     2.0308     0.0306 C.ar    
   7 C7             1.3263     1.9565    -0.0001 C.2     
   8 C8             2.3042     1.0522    -0.0143 C.2     
   9 S9             1.6625    -0.5793    -0.0169 S.3     
  10 S10           -1.3947     3.7891     0.0405 S.3     
  11 C11           -3.1937     3.9885     0.0504 C.3     
  12 C12           -3.5364     5.4560     0.0599 C.ar    
  13 C13           -3.6995     6.1354    -1.1329 C.ar    
  14 C14           -4.0138     7.4815    -1.1242 C.ar    
  15 C15           -4.1655     8.1481     0.0772 C.ar    
  16 C16           -4.0034     7.4685     1.2700 C.ar    
  17 C17           -3.6933     6.1214     1.2613 C.ar    
  18 C18            1.5826     3.4163     0.0045 C.ar    
  19 C19            2.4757     3.9672     0.9227 C.ar    
  20 C20            2.7106     5.3269     0.9218 C.ar    
  21 C21            2.0618     6.1432     0.0127 C.ar    
  22 C22            1.1743     5.6024    -0.9003 C.ar    
  23 C23            0.9359     4.2433    -0.9131 C.ar    
  24 H24           -3.2234    -0.6052     0.0307 H       
  25 H25            3.3570     1.2931    -0.0234 H       
  26 H26           -3.6158     3.5226    -0.8400 H       
  27 H27           -3.6071     3.5131     0.9399 H       
  28 H28           -3.5809     5.6146    -2.0716 H       
  29 H29           -4.1405     8.0125    -2.0561 H       
  30 H30           -4.4104     9.2000     0.0840 H       
  31 H31           -4.1216     7.9894     2.2087 H       
  32 H32           -3.5666     5.5904     2.1932 H       
  33 H33            2.9822     3.3310     1.6333 H       
  34 H34            3.4021     5.7548     1.6326 H       
  35 H35            2.2485     7.2069     0.0161 H       
  36 H36            0.6704     6.2446    -1.6074 H       
  37 H37            0.2431     3.8221    -1.6266 H       
@<TRIPOS>BOND
   1    1    2 ar
   2    1    7 1
   3    1    6 ar
   4    2    3 ar
   5    2    9 1
   6    3    4 ar
   7    4    5 ar
   8    4   24 1
   9    5    6 ar
  10    6   10 1
  11    7    8 2
  12    7   18 1
  13    8    9 1
  14    8   25 1
  15   10   11 1
  16   11   12 1
  17   11   26 1
  18   11   27 1
  19   12   13 ar
  20   12   17 ar
  21   13   14 ar
  22   13   28 1
  23   14   15 ar
  24   14   29 1
  25   15   16 ar
  26   15   30 1
  27   16   17 ar
  28   16   31 1
  29   17   32 1
  30   18   19 ar
  31   18   23 ar
  32   19   20 ar
  33   19   33 1
  34   20   21 ar
  35   20   34 1
  36   21   22 ar
  37   21   35 1
  38   22   23 ar
  39   22   36 1
  40   23   37 1

#	End of record

