#	Name: ASD08150742
#	Creating user name:	WinNT
#	Creation time:	15. 06. 2019 21:16

#	Modifying user name:	WinNT
#	Modification time:	15. 06. 2019 21:16

#	Program:	/corina/corina34_cracker 3.40 0067  02.08.2006

@<TRIPOS>MOLECULE
ASD08150742
  34   36    0    0    0
SMALL
NO_CHARGES


@<TRIPOS>ATOM
   1 C1            -0.0158     1.3173     0.0093 C.2     
   2 N2             0.0021    -0.0041     0.0020 N.2     
   3 C3             1.1378    -0.6845    -0.0125 C.2     
   4 C4             2.3426     0.0136    -0.0203 C.2     
   5 C5             2.3159     1.4209    -0.0125 C.2     
   6 N6             1.1165     2.0732     0.0025 N.am    
   7 S7            -1.3644     2.4678     0.0210 S.3     
   8 C8             0.9177     3.4317     0.0113 C.2     
   9 C9            -0.3185     3.8985     0.0239 C.2     
  10 O10            3.3585     2.0542    -0.0191 O.2     
  11 C11            5.6881    -1.3124    -1.1050 C.ar    
  12 C12            4.4972    -0.6187    -1.1321 C.ar    
  13 C13            3.6317    -0.7131    -0.0361 C.ar    
  14 C14            4.0194    -1.5135     1.0449 C.ar    
  15 C15            5.2289    -2.1725     0.9886 C.ar    
  16 N16            6.0156    -2.0565    -0.0650 N.ar    
  17 C17            2.0918     4.3764     0.0056 C.3     
  18 C18            1.1267    -2.1915    -0.0200 C.3     
  19 C19            0.5261    -2.7036     1.2907 C.3     
  20 N20            0.3177    -2.6696    -1.1491 N.3     
  21 H21           -0.6266     4.9336     0.0302 H       
  22 H22            6.3605    -1.2495    -1.9478 H       
  23 H23            4.2359    -0.0115    -1.9862 H       
  24 H24            3.3807    -1.6130     1.9101 H       
  25 H25            5.5368    -2.7924     1.8176 H       
  26 H26            2.3657     4.6095    -1.0233 H       
  27 H27            1.8216     5.2949     0.5267 H       
  28 H28            2.9374     3.9082     0.5095 H       
  29 H29            2.1468    -2.5618    -0.1214 H       
  30 H30           -0.4940    -2.3332     1.3921 H       
  31 H31            0.5181    -3.7935     1.2853 H       
  32 H32            1.1264    -2.3488     2.1285 H       
  33 H33            0.3470    -3.6761    -1.2144 H       
  34 H34           -0.6331    -2.3394    -1.0781 H       
@<TRIPOS>BOND
   1    1    2 2
   2    1    6 1
   3    1    7 1
   4    2    3 1
   5    3    4 2
   6    3   18 1
   7    4    5 1
   8    4   13 1
   9    5    6 am
  10    5   10 2
  11    6    8 1
  12    7    9 1
  13    8    9 2
  14    8   17 1
  15    9   21 1
  16   11   12 ar
  17   11   16 ar
  18   11   22 1
  19   12   13 ar
  20   12   23 1
  21   13   14 ar
  22   14   15 ar
  23   14   24 1
  24   15   16 ar
  25   15   25 1
  26   17   26 1
  27   17   27 1
  28   17   28 1
  29   18   19 1
  30   18   20 1
  31   18   29 1
  32   19   30 1
  33   19   31 1
  34   19   32 1
  35   20   33 1
  36   20   34 1

#	End of record

