#	Name: ASD01810615
#	Creating user name:	WinNT
#	Creation time:	15. 06. 2019 19:24

#	Modifying user name:	WinNT
#	Modification time:	15. 06. 2019 19:24

#	Program:	/corina/corina34_cracker 3.40 0067  02.08.2006

@<TRIPOS>MOLECULE
ASD01810615
  61   64    0    0    0
SMALL
NO_CHARGES


@<TRIPOS>ATOM
   1 N1             0.1033     1.3740    -0.4246 N.am    
   2 C2            -0.0465     0.0904    -0.0422 C.2     
   3 O3             0.8982    -0.5210     0.4185 O.2     
   4 N4            -1.2435    -0.5156    -0.1704 N.am    
   5 O5            -2.7400    -3.0177     1.9091 O.3     
   6 C6            -1.7444    -2.0004     1.7490 C.3     
   7 C7            -1.4064    -1.9109     0.2453 C.3     
   8 C8            -2.6640    -2.5407    -0.4133 C.3     
   9 C9            -3.0394    -3.6155     0.6377 C.3     
  10 C10            1.3222     2.0321    -0.2086 C.ar    
  11 C11            1.3504     3.4201    -0.0649 C.ar    
  12 C12            2.5557     4.0739     0.1486 C.ar    
  13 C13            3.7300     3.3557     0.2201 C.ar    
  14 C14            3.7096     1.9664     0.0777 C.ar    
  15 C15            2.4961     1.3060    -0.1320 C.ar    
  16 O16            0.1963     4.1322    -0.1346 O.3     
  17 C17            0.2978     5.5490     0.0210 C.3     
  18 C18            4.9669     1.1967     0.1538 C.2     
  19 O19            5.0192     0.1824     0.8222 O.2     
  20 N20            6.0568     1.6183    -0.5177 N.am    
  21 C21            7.2870     0.8150    -0.5278 C.3     
  22 C22            7.7091     0.5779    -1.9811 C.3     
  23 C23            7.8315     1.9240    -2.6987 C.3     
  24 C24            6.4733     2.6292    -2.6992 C.3     
  25 C25            6.0353     2.8869    -1.2586 C.3     
  26 F26            8.7706     2.7217    -2.0361 F       
  27 C27            8.2797     1.6967    -4.1195 C.ar    
  28 C28            8.7575     2.7572    -4.8689 C.ar    
  29 C29            9.1694     2.5562    -6.1700 C.ar    
  30 C30            9.1037     1.2789    -6.7302 C.ar    
  31 C31            8.6208     0.2131    -5.9681 C.ar    
  32 C32            8.2168     0.4274    -4.6667 C.ar    
  33 C33            9.5291     1.0629    -8.0804 C.1     
  34 N34            9.8665     0.8916    -9.1515 N.1     
  35 H35           -0.6309     1.8413    -0.8530 H       
  36 H36           -1.9972    -0.0279    -0.5379 H       
  37 H37           -2.1336    -1.0439     2.0980 H       
  38 H38           -0.8507    -2.2655     2.3138 H       
  39 H39           -0.5123    -2.4898     0.0136 H       
  40 H40           -3.4601    -1.8043    -0.5236 H       
  41 H41           -2.4184    -2.9975    -1.3719 H       
  42 H42           -2.4393    -4.5136     0.4913 H       
  43 H43           -4.1009    -3.8541     0.5724 H       
  44 H44            2.5737     5.1481     0.2586 H       
  45 H45            4.6664     3.8676     0.3860 H       
  46 H46            2.4758     0.2314    -0.2382 H       
  47 H47            0.7245     5.7777     0.9976 H       
  48 H48            0.9402     5.9552    -0.7603 H       
  49 H49           -0.6939     5.9949    -0.0556 H       
  50 H50            8.0769     1.3499    -0.0004 H       
  51 H51            7.1024    -0.1421    -0.0400 H       
  52 H52            8.6712     0.0659    -2.0016 H       
  53 H53            6.9597    -0.0347    -2.4823 H       
  54 H54            6.5557     3.5772    -3.2308 H       
  55 H55            5.7355     1.9973    -3.1936 H       
  56 H56            5.0252     3.2963    -1.2529 H       
  57 H57            6.7211     3.5941    -0.7921 H       
  58 H58            8.8078     3.7446    -4.4343 H       
  59 H59            9.5415     3.3849    -6.7541 H       
  60 H60            8.5673    -0.7773    -6.3953 H       
  61 H61            7.8469    -0.3967    -4.0747 H       
@<TRIPOS>BOND
   1    1    2 am
   2    1   10 1
   3    1   35 1
   4    2    3 2
   5    2    4 am
   6    4    7 1
   7    4   36 1
   8    5    6 1
   9    5    9 1
  10    6    7 1
  11    6   37 1
  12    6   38 1
  13    7    8 1
  14    7   39 1
  15    8    9 1
  16    8   40 1
  17    8   41 1
  18    9   42 1
  19    9   43 1
  20   10   11 ar
  21   10   15 ar
  22   11   12 ar
  23   11   16 1
  24   12   13 ar
  25   12   44 1
  26   13   14 ar
  27   13   45 1
  28   14   15 ar
  29   14   18 1
  30   15   46 1
  31   16   17 1
  32   17   47 1
  33   17   48 1
  34   17   49 1
  35   18   19 2
  36   18   20 am
  37   20   21 1
  38   20   25 1
  39   21   22 1
  40   21   50 1
  41   21   51 1
  42   22   23 1
  43   22   52 1
  44   22   53 1
  45   23   24 1
  46   23   26 1
  47   23   27 1
  48   24   25 1
  49   24   54 1
  50   24   55 1
  51   25   56 1
  52   25   57 1
  53   27   28 ar
  54   27   32 ar
  55   28   29 ar
  56   28   58 1
  57   29   30 ar
  58   29   59 1
  59   30   31 ar
  60   30   33 1
  61   31   32 ar
  62   31   60 1
  63   32   61 1
  64   33   34 3

#	End of record

