#	Name: ASD05153012
#	Creating user name:	WinNT
#	Creation time:	15. 06. 2019 20:57

#	Modifying user name:	WinNT
#	Modification time:	15. 06. 2019 20:57

#	Program:	/corina/corina34_cracker 3.40 0067  02.08.2006

@<TRIPOS>MOLECULE
ASD05153012
  85   88    0    0    0
SMALL
NO_CHARGES


@<TRIPOS>ATOM
   1 C1            -0.0144     1.2086     0.0087 C.2     
   2 O2             0.0021    -0.0041     0.0020 O.2     
   3 N3             2.3715     1.1097     0.4591 N.3     
   4 C4             1.2803     1.9798     0.0005 C.3     
   5 C5             1.5768     2.4636    -1.4204 C.3     
   6 C6             2.8047     3.3371    -1.4077 C.2     
   7 C7             3.9101     3.1594    -2.1562 C.2     
   8 N8             4.7732     4.1718    -1.8344 N.pl3   
   9 C9             4.1649     4.9335    -0.8998 C.2     
  10 N10            2.9859     4.4312    -0.6533 N.2     
  11 C11           -3.5426     1.9694    -0.5709 C.2     
  12 O12           -3.2948     3.0926    -0.9556 O.2     
  13 N13           -1.1906     1.8666     0.0178 N.am    
  14 C14           -2.4492     1.1169     0.0197 C.3     
  15 C15           -2.8163     0.7401     1.4565 C.3     
  16 C16           -1.7846    -0.2115     2.0054 C.ar    
  17 C17           -0.6725     0.2793     2.6635 C.ar    
  18 C18            0.2738    -0.5936     3.1670 C.ar    
  19 C19            0.1078    -1.9572     3.0127 C.ar    
  20 C20           -1.0049    -2.4480     2.3554 C.ar    
  21 C21           -1.9533    -1.5753     1.8557 C.ar    
  22 C22           -7.1934     1.8552    -0.7166 C.2     
  23 O23           -7.2513     0.9284     0.0635 O.2     
  24 N24           -4.7957     1.4837    -0.6717 N.am    
  25 C25           -5.8586     2.3124    -1.2459 C.3     
  26 C26           -5.8417     2.1796    -2.7700 C.3     
  27 C27           -4.5360     2.7591    -3.3180 C.3     
  28 C28           -4.5191     2.6263    -4.8421 C.3     
  29 C29           -3.2134     3.2057    -5.3901 C.3     
  30 N30           -3.1972     3.0782    -6.8535 N.3     
  31 C31          -10.1289     0.8881    -1.4349 C.2     
  32 O32           -9.4743     0.4855    -2.3673 O.2     
  33 N33           -8.3230     2.4763    -1.1101 N.am    
  34 C34           -9.6207     2.0318    -0.5955 C.3     
  35 C35          -10.6174     3.1910    -0.6559 C.3     
  36 C36          -10.1717     4.2859     0.2788 C.2     
  37 C37          -10.5785     4.4698     1.5447 C.2     
  38 N38           -9.9579     5.5657     2.0797 N.pl3   
  39 C39           -9.1151     6.1281     1.1473 C.ar    
  40 C40           -8.2652     7.2289     1.1654 C.ar    
  41 C41           -7.5308     7.5449     0.0432 C.ar    
  42 C42           -7.6299     6.7753    -1.1075 C.ar    
  43 C43           -8.4592     5.6897    -1.1474 C.ar    
  44 C44           -9.2076     5.3477    -0.0198 C.ar    
  45 O45          -11.3087     0.3166    -1.1468 O.3     
  46 H46            2.4700     0.3057    -0.1425 H       
  47 H47            3.2388     1.6212     0.5241 H       
  48 H48            1.1960     2.8385     0.6665 H       
  49 H49            1.7489     1.6042    -2.0684 H       
  50 H50            0.7276     3.0359    -1.7939 H       
  51 H51            4.0825     2.3697    -2.8724 H       
  52 H52            5.6569     4.3154    -2.2079 H       
  53 H53            4.5831     5.8148    -0.4363 H       
  54 H54           -1.2037     2.8365     0.0232 H       
  55 H55           -2.3335     0.2109    -0.5752 H       
  56 H56           -2.8450     1.6393     2.0719 H       
  57 H57           -3.7951     0.2607     1.4676 H       
  58 H58           -0.5428     1.3447     2.7841 H       
  59 H59            1.1431    -0.2101     3.6806 H       
  60 H60            0.8474    -2.6391     3.4055 H       
  61 H61           -1.1344    -3.5134     2.2345 H       
  62 H62           -2.8244    -1.9589     1.3453 H       
  63 H63           -4.9939     0.5854    -0.3641 H       
  64 H64           -5.6959     3.3544    -0.9701 H       
  65 H65           -5.9154     1.1272    -3.0439 H       
  66 H66           -6.6863     2.7247    -3.1916 H       
  67 H67           -4.4623     3.8115    -3.0442 H       
  68 H68           -3.6914     2.2140    -2.8964 H       
  69 H69           -4.5927     1.5738    -5.1160 H       
  70 H70           -5.3636     3.1713    -5.2637 H       
  71 H71           -3.1397     4.2581    -5.1163 H       
  72 H72           -2.3688     2.6606    -4.9685 H       
  73 H73           -2.3442     3.4541    -7.2398 H       
  74 H74           -3.3289     2.1180    -7.1343 H       
  75 H75           -8.2768     3.2176    -1.7340 H       
  76 H76           -9.5084     1.7026     0.4375 H       
  77 H77          -10.6630     3.5784    -1.6737 H       
  78 H78          -11.6043     2.8376    -0.3571 H       
  79 H79          -11.2905     3.8455     2.0640 H       
  80 H80          -10.0917     5.8970     2.9815 H       
  81 H81           -8.1814     7.8342     2.0559 H       
  82 H82           -6.8717     8.4003     0.0590 H       
  83 H83           -7.0474     7.0366    -1.9786 H       
  84 H84           -8.5315     5.0957    -2.0465 H       
  85 H85          -11.5929    -0.4136    -1.7135 H       
@<TRIPOS>BOND
   1    1    2 2
   2    1    4 1
   3    1   13 am
   4    3    4 1
   5    3   46 1
   6    3   47 1
   7    4    5 1
   8    4   48 1
   9    5    6 1
  10    5   49 1
  11    5   50 1
  12    6    7 2
  13    6   10 1
  14    7    8 1
  15    7   51 1
  16    8    9 1
  17    8   52 1
  18    9   10 2
  19    9   53 1
  20   11   12 2
  21   11   14 1
  22   11   24 am
  23   13   14 1
  24   13   54 1
  25   14   15 1
  26   14   55 1
  27   15   16 1
  28   15   56 1
  29   15   57 1
  30   16   17 ar
  31   16   21 ar
  32   17   18 ar
  33   17   58 1
  34   18   19 ar
  35   18   59 1
  36   19   20 ar
  37   19   60 1
  38   20   21 ar
  39   20   61 1
  40   21   62 1
  41   22   23 2
  42   22   25 1
  43   22   33 am
  44   24   25 1
  45   24   63 1
  46   25   26 1
  47   25   64 1
  48   26   27 1
  49   26   65 1
  50   26   66 1
  51   27   28 1
  52   27   67 1
  53   27   68 1
  54   28   29 1
  55   28   69 1
  56   28   70 1
  57   29   30 1
  58   29   71 1
  59   29   72 1
  60   30   73 1
  61   30   74 1
  62   31   32 2
  63   31   34 1
  64   31   45 1
  65   33   34 1
  66   33   75 1
  67   34   35 1
  68   34   76 1
  69   35   36 1
  70   35   77 1
  71   35   78 1
  72   36   37 2
  73   36   44 1
  74   37   38 1
  75   37   79 1
  76   38   39 1
  77   38   80 1
  78   39   40 ar
  79   39   44 ar
  80   40   41 ar
  81   40   81 1
  82   41   42 ar
  83   41   82 1
  84   42   43 ar
  85   42   83 1
  86   43   44 ar
  87   43   84 1
  88   45   85 1

#	End of record

