#	Name: ASD01915906
#	Creating user name:	WinNT
#	Creation time:	15. 06. 2019 20:06

#	Modifying user name:	WinNT
#	Modification time:	15. 06. 2019 20:06

#	Program:	/corina/corina34_cracker 3.40 0067  02.08.2006

@<TRIPOS>MOLECULE
ASD01915906
  40   43    0    0    0
SMALL
NO_CHARGES


@<TRIPOS>ATOM
   1 C1            -0.0018     1.4664     0.2367 C.2     
   2 C2             0.0697     0.1218    -0.0253 C.2     
   3 C3            -1.2016    -0.6644    -0.3017 C.3     
   4 C4            -2.3581    -0.0142     0.4549 C.3     
   5 N5            -2.4035     1.4321     0.2718 N.am    
   6 C6            -1.2798     2.1862     0.2821 C.2     
   7 O7            -1.3269     3.4015     0.3267 O.2     
   8 S8             1.6204     2.0717     0.4942 S.3     
   9 C9             2.2521     0.5015     0.2427 C.2     
  10 N10            1.2962    -0.3358    -0.0055 N.2     
  11 C11           -3.6414     2.0562     0.0805 C.ar    
  12 O12            4.2928     0.2888    -0.9979 O.3     
  13 C13            5.6163     0.0030    -1.1199 C.ar    
  14 C14            6.2415     0.1224    -2.3523 C.ar    
  15 C15            6.3439    -0.4029    -0.0109 C.ar    
  16 C16            7.6888    -0.6930    -0.1363 C.ar    
  17 C17            8.3104    -0.5785    -1.3682 C.ar    
  18 C18            7.5865    -0.1684    -2.4749 C.ar    
  19 C19            3.7149     0.1438     0.3010 C.3     
  20 C20           -4.5698     2.0905     1.1127 C.ar    
  21 C21           -5.7906     2.7074     0.9219 C.ar    
  22 C22           -6.0894     3.2911    -0.2977 C.ar    
  23 C23           -5.1652     3.2581    -1.3283 C.ar    
  24 C24           -3.9409     2.6472    -1.1400 C.ar    
  25 F25           -7.2846     3.8933    -0.4826 F       
  26 F26            9.6258    -0.8617    -1.4893 F       
  27 H27           -1.4126    -0.6532    -1.3711 H       
  28 H28           -1.0760    -1.6928     0.0369 H       
  29 H29           -3.2958    -0.4437     0.1023 H       
  30 H30           -2.2506    -0.2317     1.5176 H       
  31 H31            5.6770     0.4422    -3.2157 H       
  32 H32            5.8594    -0.4916     0.9502 H       
  33 H33            8.2556    -1.0091     0.7270 H       
  34 H34            8.0726    -0.0795    -3.4352 H       
  35 H35            4.2234     0.8067     1.0010 H       
  36 H36            3.8235    -0.8884     0.6338 H       
  37 H37           -4.3374     1.6348     2.0639 H       
  38 H38           -6.5129     2.7343     1.7244 H       
  39 H39           -5.4003     3.7136    -2.2789 H       
  40 H40           -3.2203     2.6217    -1.9440 H       
@<TRIPOS>BOND
   1    1    2 2
   2    1    8 1
   3    1    6 1
   4    2    3 1
   5    2   10 1
   6    3    4 1
   7    3   27 1
   8    3   28 1
   9    4    5 1
  10    4   29 1
  11    4   30 1
  12    5    6 am
  13    5   11 1
  14    6    7 2
  15    8    9 1
  16    9   10 2
  17    9   19 1
  18   11   20 ar
  19   11   24 ar
  20   12   13 1
  21   12   19 1
  22   13   14 ar
  23   13   15 ar
  24   14   18 ar
  25   14   31 1
  26   15   16 ar
  27   15   32 1
  28   16   17 ar
  29   16   33 1
  30   17   18 ar
  31   17   26 1
  32   18   34 1
  33   19   35 1
  34   19   36 1
  35   20   21 ar
  36   20   37 1
  37   21   22 ar
  38   21   38 1
  39   22   23 ar
  40   22   25 1
  41   23   24 ar
  42   23   39 1
  43   24   40 1

#	End of record

