#	Name: ASD01670014
#	Creating user name:	WinNT
#	Creation time:	15. 06. 2019 19:22

#	Modifying user name:	WinNT
#	Modification time:	15. 06. 2019 19:22

#	Program:	/corina/corina34_cracker 3.40 0067  02.08.2006

@<TRIPOS>MOLECULE
ASD01670014
  64   67    0    0    0
SMALL
NO_CHARGES


@<TRIPOS>ATOM
   1 C1             2.0446     1.6076    -0.0576 C.ar    
   2 C2             1.9945     0.2739    -0.4286 C.ar    
   3 C3            -4.0600    -3.2849     5.4135 C.ar    
   4 C4            -4.9253    -5.2264     4.3073 C.ar    
   5 C5             1.0663     2.1439     0.7562 C.ar    
   6 C6            -4.8911    -3.5249     6.4906 C.ar    
   7 C7            -5.7583    -5.4708     5.3819 C.ar    
   8 C8             0.5801    -5.9080     3.7940 C.ar    
   9 C9             2.5796    -5.7048     1.8717 C.ar    
  10 C10            0.3690    -5.1546     2.6364 C.ar    
  11 C11           -0.0302    -0.0026     0.8345 C.ar    
  12 C12           -4.0768    -4.1348     4.3230 C.ar    
  13 C13            0.9665    -0.5319     0.0107 C.ar    
  14 C14            1.3790    -5.0581     1.6761 C.ar    
  15 C15            1.7859    -6.5543     3.9847 C.ar    
  16 C16            2.7908    -6.4538     3.0217 C.ar    
  17 C17           -5.7430    -4.6198     6.4775 C.ar    
  18 C18            0.0249     1.3478     1.2085 C.ar    
  19 C19           -0.9182    -4.4627     2.4284 C.2     
  20 C20           -1.1330    -0.8585     1.3077 C.2     
  21 C21            3.3714    -8.0489     4.4715 C.3     
  22 C22            2.7542    -2.5474     1.0750 C.3     
  23 C23           -7.4115    -6.0038     7.4536 C.3     
  24 C24           -0.8143     3.2559     2.3473 C.3     
  25 C25           -3.1692    -3.8707     3.1494 C.3     
  26 C26            0.9171    -1.9818    -0.3974 C.3     
  27 C27            1.1554    -4.2461     0.4264 C.3     
  28 N28           -1.8916    -4.5573     3.3558 N.am    
  29 N29            1.3539    -2.8217     0.7259 N.3     
  30 O30           -1.0727    -1.3754     2.4058 O.2     
  31 O31           -1.1003    -3.8075     1.4206 O.2     
  32 O32           -2.2080    -1.0678     0.5227 O.3     
  33 O33            2.2390    -7.3384     5.0065 O.3     
  34 O34            3.8695    -7.1741     3.4423 O.3     
  35 O35           -6.5612    -4.8583     7.5360 O.3     
  36 O36           -0.9363     1.8730     2.0086 O.3     
  37 H37            2.8563     2.2306    -0.4032 H       
  38 H38            2.7644    -0.1362    -1.0654 H       
  39 H39           -3.3999    -2.4302     5.4213 H       
  40 H40           -4.9366    -5.8888     3.4543 H       
  41 H41            1.1125     3.1846     1.0411 H       
  42 H42           -4.8773    -2.8610     7.3423 H       
  43 H43           -6.4212    -6.3233     5.3690 H       
  44 H44           -0.1967    -5.9812     4.5407 H       
  45 H45            3.3591    -5.6292     1.1280 H       
  46 H46            4.1267    -8.2014     5.2425 H       
  47 H47            3.0590    -9.0026     4.0461 H       
  48 H48            2.8740    -1.4852     1.2885 H       
  49 H49            3.0297    -3.1283     1.9552 H       
  50 H50            3.3979    -2.8251     0.2403 H       
  51 H51           -6.8026    -6.9014     7.3460 H       
  52 H52           -8.0105    -6.0777     8.3613 H       
  53 H53           -8.0702    -5.9060     6.5906 H       
  54 H54           -1.6452     3.5474     2.9897 H       
  55 H55            0.1263     3.4195     2.8733 H       
  56 H56           -0.8308     3.8557     1.4373 H       
  57 H57           -3.6374    -4.2409     2.2373 H       
  58 H58           -2.9949    -2.7985     3.0589 H       
  59 H59           -0.1033    -2.2469    -0.6739 H       
  60 H60            1.5778    -2.1422    -1.2494 H       
  61 H61            1.8636    -4.5582    -0.3412 H       
  62 H62            0.1382    -4.4037     0.0679 H       
  63 H63           -1.7463    -5.0800     4.1599 H       
  64 H64           -2.9057    -1.6365     0.8761 H       
@<TRIPOS>BOND
   1    1    2 ar
   2    1    5 ar
   3    1   37 1
   4    2   13 ar
   5    2   38 1
   6    3    6 ar
   7    3   12 ar
   8    3   39 1
   9    4    7 ar
  10    4   12 ar
  11    4   40 1
  12    5   18 ar
  13    5   41 1
  14    6   17 ar
  15    6   42 1
  16    7   17 ar
  17    7   43 1
  18    8   10 ar
  19    8   15 ar
  20    8   44 1
  21    9   14 ar
  22    9   16 ar
  23    9   45 1
  24   10   14 ar
  25   10   19 1
  26   11   13 ar
  27   11   18 ar
  28   11   20 1
  29   12   25 1
  30   13   26 1
  31   14   27 1
  32   15   16 ar
  33   15   33 1
  34   16   34 1
  35   17   35 1
  36   18   36 1
  37   19   28 am
  38   19   31 2
  39   20   30 2
  40   20   32 1
  41   21   33 1
  42   21   34 1
  43   21   46 1
  44   21   47 1
  45   22   29 1
  46   22   48 1
  47   22   49 1
  48   22   50 1
  49   23   35 1
  50   23   51 1
  51   23   52 1
  52   23   53 1
  53   24   36 1
  54   24   54 1
  55   24   55 1
  56   24   56 1
  57   25   28 1
  58   25   57 1
  59   25   58 1
  60   26   29 1
  61   26   59 1
  62   26   60 1
  63   27   29 1
  64   27   61 1
  65   27   62 1
  66   28   63 1
  67   32   64 1

#	End of record

