#	Name: ASD01940262
#	Creating user name:	WinNT
#	Creation time:	15. 06. 2019 20:12

#	Modifying user name:	WinNT
#	Modification time:	15. 06. 2019 20:12

#	Program:	/corina/corina34_cracker 3.40 0067  02.08.2006

@<TRIPOS>MOLECULE
ASD01940262
  55   56    0    0    0
SMALL
NO_CHARGES


@<TRIPOS>ATOM
   1 C1             0.4862     0.9143     1.1256 C.ar    
   2 C2            -0.2859     0.4388     0.0817 C.ar    
   3 C3             0.2531     0.3286    -1.1888 C.ar    
   4 C4             1.5696     0.6941    -1.4198 C.ar    
   5 C5             2.3497     1.1723    -0.3754 C.ar    
   6 C6             1.8045     1.2827     0.9028 C.ar    
   7 N7             2.5870     1.7650     1.9605 N.am    
   8 S8             2.3938     1.1442     3.4835 S.o2    
   9 O9             3.3039     1.8872     4.2828 O.2     
  10 O10            0.9932     1.2106     3.7139 O.2     
  11 F11           -0.5057    -0.1366    -2.2051 F       
  12 F12            2.0939     0.5850    -2.6602 F       
  13 N13            3.6819     1.5425    -0.6055 N.pl3   
  14 C14            4.6861     0.5697    -0.6154 C.ar    
  15 C15            6.0220     0.9472    -0.7102 C.ar    
  16 C16            4.3531    -0.7750    -0.5250 C.ar    
  17 C17            5.3478    -1.7341    -0.5351 C.ar    
  18 C18            6.6740    -1.3569    -0.6346 C.ar    
  19 C19            7.0115    -0.0180    -0.7196 C.ar    
  20 F20            6.3515     2.2548    -0.7932 F       
  21 C21            7.7552    -2.4067    -0.6447 C.3     
  22 C22            2.9344    -0.5815     3.3407 C.3     
  23 C23            2.6855    -1.3052     4.6656 C.3     
  24 C24            2.1459    -1.2724     2.2263 C.3     
  25 C25            3.5687    -0.6932     5.7547 C.3     
  26 C26            3.3198    -1.4168     7.0796 C.3     
  27 C27            4.2030    -0.8048     8.1688 C.3     
  28 O28            3.8078     0.5493     8.3975 O.3     
  29 C29            4.0473    -1.6070     9.4622 C.3     
  30 O30            4.9575    -1.1084    10.4445 O.3     
  31 H31            0.0609     1.0031     2.1143 H       
  32 H32           -1.3122     0.1523     0.2579 H       
  33 H33            3.2418     2.4626     1.8005 H       
  34 H34            3.9072     2.4736    -0.7579 H       
  35 H35            3.3175    -1.0713    -0.4465 H       
  36 H36            5.0887    -2.7802    -0.4648 H       
  37 H37            8.0486     0.2731    -0.7973 H       
  38 H38            7.9543    -2.7134    -1.6715 H       
  39 H39            8.6644    -1.9961    -0.2054 H       
  40 H40            7.4291    -3.2698    -0.0644 H       
  41 H41            3.9982    -0.6107     3.1050 H       
  42 H42            1.6374    -1.1998     4.9458 H       
  43 H43            2.9270    -2.3621     4.5532 H       
  44 H44            2.3232    -0.7568     1.2824 H       
  45 H45            2.4707    -2.3093     2.1405 H       
  46 H46            1.0821    -1.2431     2.4620 H       
  47 H47            4.6168    -0.7986     5.4745 H       
  48 H48            3.3272     0.3638     5.8671 H       
  49 H49            2.2717    -1.3114     7.3599 H       
  50 H50            3.5613    -2.4738     6.9673 H       
  51 H51            5.2447    -0.8301     7.8487 H       
  52 H52            2.8900     0.6478     8.6856 H       
  53 H53            3.0260    -1.5086     9.8301 H       
  54 H54            4.2634    -2.6573     9.2666 H       
  55 H55            4.9137    -1.5714    11.2923 H       
@<TRIPOS>BOND
   1    1    2 ar
   2    1    6 ar
   3    1   31 1
   4    2    3 ar
   5    2   32 1
   6    3    4 ar
   7    3   11 1
   8    4    5 ar
   9    4   12 1
  10    5    6 ar
  11    5   13 1
  12    6    7 1
  13    7    8 am
  14    7   33 1
  15    8    9 2
  16    8   10 2
  17    8   22 1
  18   13   14 1
  19   13   34 1
  20   14   15 ar
  21   14   16 ar
  22   15   20 1
  23   15   19 ar
  24   16   17 ar
  25   16   35 1
  26   17   18 ar
  27   17   36 1
  28   18   19 ar
  29   18   21 1
  30   19   37 1
  31   21   38 1
  32   21   39 1
  33   21   40 1
  34   22   23 1
  35   22   24 1
  36   22   41 1
  37   23   25 1
  38   23   42 1
  39   23   43 1
  40   24   44 1
  41   24   45 1
  42   24   46 1
  43   25   26 1
  44   25   47 1
  45   25   48 1
  46   26   27 1
  47   26   49 1
  48   26   50 1
  49   27   28 1
  50   27   29 1
  51   27   51 1
  52   28   52 1
  53   29   30 1
  54   29   53 1
  55   29   54 1
  56   30   55 1

#	End of record

