#	Name: ASD01881610
#	Creating user name:	WinNT
#	Creation time:	15. 06. 2019 19:43

#	Modifying user name:	WinNT
#	Modification time:	15. 06. 2019 19:43

#	Program:	/corina/corina34_cracker 3.40 0067  02.08.2006

@<TRIPOS>MOLECULE
ASD01881610
  51   54    0    0    0
SMALL
NO_CHARGES


@<TRIPOS>ATOM
   1 N1            -0.0153     1.2782     0.0091 N.pl3   
   2 N2             0.0021    -0.0041     0.0020 N.2     
   3 C3             1.2421    -0.4516    -0.0122 C.2     
   4 C4             2.1026     0.7385    -0.0141 C.2     
   5 C5             1.2306     1.7909    -0.0001 C.2     
   6 C6             1.6641    -1.8200    -0.0236 C.1     
   7 N7             1.9989    -2.9055    -0.0326 N.1     
   8 C8             3.5851     0.7874    -0.0275 C.ar    
   9 C9             4.2502     1.5897    -0.9531 C.ar    
  10 C10            5.6294     1.6313    -0.9611 C.ar    
  11 C11            6.3521     0.8782    -0.0530 C.ar    
  12 C12            5.6974     0.0803     0.8677 C.ar    
  13 C13            4.3180     0.0358     0.8888 C.ar    
  14 C14            6.3499     2.4982    -1.9613 C.3     
  15 O15            6.5518     3.7993    -1.4058 O.3     
  16 N16            9.1088     7.6540    -4.3396 N.pl3   
  17 N17            9.0333     8.6630    -3.3680 N.2     
  18 N18            8.4332     8.2089    -2.3248 N.2     
  19 C19            8.0786     6.9218    -2.5114 C.ar    
  20 C20            8.5019     6.5440    -3.7974 C.ar    
  21 C21            7.4179     5.9844    -1.7054 C.ar    
  22 C22            7.1929     4.7107    -2.1852 C.ar    
  23 C23            7.6180     4.3513    -3.4619 C.ar    
  24 C24            8.2646     5.2540    -4.2583 C.ar    
  25 C25            9.7096     7.7622    -5.6713 C.3     
  26 C26           11.1881     7.3760    -5.5968 C.3     
  27 C27           11.3144     5.9358    -5.0958 C.3     
  28 C28           11.8155     7.4891    -6.9876 C.3     
  29 C29           11.9130     8.3168    -4.6323 C.3     
  30 Br30           6.8373     6.4634     0.0293 Br      
  31 H31           -0.8248     1.8126     0.0159 H       
  32 H32            1.4918     2.8388     0.0025 H       
  33 H33            3.6871     2.1774    -1.6629 H       
  34 H34            7.4314     0.9132    -0.0633 H       
  35 H35            6.2665    -0.5058     1.5741 H       
  36 H36            3.8077    -0.5839     1.6113 H       
  37 H37            7.3150     2.0517    -2.2006 H       
  38 H38            5.7521     2.5795    -2.8690 H       
  39 H39            7.4358     3.3507    -3.8251 H       
  40 H40            8.5906     4.9655    -5.2467 H       
  41 H41            9.1931     7.0920    -6.3584 H       
  42 H42            9.6196     8.7882    -6.0282 H       
  43 H43           10.7980     5.2656    -5.7830 H       
  44 H44           12.3678     5.6607    -5.0427 H       
  45 H45           10.8674     5.8553    -4.1050 H       
  46 H46           11.7256     8.5151    -7.3445 H       
  47 H47           12.8689     7.2139    -6.9345 H       
  48 H48           11.2991     6.8188    -7.6747 H       
  49 H49           11.4660     8.2363    -3.6414 H       
  50 H50           12.9664     8.0417    -4.5791 H       
  51 H51           11.8230     9.3428    -4.9891 H       
@<TRIPOS>BOND
   1    1    2 1
   2    1    5 1
   3    1   31 1
   4    2    3 2
   5    3    4 1
   6    3    6 1
   7    4    5 2
   8    4    8 1
   9    5   32 1
  10    6    7 3
  11    8    9 ar
  12    8   13 ar
  13    9   10 ar
  14    9   33 1
  15   10   11 ar
  16   10   14 1
  17   11   12 ar
  18   11   34 1
  19   12   13 ar
  20   12   35 1
  21   13   36 1
  22   14   15 1
  23   14   37 1
  24   14   38 1
  25   15   22 1
  26   16   17 1
  27   16   20 1
  28   16   25 1
  29   17   18 2
  30   18   19 1
  31   19   20 ar
  32   19   21 ar
  33   20   24 ar
  34   21   22 ar
  35   21   30 1
  36   22   23 ar
  37   23   24 ar
  38   23   39 1
  39   24   40 1
  40   25   26 1
  41   25   41 1
  42   25   42 1
  43   26   27 1
  44   26   28 1
  45   26   29 1
  46   27   43 1
  47   27   44 1
  48   27   45 1
  49   28   46 1
  50   28   47 1
  51   28   48 1
  52   29   49 1
  53   29   50 1
  54   29   51 1

#	End of record

