#	Name: ASD09740002
#	Creating user name:	WinNT
#	Creation time:	15. 06. 2019 21:22

#	Modifying user name:	WinNT
#	Modification time:	15. 06. 2019 21:22

#	Program:	/corina/corina34_cracker 3.40 0067  02.08.2006

@<TRIPOS>MOLECULE
ASD09740002
  53   55    0    0    0
SMALL
NO_CHARGES


@<TRIPOS>ATOM
   1 C1             1.3508     1.6992     1.5542 C.3     
   2 C2             1.1276     0.2207     1.2301 C.3     
   3 C3             1.6539    -0.6388     2.3813 C.3     
   4 C4             1.4342    -2.0951     2.0621 C.2     
   5 O5             0.3526    -2.8263     2.3646 O.3     
   6 N6             0.4597    -3.9680     1.9813 N.2     
   7 C7             1.6055    -4.1650     1.3780 C.2     
   8 C8             2.2881    -2.9170     1.4092 C.2     
   9 C9             2.0909    -5.4317     0.7780 C.2     
  10 O10            3.1019    -5.4365     0.1042 O.2     
  11 N11            1.4104    -6.5773     0.9802 N.am    
  12 C12            1.8065    -7.7988     0.2751 C.3     
  13 C13            1.7068    -7.5713    -1.2346 C.3     
  14 C14            2.1205    -8.8470    -1.9711 C.3     
  15 C15            3.5621    -9.2036    -1.6031 C.3     
  16 C16            3.6618    -9.4311    -0.0934 C.3     
  17 C17            3.2481    -8.1554     0.6430 C.3     
  18 C18            0.2745    -6.6011     1.9052 C.3     
  19 C19            0.6951    -5.9937     3.2450 C.3     
  20 C20           -0.4911    -6.0185     4.2110 C.3     
  21 C21           -1.6454    -5.2051     3.6222 C.3     
  22 C22           -2.0660    -5.8124     2.2824 C.3     
  23 C23           -0.8798    -5.7876     1.3164 C.3     
  24 H24            2.4164     1.8849     1.6886 H       
  25 H25            0.9758     2.3115     0.7341 H       
  26 H26            0.8190     1.9545     2.4708 H       
  27 H27            0.0620     0.0350     1.0957 H       
  28 H28            1.6594    -0.0346     0.3135 H       
  29 H29            2.7196    -0.4531     2.5157 H       
  30 H30            1.1222    -0.3835     3.2979 H       
  31 H31            3.2640    -2.6821     1.0106 H       
  32 H32            1.1451    -8.6157     0.5638 H       
  33 H33            0.6797    -7.3173    -1.4968 H       
  34 H34            2.3681    -6.7544    -1.5234 H       
  35 H35            1.4591    -9.6639    -1.6823 H       
  36 H36            2.0495    -8.6849    -3.0466 H       
  37 H37            3.8568   -10.1124    -2.1278 H       
  38 H38            4.2235    -8.3867    -1.8919 H       
  39 H39            3.0004   -10.2480     0.1953 H       
  40 H40            4.6889    -9.6852     0.1687 H       
  41 H41            3.9095    -7.3385     0.3542 H       
  42 H42            3.3191    -8.3175     1.7185 H       
  43 H43           -0.0478    -7.6310     2.0583 H       
  44 H44            1.5175    -6.5733     3.6645 H       
  45 H45            1.0175    -4.9638     3.0918 H       
  46 H46           -0.8134    -7.0485     4.3642 H       
  47 H47           -0.1914    -5.5859     5.1655 H       
  48 H48           -2.4905    -5.2227     4.3104 H       
  49 H49           -1.3230    -4.1751     3.4691 H       
  50 H50           -2.3883    -6.8423     2.4356 H       
  51 H51           -2.8883    -5.2329     1.8629 H       
  52 H52           -0.5574    -4.7577     1.1632 H       
  53 H53           -1.1794    -6.2203     0.3619 H       
@<TRIPOS>BOND
   1    1    2 1
   2    1   24 1
   3    1   25 1
   4    1   26 1
   5    2    3 1
   6    2   27 1
   7    2   28 1
   8    3    4 1
   9    3   29 1
  10    3   30 1
  11    4    5 1
  12    4    8 2
  13    5    6 1
  14    6    7 2
  15    7    8 1
  16    7    9 1
  17    8   31 1
  18    9   10 2
  19    9   11 am
  20   11   12 1
  21   11   18 1
  22   12   13 1
  23   12   17 1
  24   12   32 1
  25   13   14 1
  26   13   33 1
  27   13   34 1
  28   14   15 1
  29   14   35 1
  30   14   36 1
  31   15   16 1
  32   15   37 1
  33   15   38 1
  34   16   17 1
  35   16   39 1
  36   16   40 1
  37   17   41 1
  38   17   42 1
  39   18   19 1
  40   18   23 1
  41   18   43 1
  42   19   20 1
  43   19   44 1
  44   19   45 1
  45   20   21 1
  46   20   46 1
  47   20   47 1
  48   21   22 1
  49   21   48 1
  50   21   49 1
  51   22   23 1
  52   22   50 1
  53   22   51 1
  54   23   52 1
  55   23   53 1

#	End of record

