#	Name: ASD01900929
#	Creating user name:	WinNT
#	Creation time:	15. 06. 2019 19:52

#	Modifying user name:	WinNT
#	Modification time:	15. 06. 2019 19:52

#	Program:	/corina/corina34_cracker 3.40 0067  02.08.2006

@<TRIPOS>MOLECULE
ASD01900929
  40   42    0    0    0
SMALL
NO_CHARGES


@<TRIPOS>ATOM
   1 C1            -0.0355     1.4627    -0.7470 C.ar    
   2 C2            -0.0217     0.1316    -1.1586 C.ar    
   3 C3             1.1945    -0.5194    -1.2909 C.ar    
   4 C4             2.3552     0.1835    -1.0069 C.ar    
   5 C5             2.2668     1.5057    -0.6022 C.ar    
   6 N6             1.0991     2.0996    -0.4848 N.ar    
   7 C7            -1.3267     2.1747    -0.6066 C.2     
   8 O8            -2.3682     1.5979    -0.8502 O.2     
   9 N9            -1.3465     3.4623    -0.2088 N.am    
  10 S10           -2.7293     5.7576     0.4165 S.3     
  11 C11           -2.5572     4.1298    -0.0772 C.2     
  12 N12           -3.7213     3.6096    -0.3116 N.2     
  13 C13           -4.7709     4.3902    -0.1356 C.2     
  14 C14           -4.4799     5.6290     0.2666 C.2     
  15 S15           -5.6434     6.9118     0.5912 S.o2    
  16 O16           -6.7958     6.2282     1.0644 O.2     
  17 O17           -4.9381     7.8222     1.4237 O.2     
  18 C18           -5.9650     7.6527    -1.0331 C.3     
  19 C19           -6.9580     8.7766    -0.8848 C.ar    
  20 C20           -6.5133    10.0653    -0.6426 C.ar    
  21 C21           -7.4246    11.0981    -0.5058 C.ar    
  22 C22           -8.7805    10.8424    -0.6117 C.ar    
  23 C23           -9.2247     9.5517    -0.8547 C.ar    
  24 C24           -8.3116     8.5212    -0.9963 C.ar    
  25 F25          -10.5481     9.3008    -0.9583 F       
  26 F26           -9.6709    11.8496    -0.4779 F       
  27 F27           -5.1895    10.3146    -0.5392 F       
  28 C28           -6.1836     3.9208    -0.3704 C.3     
  29 H29           -0.9457    -0.3855    -1.3712 H       
  30 H30            1.2371    -1.5510    -1.6078 H       
  31 H31            3.3189    -0.2950    -1.0998 H       
  32 H32            3.1690     2.0562    -0.3802 H       
  33 H33           -0.5151     3.9227    -0.0144 H       
  34 H34           -5.0343     8.0423    -1.4454 H       
  35 H35           -6.3708     6.8955    -1.7039 H       
  36 H36           -7.0776    12.1031    -0.3161 H       
  37 H37           -8.6572     7.5165    -1.1900 H       
  38 H38           -6.6193     3.5934     0.5736 H       
  39 H39           -6.7754     4.7399    -0.7791 H       
  40 H40           -6.1778     3.0896    -1.0755 H       
@<TRIPOS>BOND
   1    1    2 ar
   2    1    6 ar
   3    1    7 1
   4    2    3 ar
   5    2   29 1
   6    3    4 ar
   7    3   30 1
   8    4    5 ar
   9    4   31 1
  10    5    6 ar
  11    5   32 1
  12    7    8 2
  13    7    9 am
  14    9   11 1
  15    9   33 1
  16   10   11 1
  17   10   14 1
  18   11   12 2
  19   12   13 1
  20   13   14 2
  21   13   28 1
  22   14   15 1
  23   15   16 2
  24   15   17 2
  25   15   18 1
  26   18   19 1
  27   18   34 1
  28   18   35 1
  29   19   20 ar
  30   19   24 ar
  31   20   21 ar
  32   20   27 1
  33   21   22 ar
  34   21   36 1
  35   22   23 ar
  36   22   26 1
  37   23   24 ar
  38   23   25 1
  39   24   37 1
  40   28   38 1
  41   28   39 1
  42   28   40 1

#	End of record

