#	Name: ASD01884786
#	Creating user name:	WinNT
#	Creation time:	15. 06. 2019 19:48

#	Modifying user name:	WinNT
#	Modification time:	15. 06. 2019 19:48

#	Program:	/corina/corina34_cracker 3.40 0067  02.08.2006

@<TRIPOS>MOLECULE
ASD01884786
  60   64    0    0    0
SMALL
NO_CHARGES


@<TRIPOS>ATOM
   1 C1            -0.0169     1.3939     0.0097 C.ar    
   2 C2             0.0021    -0.0041     0.0020 C.ar    
   3 C3            -1.1988    -0.7136     0.0101 C.ar    
   4 C4            -2.4064    -0.0251     0.0258 C.ar    
   5 C5            -2.4125     1.3700     0.0334 C.ar    
   6 C6            -1.2225     2.0697     0.0306 C.ar    
   7 Cl7            1.4750     2.2815     0.0002 Cl      
   8 C8             1.2894    -0.7272    -0.0151 C.2     
   9 O9             2.3342    -0.1074    -0.0226 O.2     
  10 O10            1.3053    -2.0743    -0.0225 O.3     
  11 C11           -3.6879    -0.7734     0.0340 C.ar    
  12 C12           -3.6840    -2.1665     0.0261 C.ar    
  13 C13           -4.8790    -2.8575     0.0337 C.ar    
  14 C14           -6.0785    -2.1694     0.0488 C.ar    
  15 C15           -6.0882    -0.7860     0.0568 C.ar    
  16 C16           -4.8994    -0.0852     0.0555 C.ar    
  17 C17           -7.3993    -0.0431     0.0733 C.3     
  18 O18           -7.8011     0.1840     1.4256 O.3     
  19 C19           -8.9699     0.8462     1.6181 C.ar    
  20 C20           -9.7162     1.2695     0.5248 C.ar    
  21 C21           -9.4229     1.0957     2.9100 C.ar    
  22 C22          -10.6056     1.7652     3.1033 C.ar    
  23 C23          -11.3603     2.1995     2.0085 C.ar    
  24 C24          -10.9034     1.9417     0.7131 C.ar    
  25 C25          -11.3634     2.1879     4.3372 C.3     
  26 N26          -12.5698     2.8747     3.8619 N.am    
  27 C27          -12.5640     2.8791     2.5179 C.2     
  28 O28          -13.4294     3.3734     1.8214 O.2     
  29 C29          -13.6093     3.4598     4.7123 C.3     
  30 C30          -13.7177     4.9590     4.4270 C.3     
  31 C31          -14.9504     2.7859     4.4153 C.3     
  32 C32          -16.0360     3.3969     5.3035 C.3     
  33 C33          -16.1444     4.8962     5.0181 C.3     
  34 C34          -14.8033     5.5701     5.3152 C.3     
  35 H35           -1.1905    -1.7935     0.0039 H       
  36 H36           -3.3511     1.9041     0.0452 H       
  37 H37           -1.2336     3.1497     0.0365 H       
  38 H38            2.1719    -2.5031    -0.0338 H       
  39 H39           -2.7478    -2.7048     0.0136 H       
  40 H40           -4.8772    -3.9375     0.0276 H       
  41 H41           -7.0112    -2.7140     0.0541 H       
  42 H42           -4.9081     0.9948     0.0621 H       
  43 H43           -7.2814     0.9132    -0.4363 H       
  44 H44           -8.1589    -0.6354    -0.4369 H       
  45 H45           -9.3635     1.0709    -0.4765 H       
  46 H46           -8.8450     0.7626     3.7594 H       
  47 H47          -11.4785     2.2726    -0.1391 H       
  48 H48          -11.6380     1.3129     4.9264 H       
  49 H49          -10.7564     2.8675     4.9353 H       
  50 H50          -13.3501     3.3072     5.7600 H       
  51 H51          -12.7623     5.4392     4.6385 H       
  52 H52          -13.9769     5.1117     3.3793 H       
  53 H53          -15.2096     2.9385     3.3677 H       
  54 H54          -14.8732     1.7178     4.6187 H       
  55 H55          -16.9914     2.9168     5.0920 H       
  56 H56          -15.7768     3.2443     6.3512 H       
  57 H57          -16.4036     5.0488     3.9705 H       
  58 H58          -16.9178     5.3315     5.6509 H       
  59 H59          -14.5441     5.4175     6.3628 H       
  60 H60          -14.8806     6.6382     5.1118 H       
@<TRIPOS>BOND
   1    1    2 ar
   2    1    7 1
   3    1    6 ar
   4    2    3 ar
   5    2    8 1
   6    3    4 ar
   7    3   35 1
   8    4    5 ar
   9    4   11 1
  10    5    6 ar
  11    5   36 1
  12    6   37 1
  13    8    9 2
  14    8   10 1
  15   10   38 1
  16   11   12 ar
  17   11   16 ar
  18   12   13 ar
  19   12   39 1
  20   13   14 ar
  21   13   40 1
  22   14   15 ar
  23   14   41 1
  24   15   16 ar
  25   15   17 1
  26   16   42 1
  27   17   18 1
  28   17   43 1
  29   17   44 1
  30   18   19 1
  31   19   20 ar
  32   19   21 ar
  33   20   24 ar
  34   20   45 1
  35   21   22 ar
  36   21   46 1
  37   22   23 ar
  38   22   25 1
  39   23   24 ar
  40   23   27 1
  41   24   47 1
  42   25   26 1
  43   25   48 1
  44   25   49 1
  45   26   27 am
  46   26   29 1
  47   27   28 2
  48   29   30 1
  49   29   31 1
  50   29   50 1
  51   30   34 1
  52   30   51 1
  53   30   52 1
  54   31   32 1
  55   31   53 1
  56   31   54 1
  57   32   33 1
  58   32   55 1
  59   32   56 1
  60   33   34 1
  61   33   57 1
  62   33   58 1
  63   34   59 1
  64   34   60 1

#	End of record

