#	Name: ASD01140617
#	Creating user name:	WinNT
#	Creation time:	15. 06. 2019 19:01

#	Modifying user name:	WinNT
#	Modification time:	15. 06. 2019 19:01

#	Program:	/corina/corina34_cracker 3.40 0067  02.08.2006

@<TRIPOS>MOLECULE
ASD01140617
  17   18    0    0    0
SMALL
NO_CHARGES


@<TRIPOS>ATOM
   1 N1            -0.0160     1.3293     0.0094 N.am    
   2 C2             0.0021    -0.0041     0.0020 C.2     
   3 C3             1.3711    -0.6577    -0.0299 C.3     
   4 S4             2.4768     0.7299     0.4578 S.3     
   5 C5             1.2642     2.0171     0.0008 C.3     
   6 S6             1.6593     2.6927    -1.6495 S.3     
   7 N7             1.3354     3.1647     0.8896 N.am    
   8 C8             1.9431     4.2601     0.4322 C.2     
   9 C9             2.5101     4.1774    -0.9729 C.3     
  10 O10           -1.0191    -0.6581     0.0203 O.2     
  11 O11            2.0370     5.2668     1.1020 O.2     
  12 H12           -0.8519     1.8215     0.0160 H       
  13 H13            1.4291    -1.4723     0.6921 H       
  14 H14            1.6097    -1.0097    -1.0336 H       
  15 H15            0.9557     3.1349     1.7817 H       
  16 H16            3.5895     4.0281    -0.9475 H       
  17 H17            2.2537     5.0672    -1.5477 H       
@<TRIPOS>BOND
   1    1    2 am
   2    1    5 1
   3    1   12 1
   4    2    3 1
   5    2   10 2
   6    3    4 1
   7    3   13 1
   8    3   14 1
   9    4    5 1
  10    5    7 1
  11    5    6 1
  12    6    9 1
  13    7    8 am
  14    7   15 1
  15    8    9 1
  16    8   11 2
  17    9   16 1
  18    9   17 1

#	End of record

