#	Name: ASD01028220
#	Creating user name:	WinNT
#	Creation time:	15. 06. 2019 18:56

#	Modifying user name:	WinNT
#	Modification time:	15. 06. 2019 18:56

#	Program:	/corina/corina34_cracker 3.40 0067  02.08.2006

@<TRIPOS>MOLECULE
ASD01028220
  57   62    0    0    0
SMALL
NO_CHARGES


@<TRIPOS>ATOM
   1 C1            -0.0214     1.3122     0.0126 C.ar    
   2 C2             0.0075    -0.0637     0.0044 C.ar    
   3 C3             1.1648     2.0526     0.0051 C.ar    
   4 C4             2.3741     1.4295    -0.0105 C.ar    
   5 C5             2.4374     0.0279    -0.0192 C.ar    
   6 C6             1.2426    -0.7319    -0.0117 C.ar    
   7 C7             3.6775    -0.6493    -0.0359 C.ar    
   8 C8             3.6612    -2.0327    -0.0441 C.ar    
   9 C9             2.4472    -2.7076    -0.0360 C.ar    
  10 N10            1.3008    -2.0688    -0.0200 N.ar    
  11 O11            4.8475     0.0357    -0.0439 O.3     
  12 C12            6.0506    -0.7353    -0.0607 C.3     
  13 C13            7.2401     0.1899    -0.0676 C.2     
  14 N14            7.8841     0.6757     1.0229 N.pl3   
  15 C15            8.8973     1.4703     0.5403 C.2     
  16 N16            8.8208     1.4289    -0.7795 N.2     
  17 N17            7.8438     0.6667    -1.1278 N.2     
  18 N18            7.7097     0.5212     2.3995 N.2     
  19 C19            8.5114     1.1329     3.2462 C.2     
  20 C20            9.5613     1.9559     2.7805 C.2     
  21 C21            9.7543     2.1243     1.4464 C.2     
  22 C22            8.3104     0.9573     4.6997 C.2     
  23 O23           -1.2161     1.9584     0.0225 O.3     
  24 C24           -1.1809     3.3870     0.0306 C.3     
  25 C25            7.3360     0.1923     5.2711 C.2     
  26 C26            7.3448     0.1802     6.6394 C.2     
  27 C27            8.3286     0.9367     7.2111 C.2     
  28 S28            9.2957     1.6966     5.9544 S.3     
  29 C29            8.5480     1.0873     8.6530 C.2     
  30 O30            7.7641     0.5941     9.4425 O.2     
  31 N31            9.6178     1.7719     9.1039 N.am    
  32 C32            9.9069     2.0815    10.5160 C.3     
  33 C33           10.6930     2.3281     8.2696 C.3     
  34 C34           11.7089     2.9985     9.2184 C.3     
  35 C35           11.4411     2.2890    10.5704 C.3     
  36 H36           -0.9144    -0.6263     0.0107 H       
  37 H37            1.1204     3.1317     0.0114 H       
  38 H38            3.2832     2.0125    -0.0166 H       
  39 H39            4.5888    -2.5858    -0.0572 H       
  40 H40            2.4465    -3.7875    -0.0426 H       
  41 H41            6.0883    -1.3691     0.8253 H       
  42 H42            6.0701    -1.3589    -0.9545 H       
  43 H43           10.2114     2.4517     3.4861 H       
  44 H44           10.5553     2.7522     1.0850 H       
  45 H45           -2.1992     3.7755     0.0381 H       
  46 H46           -0.6537     3.7323     0.9200 H       
  47 H47           -0.6628     3.7428    -0.8599 H       
  48 H48            6.6136    -0.3605     4.6888 H       
  49 H49            6.6303    -0.3826     7.2217 H       
  50 H50            9.3900     2.9923    10.8182 H       
  51 H51            9.6139     1.2483    11.1547 H       
  52 H52           11.1796     1.5289     7.7105 H       
  53 H53           10.2836     3.0682     7.5821 H       
  54 H54           12.7296     2.8133     8.8837 H       
  55 H55           11.5157     4.0684     9.2965 H       
  56 H56           11.7183     2.9280    11.4087 H       
  57 H57           11.9631     1.3334    10.6203 H       
@<TRIPOS>BOND
   1    1    2 ar
   2    1    3 ar
   3    1   23 1
   4    2    6 ar
   5    2   36 1
   6    3    4 ar
   7    3   37 1
   8    4    5 ar
   9    4   38 1
  10    5    6 ar
  11    5    7 ar
  12    6   10 ar
  13    7    8 ar
  14    7   11 1
  15    8    9 ar
  16    8   39 1
  17    9   10 ar
  18    9   40 1
  19   11   12 1
  20   12   13 1
  21   12   41 1
  22   12   42 1
  23   13   14 1
  24   13   17 2
  25   14   15 1
  26   14   18 1
  27   15   16 2
  28   15   21 1
  29   16   17 1
  30   18   19 2
  31   19   20 1
  32   19   22 1
  33   20   21 2
  34   20   43 1
  35   21   44 1
  36   22   25 2
  37   22   28 1
  38   23   24 1
  39   24   45 1
  40   24   46 1
  41   24   47 1
  42   25   26 1
  43   25   48 1
  44   26   27 2
  45   26   49 1
  46   27   28 1
  47   27   29 1
  48   29   30 2
  49   29   31 am
  50   31   33 1
  51   31   32 1
  52   32   35 1
  53   32   50 1
  54   32   51 1
  55   33   34 1
  56   33   52 1
  57   33   53 1
  58   34   35 1
  59   34   54 1
  60   34   55 1
  61   35   56 1
  62   35   57 1

#	End of record

