#	Name: ASD07130012
#	Creating user name:	WinNT
#	Creation time:	15. 06. 2019 21:09

#	Modifying user name:	WinNT
#	Modification time:	15. 06. 2019 21:09

#	Program:	/corina/corina34_cracker 3.40 0067  02.08.2006

@<TRIPOS>MOLECULE
ASD07130012
  49   50    0    0    0
SMALL
NO_CHARGES


@<TRIPOS>ATOM
   1 C1            -0.0163     1.3535     0.0095 C.ar    
   2 O2             0.0021    -0.0041     0.0020 O.3     
   3 C3            -1.2622    -0.6701     0.0105 C.3     
   4 C4            -1.0412    -2.1840     0.0003 C.3     
   5 C5            -2.3948    -2.8971     0.0094 C.3     
   6 C6            -2.1738    -4.4110    -0.0009 C.3     
   7 C7            -3.5274    -5.1241     0.0082 C.3     
   8 O8            -3.3210    -6.5381    -0.0013 O.3     
   9 C9            -4.4290    -7.3228     0.0050 C.ar    
  10 C10           -4.2987    -8.7059    -0.0037 C.ar    
  11 C11           -5.4209    -9.5053     0.0032 C.ar    
  12 C12           -6.6897    -8.9240     0.0189 C.ar    
  13 C13           -6.8169    -7.5341     0.0276 C.ar    
  14 C14           -5.6903    -6.7408     0.0260 C.ar    
  15 C15            1.1782     2.0628     0.0019 C.ar    
  16 C16            1.1632     3.4406     0.0090 C.ar    
  17 C17           -0.0539     4.1236     0.0238 C.ar    
  18 C18           -1.2521     3.4077     0.0314 C.ar    
  19 C19           -1.2297     2.0301     0.0189 C.ar    
  20 C20           -7.8968    -9.7790     0.0259 C.2     
  21 N21           -9.1489    -9.2033     0.0414 N.pl3   
  22 N22           -7.7763   -11.0766     0.0173 N.2     
  23 C23           -0.0740     5.6027     0.0319 C.2     
  24 N24           -1.2767     6.2754     0.0466 N.pl3   
  25 N25            1.0457     6.2696     0.0253 N.2     
  26 H26           -1.8146    -0.3896     0.9073 H       
  27 H27           -1.8316    -0.3800    -0.8725 H       
  28 H28           -0.4888    -2.4645    -0.8965 H       
  29 H29           -0.4718    -2.4740     0.8833 H       
  30 H30           -2.9472    -2.6166     0.9062 H       
  31 H31           -2.9642    -2.6070    -0.8737 H       
  32 H32           -1.6214    -4.6915    -0.8977 H       
  33 H33           -1.6044    -4.7011     0.8822 H       
  34 H34           -4.0799    -4.8436     0.9050 H       
  35 H35           -4.0968    -4.8341    -0.8748 H       
  36 H36           -3.3166    -9.1551    -0.0162 H       
  37 H37           -5.3189   -10.5805    -0.0039 H       
  38 H38           -7.7972    -7.0810     0.0398 H       
  39 H39           -5.7880    -5.6653     0.0331 H       
  40 H40            2.1196     1.5337    -0.0092 H       
  41 H41            2.0922     3.9914     0.0034 H       
  42 H42           -2.1956     3.9330     0.0429 H       
  43 H43           -2.1564     1.4755     0.0244 H       
  44 H44           -9.2386    -8.2375     0.0477 H       
  45 H45           -9.9405    -9.7639     0.0459 H       
  46 H46           -8.5679   -11.6372     0.0219 H       
  47 H47           -2.1100     5.7790     0.0515 H       
  48 H48           -1.2898     7.2453     0.0519 H       
  49 H49            1.0325     7.2395     0.0306 H       
@<TRIPOS>BOND
   1    1    2 1
   2    1   15 ar
   3    1   19 ar
   4    2    3 1
   5    3    4 1
   6    3   26 1
   7    3   27 1
   8    4    5 1
   9    4   28 1
  10    4   29 1
  11    5    6 1
  12    5   30 1
  13    5   31 1
  14    6    7 1
  15    6   32 1
  16    6   33 1
  17    7    8 1
  18    7   34 1
  19    7   35 1
  20    8    9 1
  21    9   10 ar
  22    9   14 ar
  23   10   11 ar
  24   10   36 1
  25   11   12 ar
  26   11   37 1
  27   12   13 ar
  28   12   20 1
  29   13   14 ar
  30   13   38 1
  31   14   39 1
  32   15   16 ar
  33   15   40 1
  34   16   17 ar
  35   16   41 1
  36   17   18 ar
  37   17   23 1
  38   18   19 ar
  39   18   42 1
  40   19   43 1
  41   20   21 1
  42   20   22 2
  43   21   44 1
  44   21   45 1
  45   22   46 1
  46   23   24 1
  47   23   25 2
  48   24   47 1
  49   24   48 1
  50   25   49 1

#	End of record

