#	Name: ASD01813110
#	Creating user name:	WinNT
#	Creation time:	15. 06. 2019 19:29

#	Modifying user name:	WinNT
#	Modification time:	15. 06. 2019 19:29

#	Program:	/corina/corina34_cracker 3.40 0067  02.08.2006

@<TRIPOS>MOLECULE
ASD01813110
  59   63    0    0    0
SMALL
NO_CHARGES


@<TRIPOS>ATOM
   1 C1            -0.1796     1.5943     0.1747 C.2     
   2 C2            -0.1314     0.2314     0.2262 C.2     
   3 C3             1.1195    -0.4096     0.2946 C.2     
   4 C4             2.2959     0.3673     0.3088 C.2     
   5 N5             2.2227     1.7127     0.2576 N.am    
   6 C6             3.3724     2.4454     0.2728 C.2     
   7 C7             3.3337     3.7961     0.2226 C.2     
   8 C8             2.1038     4.4644     0.1538 C.2     
   9 C9             0.9468     3.7418     0.1379 C.2     
  10 C10            1.0079     2.3393     0.1905 C.2     
  11 C11            1.1986    -1.8709     0.3512 C.2     
  12 O12            0.1802    -2.5360     0.3391 O.2     
  13 O13            2.4008    -2.4792     0.4168 O.3     
  14 O14            3.3841    -0.1797     0.3680 O.2     
  15 C15           -1.5096     2.2985     0.0948 C.3     
  16 N16           -1.9419     2.3707    -1.3073 N.3     
  17 C17           -3.3320     2.8335    -1.4062 C.3     
  18 C18           -3.7003     3.0355    -2.8778 C.3     
  19 C19           -3.5288     1.7119    -3.6282 C.3     
  20 C20           -2.0851     1.2273    -3.4690 C.3     
  21 C21           -1.7636     1.0777    -1.9802 C.3     
  22 C22           -4.4710     0.6835    -3.0573 C.ar    
  23 C23           -5.8137     0.9799    -2.9149 C.ar    
  24 C24           -6.6779     0.0367    -2.3912 C.ar    
  25 C25           -6.1996    -1.2031    -2.0103 C.ar    
  26 C26           -4.8570    -1.4997    -2.1535 C.ar    
  27 C27           -3.9936    -0.5580    -2.6812 C.ar    
  28 C28           -3.8324     1.9185    -5.0897 C.ar    
  29 C29           -3.6412     0.8855    -5.9882 C.ar    
  30 C30           -3.9197     1.0750    -7.3288 C.ar    
  31 C31           -4.3897     2.2975    -7.7710 C.ar    
  32 C32           -4.5817     3.3303    -6.8725 C.ar    
  33 C33           -4.3073     3.1394    -5.5311 C.ar    
  34 H34           -1.0426    -0.3484     0.2148 H       
  35 H35            4.3258     1.9407     0.3260 H       
  36 H36            4.2536     4.3617     0.2359 H       
  37 H37            2.0722     5.5432     0.1140 H       
  38 H38           -0.0080     4.2437     0.0855 H       
  39 H39            2.4025    -3.4456     0.4524 H       
  40 H40           -2.2487     1.7460     0.6749 H       
  41 H41           -1.4116     3.3067     0.4972 H       
  42 H42           -3.9949     2.0892    -0.9648 H       
  43 H43           -3.4394     3.7775    -0.8720 H       
  44 H44           -4.7370     3.3640    -2.9517 H       
  45 H45           -3.0468     3.7897    -3.3162 H       
  46 H46           -1.9677     0.2640    -3.9652 H       
  47 H47           -1.4062     1.9531    -3.9167 H       
  48 H48           -0.7317     0.7465    -1.8630 H       
  49 H49           -2.4338     0.3417    -1.5361 H       
  50 H50           -6.1874     1.9485    -3.2126 H       
  51 H51           -7.7268     0.2684    -2.2793 H       
  52 H52           -6.8746    -1.9398    -1.6004 H       
  53 H53           -4.4832    -2.4682    -1.8555 H       
  54 H54           -2.9453    -0.7911    -2.7966 H       
  55 H55           -3.2741    -0.0696    -5.6427 H       
  56 H56           -3.7697     0.2681    -8.0309 H       
  57 H57           -4.6065     2.4458    -8.8186 H       
  58 H58           -4.9485     4.2855    -7.2180 H       
  59 H59           -4.4574     3.9462    -4.8291 H       
@<TRIPOS>BOND
   1    1    2 1
   2    1   10 2
   3    1   15 1
   4    2    3 2
   5    2   34 1
   6    3    4 1
   7    3   11 1
   8    4    5 am
   9    4   14 2
  10    5    6 1
  11    5   10 1
  12    6    7 2
  13    6   35 1
  14    7    8 1
  15    7   36 1
  16    8    9 2
  17    8   37 1
  18    9   10 1
  19    9   38 1
  20   11   12 2
  21   11   13 1
  22   13   39 1
  23   15   16 1
  24   15   40 1
  25   15   41 1
  26   16   17 1
  27   16   21 1
  28   17   18 1
  29   17   42 1
  30   17   43 1
  31   18   19 1
  32   18   44 1
  33   18   45 1
  34   19   20 1
  35   19   22 1
  36   19   28 1
  37   20   21 1
  38   20   46 1
  39   20   47 1
  40   21   48 1
  41   21   49 1
  42   22   23 ar
  43   22   27 ar
  44   23   24 ar
  45   23   50 1
  46   24   25 ar
  47   24   51 1
  48   25   26 ar
  49   25   52 1
  50   26   27 ar
  51   26   53 1
  52   27   54 1
  53   28   29 ar
  54   28   33 ar
  55   29   30 ar
  56   29   55 1
  57   30   31 ar
  58   30   56 1
  59   31   32 ar
  60   31   57 1
  61   32   33 ar
  62   32   58 1
  63   33   59 1

#	End of record

