#	Name: ASD04590096
#	Creating user name:	WinNT
#	Creation time:	15. 06. 2019 20:50

#	Modifying user name:	WinNT
#	Modification time:	15. 06. 2019 20:50

#	Program:	/corina/corina34_cracker 3.40 0067  02.08.2006

@<TRIPOS>MOLECULE
ASD04590096
  40   42    0    0    0
SMALL
NO_CHARGES


@<TRIPOS>ATOM
   1 C1            -0.0152     1.4142     0.0331 C.2     
   2 C2             0.0033    -0.0047     0.0174 C.2     
   3 C3             1.2907     1.7926     0.0285 C.2     
   4 N4             2.0345     0.6567     0.0110 N.pl3   
   5 N5             1.2693    -0.3749     0.0048 N.2     
   6 N6            -1.1422     2.2495     0.0447 N.am    
   7 C7            -0.9885     3.5884     0.0592 C.2     
   8 C8            -1.1711    -0.8968     0.0159 C.2     
   9 N9            -1.0017    -2.2338     0.0000 N.am    
  10 C10           -2.1111    -3.0818     0.1122 C.ar    
  11 C11           -3.1973    -2.7215     0.9079 C.ar    
  12 C12           -4.2708    -3.5899     0.9889 C.ar    
  13 C13           -4.2314    -4.7838     0.2799 C.ar    
  14 N14           -3.1843    -5.0940    -0.4652 N.ar    
  15 C15           -2.1451    -4.2878    -0.5715 C.ar    
  16 O16            0.1270     4.0723     0.0622 O.2     
  17 C17           -2.1748     4.4677     0.0715 C.ar    
  18 C18           -2.7416     4.8992    -1.1309 C.ar    
  19 C19           -2.7399     4.8678     1.2854 C.ar    
  20 C20           -3.8495     5.6898     1.2887 C.ar    
  21 C21           -4.4020     6.1167     0.0945 C.ar    
  22 C22           -3.8512     5.7210    -1.1112 C.ar    
  23 O23           -2.2923    -0.4261     0.0290 O.2     
  24 O24           -5.2803    -5.6424     0.3533 O.3     
  25 C25           -5.1809    -6.8537    -0.3983 C.3     
  26 Cl26          -2.0490     4.3324     2.7853 Cl      
  27 Cl27          -2.0522     4.4039    -2.6452 Cl      
  28 H28            1.6657     2.8054     0.0368 H       
  29 H29            3.0041     0.6284     0.0039 H       
  30 H30           -2.0320     1.8634     0.0424 H       
  31 H31           -0.1116    -2.6089    -0.0891 H       
  32 H32           -3.2005    -1.7866     1.4486 H       
  33 H33           -5.1290    -3.3430     1.5963 H       
  34 H34           -1.3076    -4.5748    -1.1900 H       
  35 H35           -4.2873     5.9999     2.2260 H       
  36 H36           -5.2702     6.7589     0.1035 H       
  37 H37           -4.2881     6.0584    -2.0395 H       
  38 H38           -5.0699    -6.6167    -1.4564 H       
  39 H39           -4.3138    -7.4211    -0.0601 H       
  40 H40           -6.0833    -7.4473    -0.2516 H       
@<TRIPOS>BOND
   1    1    2 1
   2    1    3 2
   3    1    6 1
   4    2    8 1
   5    2    5 2
   6    3    4 1
   7    3   28 1
   8    4    5 1
   9    4   29 1
  10    6    7 am
  11    6   30 1
  12    7   16 2
  13    7   17 1
  14    8    9 am
  15    8   23 2
  16    9   10 1
  17    9   31 1
  18   10   11 ar
  19   10   15 ar
  20   11   12 ar
  21   11   32 1
  22   12   13 ar
  23   12   33 1
  24   13   14 ar
  25   13   24 1
  26   14   15 ar
  27   15   34 1
  28   17   18 ar
  29   17   19 ar
  30   18   27 1
  31   18   22 ar
  32   19   20 ar
  33   19   26 1
  34   20   21 ar
  35   20   35 1
  36   21   22 ar
  37   21   36 1
  38   22   37 1
  39   24   25 1
  40   25   38 1
  41   25   39 1
  42   25   40 1

#	End of record

