#	Name: ASD01140454
#	Creating user name:	WinNT
#	Creation time:	15. 06. 2019 19:00

#	Modifying user name:	WinNT
#	Modification time:	15. 06. 2019 19:00

#	Program:	/corina/corina34_cracker 3.40 0067  02.08.2006

@<TRIPOS>MOLECULE
ASD01140454
  46   49    0    0    0
SMALL
NO_CHARGES


@<TRIPOS>ATOM
   1 C1            -0.0178     1.4590     0.0101 C.2     
   2 C2             0.0021    -0.0041     0.0020 C.2     
   3 N3            -1.1224    -0.6744     0.0092 N.2     
   4 N4            -2.3517    -0.0137     0.0249 N.pl3   
   5 C5            -2.4176     1.3575     0.0334 C.2     
   6 C6            -1.2371     2.1162     0.0310 C.2     
   7 C7            -3.6458    -0.4505     0.0351 C.2     
   8 N8            -4.4216     0.6174     0.0487 N.2     
   9 N9            -3.7042     1.6853     0.0478 N.2     
  10 O10            1.1860    -0.6661    -0.0133 O.3     
  11 C11            1.1309    -2.0940    -0.0204 C.3     
  12 C12            2.5312    -2.6507    -0.0373 C.2     
  13 N13            3.2755    -2.9482     1.0418 N.pl3   
  14 N14            4.5000    -3.4349     0.5557 N.2     
  15 C15            4.4272    -3.4044    -0.7490 C.2     
  16 N16            3.2324    -2.9342    -1.1048 N.2     
  17 C17           -4.0945    -1.8581     0.0310 C.ar    
  18 C18           -5.4570    -2.1595     0.0426 C.ar    
  19 C19           -5.8698    -3.4783     0.0382 C.ar    
  20 C20           -4.9343    -4.5002     0.0223 C.ar    
  21 C21           -3.5821    -4.2084     0.0107 C.ar    
  22 C22           -3.1558    -2.8943     0.0096 C.ar    
  23 F23           -7.1885    -3.7718     0.0499 F       
  24 F24           -1.8349    -2.6111    -0.0022 F       
  25 H25            1.2134     4.0881     1.0402 H       
  26 C26            1.2113     3.7304     0.0105 C.3     
  27 H27            3.2713     1.1103    -0.0232 H       
  28 C28            2.2546     1.6686    -0.0105 C.1     
  29 H29            5.1012     1.2779    -0.0398 H       
  30 C30            4.2881     0.5519    -0.0359 C.3     
  31 C31            1.2436     2.2238     0.0021 C.2     
  32 C32            2.8870    -2.7944     2.4460 C.3     
  33 H33            2.4101    -3.7109     2.7935 H       
  34 H34            3.7732    -2.5949     3.0484 H       
  35 H35            2.1885    -1.9630     2.5407 H       
  36 H36           -1.2785     3.1953     0.0380 H       
  37 H37            0.6123    -2.4420     0.8729 H       
  38 H38            0.5946    -2.4325    -0.9069 H       
  39 H39            5.2077    -3.7136    -1.4284 H       
  40 H40           -6.1872    -1.3638     0.0554 H       
  41 H41           -5.2623    -5.5292     0.0193 H       
  42 H42           -2.8581    -5.0097    -0.0013 H       
  43 H43            0.3089     4.0773    -0.4929 H       
  44 H44            2.0884     4.1155    -0.5096 H       
  45 H45            4.3677    -0.0781     0.8500 H       
  46 H46            4.3507    -0.0685    -0.9299 H       
@<TRIPOS>BOND
   1    1    2 1
   2    1   31 1
   3    1    6 2
   4    2    3 2
   5    2   10 1
   6    3    4 1
   7    4    5 1
   8    4    7 1
   9    5    6 1
  10    5    9 2
  11    6   36 1
  12    7    8 2
  13    7   17 1
  14    8    9 1
  15   10   11 1
  16   11   12 1
  17   11   37 1
  18   11   38 1
  19   12   13 1
  20   12   16 2
  21   13   14 1
  22   13   32 1
  23   14   15 2
  24   15   16 1
  25   15   39 1
  26   17   18 ar
  27   17   22 ar
  28   18   19 ar
  29   18   40 1
  30   19   20 ar
  31   19   23 1
  32   20   21 ar
  33   20   41 1
  34   21   22 ar
  35   21   42 1
  36   22   24 1
  37   25   26 1
  38   26   31 1
  39   26   43 1
  40   26   44 1
  41   27   28 1
  42   27   30 1
  43   28   31 3
  44   29   30 1
  45   30   45 1
  46   30   46 1
  47   32   33 1
  48   32   34 1
  49   32   35 1

#	End of record

