#	Name: ASD02560364
#	Creating user name:	WinNT
#	Creation time:	15. 06. 2019 20:25

#	Modifying user name:	WinNT
#	Modification time:	15. 06. 2019 20:25

#	Program:	/corina/corina34_cracker 3.40 0067  02.08.2006

@<TRIPOS>MOLECULE
ASD02560364
  44   45    0    0    0
SMALL
NO_CHARGES


@<TRIPOS>ATOM
   1 C1            -0.1607     0.9518    -0.4149 C.2     
   2 C2            -0.0161    -0.4366    -0.2438 C.2     
   3 C3             1.2109    -0.9924    -0.1885 C.2     
   4 N4             2.3322    -0.2157    -0.2978 N.pl3   
   5 C5             2.2217     1.1454    -0.4663 C.2     
   6 C6             0.9434     1.7375    -0.5256 C.2     
   7 C7             3.6684    -0.5093    -0.2766 C.2     
   8 C8             4.3366     0.6617    -0.4305 C.2     
   9 N9             3.4427     1.6506    -0.5436 N.2     
  10 C10            5.8346     0.8215    -0.4674 C.3     
  11 N11            4.2390    -1.7790    -0.1244 N.3     
  12 C12            3.8407    -2.3855     1.1529 C.3     
  13 C13            4.6164    -1.7255     2.2947 C.3     
  14 C14            4.2991    -2.4429     3.6083 C.3     
  15 C15            5.0748    -1.7829     4.7501 C.3     
  16 C16            6.2495     1.4322    -1.8075 C.3     
  17 C17            6.2775     1.7420     0.6716 C.3     
  18 C18            4.7144    -2.2545    -2.4792 C.3     
  19 C19            3.8899    -2.6519    -1.2532 C.3     
  20 H20           -1.1457     1.3920    -0.4628 H       
  21 H21           -0.8929    -1.0610    -0.1559 H       
  22 H22            1.3097    -2.0597    -0.0564 H       
  23 H23            0.8423     2.8045    -0.6579 H       
  24 H24            6.3070    -0.1539    -0.3509 H       
  25 H25            2.7718    -2.2384     1.3072 H       
  26 H26            4.0615    -3.4527     1.1329 H       
  27 H27            5.6856    -1.7918     2.0935 H       
  28 H28            4.3258    -0.6779     2.3734 H       
  29 H29            3.2299    -2.3765     3.8095 H       
  30 H30            4.5897    -3.4905     3.5295 H       
  31 H31            4.7842    -0.7353     4.8288 H       
  32 H32            4.8487    -2.2940     5.6859 H       
  33 H33            6.1440    -1.8493     4.5489 H       
  34 H34            5.9340     0.7764    -2.6189 H       
  35 H35            5.7771     2.4076    -1.9240 H       
  36 H36            7.3331     1.5478    -1.8342 H       
  37 H37            5.9820     1.3069     1.6262 H       
  38 H38            7.3611     1.8576     0.6449 H       
  39 H39            5.8051     2.7174     0.5550 H       
  40 H40            4.5281    -2.9620    -3.2872 H       
  41 H41            4.4284    -1.2529    -2.8003 H       
  42 H42            5.7739    -2.2655    -2.2237 H       
  43 H43            4.1045    -3.6879    -0.9913 H       
  44 H44            2.8288    -2.5466    -1.4792 H       
@<TRIPOS>BOND
   1    1    2 1
   2    1    6 2
   3    1   20 1
   4    2    3 2
   5    2   21 1
   6    3    4 1
   7    3   22 1
   8    4    5 1
   9    4    7 1
  10    5    6 1
  11    5    9 2
  12    6   23 1
  13    7    8 2
  14    7   11 1
  15    8    9 1
  16    8   10 1
  17   10   16 1
  18   10   17 1
  19   10   24 1
  20   11   12 1
  21   11   19 1
  22   12   13 1
  23   12   25 1
  24   12   26 1
  25   13   14 1
  26   13   27 1
  27   13   28 1
  28   14   15 1
  29   14   29 1
  30   14   30 1
  31   15   31 1
  32   15   32 1
  33   15   33 1
  34   16   34 1
  35   16   35 1
  36   16   36 1
  37   17   37 1
  38   17   38 1
  39   17   39 1
  40   18   19 1
  41   18   40 1
  42   18   41 1
  43   18   42 1
  44   19   43 1
  45   19   44 1

#	End of record

