#	Name: ASD03330691
#	Creating user name:	WinNT
#	Creation time:	15. 06. 2019 20:37

#	Modifying user name:	WinNT
#	Modification time:	15. 06. 2019 20:37

#	Program:	/corina/corina34_cracker 3.40 0067  02.08.2006

@<TRIPOS>MOLECULE
ASD03330691
  67   70    0    0    0
SMALL
NO_CHARGES


@<TRIPOS>ATOM
   1 C1            -0.3186     1.1667     0.8916 C.2     
   2 N2            -0.3435    -0.1661     1.1281 N.pl3   
   3 C3             0.9863     1.5565     0.9231 C.2     
   4 N4             1.7379     0.4593     1.1599 N.2     
   5 C5             0.9473    -0.5813     1.2787 C.2     
   6 C6             1.3829    -1.9721     1.5340 C.ar    
   7 C7             1.4881     2.9288     0.7323 C.2     
   8 O8             0.7078     3.8381     0.5238 O.2     
   9 C9             3.3106     4.5407     0.5992 C.3     
  10 N10            2.8118     3.1763     0.7889 N.am    
  11 C11            3.4707     4.8219    -0.8961 C.3     
  12 C12            2.0966     4.8025    -1.5687 C.3     
  13 C13            4.1144     6.1962    -1.0906 C.3     
  14 C14            4.6452     4.6872     1.2837 C.2     
  15 N15            5.1788     5.9115     1.4649 N.am    
  16 O16            5.2392     3.7035     1.6714 O.2     
  17 C17           -1.5513    -0.9914     1.2169 C.3     
  18 C18           -2.4707    -0.6664     0.0357 C.3     
  19 C19           -3.3813     0.5026     0.3980 C.3     
  20 N20           -2.6962     1.4476     1.2824 N.3     
  21 C21           -1.5199     2.0366     0.6258 C.3     
  22 C22            2.6325    -2.4071     1.0917 C.ar    
  23 C23            0.5481    -2.8522     2.2230 C.ar    
  24 C24            0.9601    -4.1479     2.4579 C.ar    
  25 C25            2.1982    -4.5748     2.0121 C.ar    
  26 C26            3.0329    -3.7053     1.3329 C.ar    
  27 C27           -3.6165     2.4927     1.7502 C.3     
  28 C28            6.5083     6.0498     2.0645 C.3     
  29 C29            4.3613     3.7481    -1.5245 C.3     
  30 C30            7.2289     7.3504     1.6720 C.3     
  31 C31            7.7171     7.4267     3.1283 C.3     
  32 C32            6.4817     6.5914     3.5036 C.3     
  33 H33            2.6024     5.2494     1.0284 H       
  34 H34            3.4341     2.4511     0.9552 H       
  35 H35            1.4622     5.5675    -1.1211 H       
  36 H36            2.2107     5.0028    -2.6341 H       
  37 H37            1.6381     3.8234    -1.4302 H       
  38 H38            5.0754     6.2233    -0.5769 H       
  39 H39            4.2658     6.3793    -2.1544 H       
  40 H40            3.4606     6.9651    -0.6790 H       
  41 H41            4.6825     6.7012     1.1983 H       
  42 H42           -1.2754    -2.0454     1.1845 H       
  43 H43           -2.0700    -0.7785     2.1516 H       
  44 H44           -1.8664    -0.3999    -0.8315 H       
  45 H45           -3.0786    -1.5395    -0.2016 H       
  46 H46           -3.6811     1.0188    -0.5140 H       
  47 H47           -4.2699     0.1214     0.9011 H       
  48 H48           -1.3419     3.0353     1.0246 H       
  49 H49           -1.6948     2.0980    -0.4483 H       
  50 H50            3.2850    -1.7293     0.5613 H       
  51 H51           -0.4184    -2.5200     2.5721 H       
  52 H52            0.3147    -4.8303     2.9912 H       
  53 H53            2.5164    -5.5898     2.1991 H       
  54 H54            3.9981    -4.0446     0.9871 H       
  55 H55           -4.4389     2.0337     2.2989 H       
  56 H56           -3.0821     3.1809     2.4051 H       
  57 H57           -4.0114     3.0390     0.8936 H       
  58 H58            7.1219     5.1570     1.9438 H       
  59 H59            3.9027     2.7690    -1.3860 H       
  60 H60            4.4754     3.9484    -2.5899 H       
  61 H61            5.3402     3.7619    -1.0454 H       
  62 H62            8.0317     7.2037     0.9495 H       
  63 H63            6.5516     8.1584     1.3956 H       
  64 H64            8.6617     6.9106     3.2997 H       
  65 H65            7.7038     8.4355     3.5409 H       
  66 H66            5.6002     7.1919     3.7279 H       
  67 H67            6.6814     5.8320     4.2596 H       
@<TRIPOS>BOND
   1    1    2 1
   2    1    3 2
   3    1   21 1
   4    2   17 1
   5    2    5 1
   6    3    4 1
   7    3    7 1
   8    4    5 2
   9    5    6 1
  10    6   22 ar
  11    6   23 ar
  12    7    8 2
  13    7   10 am
  14    9   10 1
  15    9   11 1
  16    9   14 1
  17    9   33 1
  18   10   34 1
  19   11   12 1
  20   11   13 1
  21   11   29 1
  22   12   35 1
  23   12   36 1
  24   12   37 1
  25   13   38 1
  26   13   39 1
  27   13   40 1
  28   14   15 am
  29   14   16 2
  30   15   28 1
  31   15   41 1
  32   17   18 1
  33   17   42 1
  34   17   43 1
  35   18   19 1
  36   18   44 1
  37   18   45 1
  38   19   20 1
  39   19   46 1
  40   19   47 1
  41   20   21 1
  42   20   27 1
  43   21   48 1
  44   21   49 1
  45   22   26 ar
  46   22   50 1
  47   23   24 ar
  48   23   51 1
  49   24   25 ar
  50   24   52 1
  51   25   26 ar
  52   25   53 1
  53   26   54 1
  54   27   55 1
  55   27   56 1
  56   27   57 1
  57   28   30 1
  58   28   32 1
  59   28   58 1
  60   29   59 1
  61   29   60 1
  62   29   61 1
  63   30   31 1
  64   30   62 1
  65   30   63 1
  66   31   32 1
  67   31   64 1
  68   31   65 1
  69   32   66 1
  70   32   67 1

#	End of record

