#	Name: ASD01001277
#	Creating user name:	WinNT
#	Creation time:	15. 06. 2019 18:55

#	Modifying user name:	WinNT
#	Modification time:	15. 06. 2019 18:55

#	Program:	/corina/corina34_cracker 3.40 0067  02.08.2006

@<TRIPOS>MOLECULE
ASD01001277
  30   31    0    0    0
SMALL
NO_CHARGES


@<TRIPOS>ATOM
   1 C1            -0.0167     1.3810     0.0096 C.ar    
   2 C2             0.0021    -0.0041     0.0020 C.ar    
   3 C3            -1.1834    -0.7164     0.0091 C.ar    
   4 C4            -2.3921    -0.0504     0.0242 C.ar    
   5 C5            -2.4182     1.3430     0.0324 C.ar    
   6 C6            -1.2225     2.0574     0.0305 C.ar    
   7 C7            -3.7155     2.0631     0.0486 C.ar    
   8 C8            -3.7419     3.4562     0.0568 C.ar    
   9 C9            -4.9514     4.1209     0.0720 C.ar    
  10 C10           -6.1359     3.4067     0.0790 C.ar    
  11 C11           -6.1156     2.0236     0.0714 C.ar    
  12 C12           -4.9118     1.3487     0.0500 C.ar    
  13 F13            1.1444     2.0716     0.0023 F       
  14 C14            1.3186    -0.7372    -0.0145 C.3     
  15 F15            1.0843    -2.1164    -0.0197 F       
  16 F16            2.0360    -0.3818    -1.1618 F       
  17 F17            2.0578    -0.3940     1.1226 F       
  18 S18           -7.6764     4.2618     0.0984 S.o2    
  19 O19           -8.6286     3.3607     0.6467 O.2     
  20 O20           -7.4156     5.5461     0.6477 O.2     
  21 N21           -8.1199     4.5087    -1.4779 N.am    
  22 H22           -1.1633    -1.7961     0.0023 H       
  23 H23           -3.3167    -0.6084     0.0293 H       
  24 H24           -1.2372     3.1372     0.0369 H       
  25 H25           -2.8176     4.0149     0.0517 H       
  26 H26           -4.9730     5.2007     0.0787 H       
  27 H27           -7.0434     1.4709     0.0777 H       
  28 H28           -4.8971     0.2689     0.0440 H       
  29 H29           -7.5505     4.1930    -2.1970 H       
  30 H30           -8.9489     4.9690    -1.6821 H       
@<TRIPOS>BOND
   1    1    2 ar
   2    1   13 1
   3    1    6 ar
   4    2    3 ar
   5    2   14 1
   6    3    4 ar
   7    3   22 1
   8    4    5 ar
   9    4   23 1
  10    5    6 ar
  11    5    7 1
  12    6   24 1
  13    7    8 ar
  14    7   12 ar
  15    8    9 ar
  16    8   25 1
  17    9   10 ar
  18    9   26 1
  19   10   11 ar
  20   10   18 1
  21   11   12 ar
  22   11   27 1
  23   12   28 1
  24   14   15 1
  25   14   16 1
  26   14   17 1
  27   18   19 2
  28   18   20 2
  29   18   21 am
  30   21   29 1
  31   21   30 1

#	End of record

