#	Name: ASD01814363
#	Creating user name:	WinNT
#	Creation time:	15. 06. 2019 19:32

#	Modifying user name:	WinNT
#	Modification time:	15. 06. 2019 19:32

#	Program:	/corina/corina34_cracker 3.40 0067  02.08.2006

@<TRIPOS>MOLECULE
ASD01814363
  54   58    0    0    0
SMALL
NO_CHARGES


@<TRIPOS>ATOM
   1 N1            -0.6400     1.9603    -2.1301 N.2     
   2 C2            -0.7992     0.8310    -2.7792 C.2     
   3 C3             0.2207     0.3431    -3.6104 C.2     
   4 C4             1.3720     1.0486    -3.7370 C.2     
   5 N5             1.5115     2.2209    -3.0503 N.pl3   
   6 C6             0.4929     2.6656    -2.2476 C.2     
   7 N7             2.5506     3.1539    -2.9723 N.2     
   8 C8             2.1900     4.1272    -2.1604 C.2     
   9 C9             0.9155     3.8649    -1.6867 C.2     
  10 C10            2.6700     5.4272    -1.5631 C.3     
  11 N11            1.6058     5.9392    -0.6943 N.am    
  12 C12            0.5010     4.9771    -0.7580 C.3     
  13 C13            1.6370     7.0778     0.0261 C.2     
  14 O14            0.6482     7.4398     0.6343 O.2     
  15 C15            2.8699     7.8845     0.0768 C.ar    
  16 C16            2.8038     9.2807    -0.0379 C.ar    
  17 C17            4.1097     7.2622     0.2450 C.ar    
  18 C18            5.2584     8.0204     0.2921 C.ar    
  19 C19            5.1905     9.4016     0.1731 C.ar    
  20 C20            3.9681    10.0299     0.0114 C.ar    
  21 O21            1.6048     9.8950    -0.1968 O.3     
  22 Cl22           0.0108    -1.1512    -4.4687 Cl      
  23 F23            6.3229    10.1368     0.2210 F       
  24 C24            2.4824     0.5456    -4.6231 C.3     
  25 C25           -2.0823     0.0547    -2.6309 C.3     
  26 C26            1.6153    11.3198    -0.3065 C.3     
  27 C27            0.1828    11.8286    -0.4789 C.3     
  28 N28           -0.3698    11.3813    -1.7752 N.3     
  29 C29           -1.2116    12.4603    -2.3240 C.3     
  30 C30           -1.1539    13.6370    -1.3274 C.3     
  31 C31            0.1653    13.3757    -0.5540 C.3     
  32 F32           -1.0953    14.8585    -2.0070 F       
  33 F33           -2.2508    13.6045    -0.4596 F       
  34 H34            3.5731     5.2535    -0.9779 H       
  35 H35            2.8758     6.1448    -2.3572 H       
  36 H36           -0.3937     5.4662    -1.1434 H       
  37 H37            0.3042     4.5747     0.2357 H       
  38 H38            4.1670     6.1877     0.3383 H       
  39 H39            6.2160     7.5383     0.4225 H       
  40 H40            3.9218    11.1053    -0.0768 H       
  41 H41            2.1833    -0.3974    -5.0806 H       
  42 H42            2.6856     1.2795    -5.4030 H       
  43 H43            3.3815     0.3910    -4.0265 H       
  44 H44           -2.7503     0.5834    -1.9510 H       
  45 H45           -2.5607    -0.0459    -3.6051 H       
  46 H46           -1.8639    -0.9348    -2.2294 H       
  47 H47            2.0477    11.7506     0.5966 H       
  48 H48            2.2116    11.6132    -1.1705 H       
  49 H49           -0.4454    11.4814     0.3415 H       
  50 H50            0.3685    11.1363    -2.4178 H       
  51 H51           -0.8249    12.7758    -3.2931 H       
  52 H52           -2.2394    12.1123    -2.4279 H       
  53 H53            0.1270    13.8147     0.4429 H       
  54 H54            1.0248    13.7493    -1.1107 H       
@<TRIPOS>BOND
   1    1    2 2
   2    1    6 1
   3    2    3 1
   4    2   25 1
   5    3    4 2
   6    3   22 1
   7    4    5 1
   8    4   24 1
   9    5    7 1
  10    5    6 1
  11    6    9 2
  12    7    8 2
  13    8   10 1
  14    8    9 1
  15    9   12 1
  16   10   11 1
  17   10   34 1
  18   10   35 1
  19   11   12 1
  20   11   13 am
  21   12   36 1
  22   12   37 1
  23   13   14 2
  24   13   15 1
  25   15   17 ar
  26   15   16 ar
  27   16   20 ar
  28   16   21 1
  29   17   18 ar
  30   17   38 1
  31   18   19 ar
  32   18   39 1
  33   19   20 ar
  34   19   23 1
  35   20   40 1
  36   21   26 1
  37   24   41 1
  38   24   42 1
  39   24   43 1
  40   25   44 1
  41   25   45 1
  42   25   46 1
  43   26   27 1
  44   26   47 1
  45   26   48 1
  46   27   28 1
  47   27   31 1
  48   27   49 1
  49   28   29 1
  50   28   50 1
  51   29   30 1
  52   29   51 1
  53   29   52 1
  54   30   31 1
  55   30   32 1
  56   30   33 1
  57   31   53 1
  58   31   54 1

#	End of record

