#	Name: ASD03240547
#	Creating user name:	WinNT
#	Creation time:	15. 06. 2019 20:35

#	Modifying user name:	WinNT
#	Modification time:	15. 06. 2019 20:35

#	Program:	/corina/corina34_cracker 3.40 0067  02.08.2006

@<TRIPOS>MOLECULE
ASD03240547
  67   73    0    0    0
SMALL
NO_CHARGES


@<TRIPOS>ATOM
   1 C1             0.0871     1.0802    -0.5250 C.ar    
   2 C2             0.1864    -0.2895    -0.3931 C.ar    
   3 N3             1.3506    -0.8678    -0.1664 N.ar    
   4 C4             2.4711    -0.1673    -0.0548 C.ar    
   5 C5             2.4467     1.2193    -0.1914 C.ar    
   6 C6             1.2346     1.8560    -0.4239 C.ar    
   7 N7             3.6623    -0.8333     0.2203 N.pl3   
   8 C8             4.3566    -0.5877     1.4018 C.ar    
   9 C9             4.8673     0.6858     1.6748 C.ar    
  10 C10            4.6995     1.7804     0.6937 C.2     
  11 N11            3.6203     1.9829    -0.1166 N.pl3   
  12 C12            4.5433    -1.6121     2.3202 C.ar    
  13 C13            5.2204    -1.3687     3.5000 C.ar    
  14 C14            5.7161    -0.1062     3.7765 C.ar    
  15 C15            5.5435     0.9217     2.8716 C.ar    
  16 N16            5.5886     2.7261     0.4654 N.2     
  17 C17            5.1328     3.5568    -0.4848 C.2     
  18 C18            3.8834     3.1071    -0.8744 C.2     
  19 C19            3.0064     3.7090    -1.8970 C.ar    
  20 C20            2.8094     5.0919    -1.9268 C.ar    
  21 C21            2.3737     2.8994    -2.8437 C.ar    
  22 C22            1.5554     3.4690    -3.7967 C.ar    
  23 C23            1.3603     4.8389    -3.8165 C.ar    
  24 C24            1.9882     5.6476    -2.8855 C.ar    
  25 C25            5.8402     4.7427    -1.0206 C.ar    
  26 C26            0.4650     5.4538    -4.8612 C.3     
  27 N27           -0.4692     4.4866    -5.4527 N.3     
  28 C28           -0.2071     6.7597    -4.4054 C.3     
  29 C29            0.0541     7.2966    -5.8225 C.3     
  30 C30            1.2212     6.2957    -5.9024 C.3     
  31 C31            6.6411     5.5172    -0.1809 C.ar    
  32 C32            7.2983     6.6203    -0.6823 C.ar    
  33 C33            7.1636     6.9613    -2.0229 C.ar    
  34 C34            6.3661     6.1918    -2.8617 C.ar    
  35 C35            5.7115     5.0840    -2.3672 C.ar    
  36 N36            7.8316     8.0812    -2.5289 N.am    
  37 C37            9.0576     8.3996    -2.0685 C.2     
  38 O38            9.5464     7.7662    -1.1569 O.2     
  39 C39            9.8212     9.5425    -2.6863 C.3     
  40 H40           -0.8710     1.5434    -0.7091 H       
  41 H41           -0.7022    -0.8976    -0.4764 H       
  42 H42            1.1854     2.9302    -0.5242 H       
  43 H43            4.0118    -1.4751    -0.4175 H       
  44 H44            4.1588    -2.5997     2.1126 H       
  45 H45            5.3635    -2.1688     4.2112 H       
  46 H46            6.2394     0.0753     4.7037 H       
  47 H47            5.9313     1.9059     3.0895 H       
  48 H48            3.2986     5.7242    -1.2006 H       
  49 H49            2.5254     1.8302    -2.8296 H       
  50 H50            1.0659     2.8445    -4.5293 H       
  51 H51            1.8314     6.7159    -2.9069 H       
  52 H52            0.0158     3.6568    -5.7599 H       
  53 H53           -1.2078     4.2549    -4.8055 H       
  54 H54           -1.2652     6.6469    -4.1693 H       
  55 H55            0.3468     7.2880    -3.6293 H       
  56 H56           -0.7511     7.0833    -6.5256 H       
  57 H57            0.3700     8.3396    -5.8429 H       
  58 H58            2.1662     6.6967    -5.5358 H       
  59 H59            1.3146     5.8106    -6.8740 H       
  60 H60            6.7459     5.2530     0.8610 H       
  61 H61            7.9181     7.2205    -0.0327 H       
  62 H62            6.2626     6.4594    -3.9029 H       
  63 H63            5.0918     4.4864    -3.0194 H       
  64 H64            7.4125     8.6287    -3.2112 H       
  65 H65            9.2264     9.9878    -3.4838 H       
  66 H66           10.0289    10.2944    -1.9249 H       
  67 H67           10.7605     9.1722    -3.0969 H       
@<TRIPOS>BOND
   1    1    2 ar
   2    1    6 ar
   3    1   40 1
   4    2    3 ar
   5    2   41 1
   6    3    4 ar
   7    4    5 ar
   8    4    7 1
   9    5    6 ar
  10    5   11 1
  11    6   42 1
  12    7    8 1
  13    7   43 1
  14    8    9 ar
  15    8   12 ar
  16    9   10 1
  17    9   15 ar
  18   10   11 1
  19   10   16 2
  20   11   18 1
  21   12   13 ar
  22   12   44 1
  23   13   14 ar
  24   13   45 1
  25   14   15 ar
  26   14   46 1
  27   15   47 1
  28   16   17 1
  29   17   18 2
  30   17   25 1
  31   18   19 1
  32   19   20 ar
  33   19   21 ar
  34   20   24 ar
  35   20   48 1
  36   21   22 ar
  37   21   49 1
  38   22   23 ar
  39   22   50 1
  40   23   24 ar
  41   23   26 1
  42   24   51 1
  43   25   31 ar
  44   25   35 ar
  45   26   27 1
  46   26   28 1
  47   26   30 1
  48   27   52 1
  49   27   53 1
  50   28   29 1
  51   28   54 1
  52   28   55 1
  53   29   30 1
  54   29   56 1
  55   29   57 1
  56   30   58 1
  57   30   59 1
  58   31   32 ar
  59   31   60 1
  60   32   33 ar
  61   32   61 1
  62   33   34 ar
  63   33   36 1
  64   34   35 ar
  65   34   62 1
  66   35   63 1
  67   36   37 am
  68   36   64 1
  69   37   38 2
  70   37   39 1
  71   39   65 1
  72   39   66 1
  73   39   67 1

#	End of record

