#	Name: ASD01916538
#	Creating user name:	WinNT
#	Creation time:	15. 06. 2019 20:07

#	Modifying user name:	WinNT
#	Modification time:	15. 06. 2019 20:07

#	Program:	/corina/corina34_cracker 3.40 0067  02.08.2006

@<TRIPOS>MOLECULE
ASD01916538
  44   47    0    0    0
SMALL
NO_CHARGES


@<TRIPOS>ATOM
   1 C1            -0.0171     1.4105     0.0098 C.ar    
   2 C2             0.0021    -0.0041     0.0020 C.ar    
   3 C3            -1.1915    -0.7259     0.0414 C.ar    
   4 C4            -2.3839    -0.0650     0.0741 C.ar    
   5 C5            -2.4217     1.3384     0.0663 C.ar    
   6 C6            -1.2399     2.0767     0.0357 C.ar    
   7 N7             1.1600     2.0758     0.0021 N.2     
   8 C8             2.3197     1.4680    -0.0397 C.2     
   9 N9             2.4195     0.1197    -0.1575 N.am    
  10 C10            1.3097    -0.6625    -0.0625 C.2     
  11 C11           -3.6831     2.0159     0.0896 C.1     
  12 O12            1.4008    -1.8762    -0.0323 O.2     
  13 C13           -4.7172     2.5714     0.1086 C.1     
  14 C14           -5.9786     3.2489     0.1318 C.2     
  15 C15            3.5359     2.3450     0.1019 C.3     
  16 C16            4.7921     1.6921    -0.4310 C.3     
  17 C17            4.8960     0.2356    -0.0273 C.3     
  18 C18            3.6788    -0.5620    -0.4371 C.3     
  19 S19           -6.2736     4.9967     0.1275 S.3     
  20 N20           -7.9652     4.8679     0.1639 N.2     
  21 C21           -8.2640     3.6018     0.1779 C.2     
  22 C22           -7.2423     2.6874     0.1566 C.2     
  23 C23            6.1341    -0.3748    -0.6872 C.3     
  24 C24            5.0551     0.1522     1.4922 C.3     
  25 C25           -9.7013     3.1501     0.2110 C.3     
  26 H26           -1.1710    -1.8057     0.0456 H       
  27 H27           -3.3064    -0.6257     0.1060 H       
  28 H28           -1.2722     3.1562     0.0323 H       
  29 H29            3.3648     3.2743    -0.4413 H       
  30 H30            3.6808     2.5780     1.1568 H       
  31 H31            4.7909     1.7583    -1.5190 H       
  32 H32            5.6598     2.2283    -0.0467 H       
  33 H33            3.6877    -1.5124     0.0966 H       
  34 H34            3.7371    -0.7641    -1.5066 H       
  35 H35           -7.4099     1.6205     0.1662 H       
  36 H36            7.0234     0.1628    -0.3584 H       
  37 H37            6.2177    -1.4237    -0.4025 H       
  38 H38            6.0432    -0.2985    -1.7707 H       
  39 H39            4.1893     0.6070     1.9736 H       
  40 H40            5.1307    -0.8927     1.7928 H       
  41 H41            5.9584     0.6831     1.7926 H       
  42 H42          -10.0695     3.0346    -0.8084 H       
  43 H43           -9.7702     2.1955     0.7325 H       
  44 H44          -10.3039     3.8935     0.7328 H       
@<TRIPOS>BOND
   1    1    2 ar
   2    1    7 1
   3    1    6 ar
   4    2    3 ar
   5    2   10 1
   6    3    4 ar
   7    3   26 1
   8    4    5 ar
   9    4   27 1
  10    5    6 ar
  11    5   11 1
  12    6   28 1
  13    7    8 2
  14    8    9 1
  15    8   15 1
  16    9   10 am
  17    9   18 1
  18   10   12 2
  19   11   13 3
  20   13   14 1
  21   14   19 1
  22   14   22 2
  23   15   16 1
  24   15   29 1
  25   15   30 1
  26   16   17 1
  27   16   31 1
  28   16   32 1
  29   17   18 1
  30   17   23 1
  31   17   24 1
  32   18   33 1
  33   18   34 1
  34   19   20 1
  35   20   21 2
  36   21   22 1
  37   21   25 1
  38   22   35 1
  39   23   36 1
  40   23   37 1
  41   23   38 1
  42   24   39 1
  43   24   40 1
  44   24   41 1
  45   25   42 1
  46   25   43 1
  47   25   44 1

#	End of record

