#	Name: ASD01882846
#	Creating user name:	WinNT
#	Creation time:	15. 06. 2019 19:45

#	Modifying user name:	WinNT
#	Modification time:	15. 06. 2019 19:45

#	Program:	/corina/corina34_cracker 3.40 0067  02.08.2006

@<TRIPOS>MOLECULE
ASD01882846
  54   57    0    0    0
SMALL
NO_CHARGES


@<TRIPOS>ATOM
   1 C1            -0.0358     1.1446    -0.5494 C.2     
   2 N2             0.0017    -0.1535    -0.2659 N.2     
   3 C3             1.1721    -0.7824    -0.2095 C.2     
   4 C4             2.4749    -0.1160    -0.5543 C.3     
   5 C5             2.4147     1.3818    -0.2220 C.3     
   6 N6             1.1117     1.8773    -0.6805 N.pl3   
   7 O7            -1.1236     1.9089    -0.7153 O.3     
   8 C8             0.7922     3.1417    -1.3388 C.3     
   9 C9            -0.7445     3.0896    -1.4895 C.3     
  10 O10            1.1894    -1.9472     0.1364 O.2     
  11 C11            3.6039    -0.7672     0.2471 C.3     
  12 C12            4.9472    -0.1878    -0.2010 C.3     
  13 C13           -1.1362     2.9191    -2.9586 C.3     
  14 O14           -2.5604     2.8865    -3.0711 O.3     
  15 C15           -3.0775     2.7391    -4.3192 C.ar    
  16 C16           -4.4522     2.6994    -4.5016 C.ar    
  17 C17           -4.9753     2.5494    -5.7713 C.ar    
  18 C18           -4.1301     2.4389    -6.8599 C.ar    
  19 C19           -2.7596     2.4778    -6.6808 C.ar    
  20 C20           -2.2316     2.6338    -5.4138 C.ar    
  21 C21           -4.7035     2.2754    -8.2439 C.3     
  22 C22           -4.2480     3.4399    -9.1256 C.3     
  23 C23           -4.8301     3.2739   -10.5307 C.3     
  24 C24           -4.3399     1.9558   -11.1334 C.3     
  25 C25           -4.7954     0.7913   -10.2518 C.3     
  26 C26           -4.2133     0.9573    -8.8466 C.3     
  27 H27            2.6734    -0.2415    -1.6187 H       
  28 H28            2.5092     1.5272     0.8541 H       
  29 H29            3.2155     1.9093    -0.7403 H       
  30 H30            1.0885     3.9851    -0.7151 H       
  31 H31            1.2721     3.1980    -2.3158 H       
  32 H32           -1.2018     3.9861    -1.0708 H       
  33 H33            3.4580    -0.5673     1.3087 H       
  34 H34            3.5971    -1.8436     0.0758 H       
  35 H35            5.7571    -0.7205     0.2975 H       
  36 H36            5.0491    -0.2997    -1.2805 H       
  37 H37            4.9924     0.8693     0.0606 H       
  38 H38           -0.7450     3.7551    -3.5383 H       
  39 H39           -0.7202     1.9864    -3.3397 H       
  40 H40           -5.1128     2.7853    -3.6515 H       
  41 H41           -6.0455     2.5181    -5.9137 H       
  42 H42           -2.1015     2.3905    -7.5326 H       
  43 H43           -1.1612     2.6689    -5.2749 H       
  44 H44           -5.7920     2.2665    -8.1875 H       
  45 H45           -4.5972     4.3790    -8.6962 H       
  46 H46           -3.1594     3.4488    -9.1820 H       
  47 H47           -5.9186     3.2650   -10.4743 H       
  48 H48           -4.5056     4.1036   -11.1588 H       
  49 H49           -4.7546     1.8376   -12.1344 H       
  50 H50           -3.2514     1.9647   -11.1898 H       
  51 H51           -5.8839     0.7824   -10.1954 H       
  52 H52           -4.4461    -0.1477   -10.6811 H       
  53 H53           -3.1247     0.9662    -8.9030 H       
  54 H54           -4.5378     0.1277    -8.2185 H       
@<TRIPOS>BOND
   1    1    2 2
   2    1    6 1
   3    1    7 1
   4    2    3 1
   5    3    4 1
   6    3   10 2
   7    4    5 1
   8    4   11 1
   9    4   27 1
  10    5    6 1
  11    5   28 1
  12    5   29 1
  13    6    8 1
  14    7    9 1
  15    8    9 1
  16    8   30 1
  17    8   31 1
  18    9   13 1
  19    9   32 1
  20   11   12 1
  21   11   33 1
  22   11   34 1
  23   12   35 1
  24   12   36 1
  25   12   37 1
  26   13   14 1
  27   13   38 1
  28   13   39 1
  29   14   15 1
  30   15   16 ar
  31   15   20 ar
  32   16   17 ar
  33   16   40 1
  34   17   18 ar
  35   17   41 1
  36   18   19 ar
  37   18   21 1
  38   19   20 ar
  39   19   42 1
  40   20   43 1
  41   21   22 1
  42   21   26 1
  43   21   44 1
  44   22   23 1
  45   22   45 1
  46   22   46 1
  47   23   24 1
  48   23   47 1
  49   23   48 1
  50   24   25 1
  51   24   49 1
  52   24   50 1
  53   25   26 1
  54   25   51 1
  55   25   52 1
  56   26   53 1
  57   26   54 1

#	End of record

