#	Name: ASD05490128
#	Creating user name:	WinNT
#	Creation time:	15. 06. 2019 21:01

#	Modifying user name:	WinNT
#	Modification time:	15. 06. 2019 21:01

#	Program:	/corina/corina34_cracker 3.40 0067  02.08.2006

@<TRIPOS>MOLECULE
ASD05490128
  37   38    0    0    0
SMALL
NO_CHARGES


@<TRIPOS>ATOM
   1 N1             0.0579     1.2456     0.1896 N.ar    
   2 C2             1.1571     1.9770     0.1599 C.ar    
   3 C3             2.4009     1.3822     0.0794 C.ar    
   4 C4             2.4852    -0.0079     0.0293 C.ar    
   5 C5             1.3017    -0.7436     0.0630 C.ar    
   6 C6             0.0971    -0.0741     0.1442 C.ar    
   7 Cl7            1.0371     3.7077     0.2224 Cl      
   8 Cl8           -1.3846    -0.9776     0.1875 Cl      
   9 N9             3.7230    -0.6471    -0.0529 N.am    
  10 C10            4.2492    -1.0597    -1.3564 C.3     
  11 C11            5.0068     0.0854    -1.9775 C.ar    
  12 C12            6.3710     0.1974    -1.7838 C.ar    
  13 C13            4.3384     1.0205    -2.7456 C.ar    
  14 C14            7.0661     1.2479    -2.3530 C.ar    
  15 C15            6.3968     2.1866    -3.1168 C.ar    
  16 C16            5.0331     2.0706    -3.3158 C.ar    
  17 I17            7.4497     3.7793    -3.9791 I       
  18 N18            1.3361    -2.2225     0.0125 N.pl3   
  19 O19            1.4832    -2.8637     1.0377 O.2     
  20 O20            1.2173    -2.7984    -1.0541 O.2     
  21 C21            4.4343    -0.8849     1.0669 C.2     
  22 O22            5.5120    -1.4415     0.9954 O.2     
  23 O23            3.9507    -0.5058     2.2649 O.3     
  24 C24            4.0621    -0.2935     4.6883 C.3     
  25 C25            4.7707    -0.7941     3.4280 C.3     
  26 H26            3.2959     1.9861     0.0551 H       
  27 H27            4.9188    -1.9098    -1.2254 H       
  28 H28            3.4232    -1.3448    -2.0079 H       
  29 H29            6.8937    -0.5357    -1.1873 H       
  30 H30            3.2734     0.9302    -2.9004 H       
  31 H31            8.1317     1.3357    -2.2010 H       
  32 H32            4.5101     2.8035    -3.9122 H       
  33 H33            3.9037     0.7823     4.6130 H       
  34 H34            3.1001    -0.7963     4.7882 H       
  35 H35            4.6776    -0.5099     5.5614 H       
  36 H36            4.9290    -1.8699     3.5033 H       
  37 H37            5.7326    -0.2914     3.3281 H       
@<TRIPOS>BOND
   1    1    2 ar
   2    1    6 ar
   3    2    3 ar
   4    2    7 1
   5    3    4 ar
   6    3   26 1
   7    4    5 ar
   8    4    9 1
   9    5    6 ar
  10    5   18 1
  11    6    8 1
  12    9   10 1
  13    9   21 am
  14   10   11 1
  15   10   27 1
  16   10   28 1
  17   11   12 ar
  18   11   13 ar
  19   12   14 ar
  20   12   29 1
  21   13   16 ar
  22   13   30 1
  23   14   15 ar
  24   14   31 1
  25   15   16 ar
  26   15   17 1
  27   16   32 1
  28   18   19 2
  29   18   20 2
  30   21   22 2
  31   21   23 1
  32   23   25 1
  33   24   25 1
  34   24   33 1
  35   24   34 1
  36   24   35 1
  37   25   36 1
  38   25   37 1

#	End of record

