#	Name: ASD01916572
#	Creating user name:	WinNT
#	Creation time:	15. 06. 2019 20:07

#	Modifying user name:	WinNT
#	Modification time:	15. 06. 2019 20:07

#	Program:	/corina/corina34_cracker 3.40 0067  02.08.2006

@<TRIPOS>MOLECULE
ASD01916572
  43   46    0    0    0
SMALL
NO_CHARGES


@<TRIPOS>ATOM
   1 C1            -0.0171     1.4100     0.0098 C.ar    
   2 C2             0.0021    -0.0041     0.0020 C.ar    
   3 C3            -1.1912    -0.7255     0.0414 C.ar    
   4 C4            -2.3838    -0.0642     0.0741 C.ar    
   5 C5            -2.4215     1.3385     0.0663 C.ar    
   6 C6            -1.2406     2.0764     0.0357 C.ar    
   7 N7             1.1598     2.0754     0.0021 N.2     
   8 C8             2.3197     1.4679    -0.0397 C.2     
   9 N9             2.4200     0.1197    -0.1575 N.am    
  10 C10            1.3103    -0.6627    -0.0625 C.2     
  11 C11           -3.6829     2.0160     0.0895 C.1     
  12 C12           -4.7170     2.5714     0.1086 C.1     
  13 C13           -5.9784     3.2489     0.1318 C.ar    
  14 N14           -6.0245     4.5784     0.1246 N.ar    
  15 N15           -7.1359     5.2201     0.1448 N.ar    
  16 C16           -8.3047     4.6074     0.1740 C.ar    
  17 C17           -8.3647     3.2209     0.1843 C.ar    
  18 C18           -7.1722     2.5159     0.1564 C.ar    
  19 O19            1.4016    -1.8763    -0.0316 O.2     
  20 C20            3.5357     2.3452     0.1020 C.3     
  21 C21            4.7921     1.6927    -0.4308 C.3     
  22 C22            4.8965     0.2363    -0.0271 C.3     
  23 C23            3.6795    -0.5617    -0.4368 C.3     
  24 C24            6.1348    -0.3737    -0.6869 C.3     
  25 C25            5.0555     0.1531     1.4924 C.3     
  26 H26           -1.1709    -1.8053     0.0456 H       
  27 H27           -3.3065    -0.6247     0.1060 H       
  28 H28           -1.2730     3.1559     0.0324 H       
  29 H29           -9.2163     5.1863     0.1903 H       
  30 H30           -9.3138     2.7062     0.2088 H       
  31 H31           -7.1630     1.4360     0.1626 H       
  32 H32            3.3643     3.2746    -0.4412 H       
  33 H33            3.6804     2.5783     1.1569 H       
  34 H34            4.7909     1.7589    -1.5188 H       
  35 H35            5.6596     2.2293    -0.0465 H       
  36 H36            3.6887    -1.5120     0.0969 H       
  37 H37            3.7379    -0.7638    -1.5063 H       
  38 H38            7.0239     0.1642    -0.3582 H       
  39 H39            6.2187    -1.4226    -0.4023 H       
  40 H40            6.0438    -0.2975    -1.7705 H       
  41 H41            4.1896     0.6076     1.9738 H       
  42 H42            5.1315    -0.8919     1.7930 H       
  43 H43            5.9587     0.6842     1.7928 H       
@<TRIPOS>BOND
   1    1    2 ar
   2    1    7 1
   3    1    6 ar
   4    2    3 ar
   5    2   10 1
   6    3    4 ar
   7    3   26 1
   8    4    5 ar
   9    4   27 1
  10    5    6 ar
  11    5   11 1
  12    6   28 1
  13    7    8 2
  14    8    9 1
  15    8   20 1
  16    9   10 am
  17    9   23 1
  18   10   19 2
  19   11   12 3
  20   12   13 1
  21   13   14 ar
  22   13   18 ar
  23   14   15 ar
  24   15   16 ar
  25   16   17 ar
  26   16   29 1
  27   17   18 ar
  28   17   30 1
  29   18   31 1
  30   20   21 1
  31   20   32 1
  32   20   33 1
  33   21   22 1
  34   21   34 1
  35   21   35 1
  36   22   23 1
  37   22   24 1
  38   22   25 1
  39   23   36 1
  40   23   37 1
  41   24   38 1
  42   24   39 1
  43   24   40 1
  44   25   41 1
  45   25   42 1
  46   25   43 1

#	End of record

