#	Name: ASD04590490
#	Creating user name:	WinNT
#	Creation time:	15. 06. 2019 20:50

#	Modifying user name:	WinNT
#	Modification time:	15. 06. 2019 20:50

#	Program:	/corina/corina34_cracker 3.40 0067  02.08.2006

@<TRIPOS>MOLECULE
ASD04590490
  71   76    0    0    0
SMALL
NO_CHARGES


@<TRIPOS>ATOM
   1 C1            -0.0167     1.3832     0.0096 C.ar    
   2 C2             0.0021    -0.0041     0.0020 C.ar    
   3 C3             2.4020     0.0223    -0.0203 C.ar    
   4 C4             2.3769     1.4283    -0.0129 C.ar    
   5 C5             1.1624     2.0986     0.0022 C.ar    
   6 N6             3.7040    -0.3552    -0.0352 N.2     
   7 C7             4.4709     0.7083    -0.0376 C.2     
   8 N8             3.6969     1.8375    -0.0242 N.pl3   
   9 C9             5.9482     0.6906    -0.0521 C.2     
  10 C10            6.7657    -0.4631    -0.0661 C.2     
  11 C11            8.0579    -0.0539    -0.0765 C.2     
  12 N12            8.0646     1.3050    -0.0695 N.pl3   
  13 N13            6.7360     1.7480    -0.0600 N.2     
  14 N14            6.3188    -1.7944    -0.0683 N.am    
  15 C15            7.2108    -2.8046    -0.0824 C.2     
  16 O16            8.4027    -2.5633    -0.0931 O.2     
  17 C17            1.1969    -0.6870    -0.0126 C.ar    
  18 C18            6.7414    -4.2031    -0.0847 C.ar    
  19 C19            7.6654    -5.2567    -0.0993 C.ar    
  20 C20           -1.2962    -0.7693     0.0103 C.3     
  21 N21           -1.7312    -1.0105    -1.3719 N.3     
  22 C22           -2.8597    -1.9518    -1.4124 C.3     
  23 C23           -0.6167    -1.4976    -2.1976 C.3     
  24 C24           -1.0980    -1.6784    -3.6397 C.3     
  25 O25           -2.2146    -2.5718    -3.6558 O.3     
  26 C26           -3.3186    -2.1280    -2.8624 C.3     
  27 C27            7.2128    -6.5678    -0.1014 C.ar    
  28 C28            5.8577    -6.8321    -0.0896 C.ar    
  29 C29            4.9411    -5.7934    -0.0752 C.ar    
  30 C30            5.3731    -4.4850    -0.0666 C.ar    
  31 O31            8.9965    -4.9954    -0.1117 O.3     
  32 C32            9.8783    -6.1199    -0.1262 C.3     
  33 S33            3.2150    -6.1471    -0.0608 S.o2    
  34 N34            2.7497    -6.2543     1.5248 N.am    
  35 O35            2.5660    -5.0004    -0.5928 O.2     
  36 O36            3.0676    -7.4489    -0.6112 O.2     
  37 C37            2.2692    -5.1394     2.3541 C.3     
  38 C38            1.9801    -5.7057     3.7602 C.3     
  39 C39            2.8497    -6.9899     3.8032 C.3     
  40 C40            2.7427    -7.4847     2.3369 C.3     
  41 H41           -0.9614     1.9066     0.0169 H       
  42 H42            1.1403     3.1784     0.0079 H       
  43 H43            4.0155     2.7537    -0.0228 H       
  44 H44            8.9276    -0.6941    -0.0878 H       
  45 H45            8.8529     1.8702    -0.0742 H       
  46 H46            5.3681    -1.9869    -0.0597 H       
  47 H47            1.2037    -1.7669    -0.0177 H       
  48 H48           -1.1524    -1.7232     0.5176 H       
  49 H49           -2.0561    -0.1898     0.5345 H       
  50 H50           -2.5450    -2.9149    -1.0107 H       
  51 H51           -3.6828    -1.5591    -0.8154 H       
  52 H52            0.1976    -0.7734    -2.1738 H       
  53 H53           -0.2660    -2.4535    -1.8084 H       
  54 H54           -1.3984    -0.7129    -4.0469 H       
  55 H55           -0.2909    -2.0935    -4.2434 H       
  56 H56           -4.1175    -2.8683    -2.9039 H       
  57 H57           -3.6836    -1.1756    -3.2469 H       
  58 H58            7.9212    -7.3829    -0.1126 H       
  59 H59            5.5103    -7.8547    -0.0920 H       
  60 H60            4.6550    -3.6784    -0.0554 H       
  61 H61            9.7073    -6.7271     0.7627 H       
  62 H62            9.6890    -6.7186    -1.0171 H       
  63 H63           10.9111    -5.7716    -0.1351 H       
  64 H64            3.0353    -4.3665     2.4160 H       
  65 H65            1.3561    -4.7258     1.9260 H       
  66 H66            2.2933    -5.0018     4.5313 H       
  67 H67            0.9236    -5.9516     3.8672 H       
  68 H68            3.8812    -6.7546     4.0654 H       
  69 H69            2.4305    -7.7228     4.4926 H       
  70 H70            1.8147    -8.0373     2.1898 H       
  71 H71            3.6004    -8.1076     2.0831 H       
@<TRIPOS>BOND
   1    1    2 ar
   2    1    5 ar
   3    1   41 1
   4    2   17 ar
   5    2   20 1
   6    3    4 ar
   7    3    6 1
   8    3   17 ar
   9    4    5 ar
  10    4    8 1
  11    5   42 1
  12    6    7 2
  13    7    8 1
  14    7    9 1
  15    8   43 1
  16    9   10 1
  17    9   13 2
  18   10   11 2
  19   10   14 1
  20   11   12 1
  21   11   44 1
  22   12   13 1
  23   12   45 1
  24   14   15 am
  25   14   46 1
  26   15   16 2
  27   15   18 1
  28   17   47 1
  29   18   19 ar
  30   18   30 ar
  31   19   27 ar
  32   19   31 1
  33   20   21 1
  34   20   48 1
  35   20   49 1
  36   21   22 1
  37   21   23 1
  38   22   26 1
  39   22   50 1
  40   22   51 1
  41   23   24 1
  42   23   52 1
  43   23   53 1
  44   24   25 1
  45   24   54 1
  46   24   55 1
  47   25   26 1
  48   26   56 1
  49   26   57 1
  50   27   28 ar
  51   27   58 1
  52   28   29 ar
  53   28   59 1
  54   29   30 ar
  55   29   33 1
  56   30   60 1
  57   31   32 1
  58   32   61 1
  59   32   62 1
  60   32   63 1
  61   33   34 am
  62   33   35 2
  63   33   36 2
  64   34   37 1
  65   34   40 1
  66   37   38 1
  67   37   64 1
  68   37   65 1
  69   38   39 1
  70   38   66 1
  71   38   67 1
  72   39   40 1
  73   39   68 1
  74   39   69 1
  75   40   70 1
  76   40   71 1

#	End of record

