#	Name: ASD09530017
#	Creating user name:	WinNT
#	Creation time:	15. 06. 2019 21:22

#	Modifying user name:	WinNT
#	Modification time:	15. 06. 2019 21:22

#	Program:	/corina/corina34_cracker 3.40 0067  02.08.2006

@<TRIPOS>MOLECULE
ASD09530017
  29   30    0    0    0
SMALL
NO_CHARGES


@<TRIPOS>ATOM
   1 C1            -0.0168     1.3895     0.0097 C.ar    
   2 C2             0.0021    -0.0041     0.0020 C.ar    
   3 C3             1.2213    -0.6792    -0.0132 C.ar    
   4 C4             2.4023     0.0348    -0.0207 C.ar    
   5 C5             2.3775     1.4179    -0.0126 C.ar    
   6 C6             1.1704     2.0932     0.0021 C.ar    
   7 C7            -1.2705    -0.7658     0.0106 C.ar    
   8 C8             3.6706     2.1919    -0.0198 C.3     
   9 C9             4.0888     2.4580    -1.4429 C.2     
  10 O10            5.2190     3.1372    -1.6944 O.3     
  11 O11            3.4069     2.0600    -2.3575 O.2     
  12 N12           -2.3196    -0.3040     0.6828 N.ar    
  13 C13           -3.4510    -0.9852     0.6874 C.ar    
  14 C14           -3.5467    -2.1787    -0.0060 C.ar    
  15 N15           -2.5066    -2.6446    -0.6768 N.ar    
  16 C16           -1.3723    -1.9683    -0.6926 C.ar    
  17 Cl17          -0.0068    -2.5797    -1.5732 Cl      
  18 C18            5.5597     3.3565    -3.0887 C.3     
  19 H19           -0.9588     1.9178     0.0170 H       
  20 H20            1.2418    -1.7589    -0.0189 H       
  21 H21            3.3477    -0.4872    -0.0325 H       
  22 H22            1.1569     3.1731     0.0081 H       
  23 H23            3.5299     3.1391     0.5008 H       
  24 H24            4.4440     1.6119     0.4838 H       
  25 H25           -4.3035    -0.6100     1.2340 H       
  26 H26           -4.4742    -2.7320     0.0009 H       
  27 H27            5.6779     2.3956    -3.5894 H       
  28 H28            4.7638     3.9228    -3.5725 H       
  29 H29            6.4931     3.9159    -3.1510 H       
@<TRIPOS>BOND
   1    1    2 ar
   2    1    6 ar
   3    1   19 1
   4    2    3 ar
   5    2    7 1
   6    3    4 ar
   7    3   20 1
   8    4    5 ar
   9    4   21 1
  10    5    6 ar
  11    5    8 1
  12    6   22 1
  13    7   12 ar
  14    7   16 ar
  15    8    9 1
  16    8   23 1
  17    8   24 1
  18    9   10 1
  19    9   11 2
  20   10   18 1
  21   12   13 ar
  22   13   14 ar
  23   13   25 1
  24   14   15 ar
  25   14   26 1
  26   15   16 ar
  27   16   17 1
  28   18   27 1
  29   18   28 1
  30   18   29 1

#	End of record

