#	Name: ASD01881276
#	Creating user name:	WinNT
#	Creation time:	15. 06. 2019 19:42

#	Modifying user name:	WinNT
#	Modification time:	15. 06. 2019 19:42

#	Program:	/corina/corina34_cracker 3.40 0067  02.08.2006

@<TRIPOS>MOLECULE
ASD01881276
  46   48    0    0    0
SMALL
NO_CHARGES


@<TRIPOS>ATOM
   1 C1            -0.0162     1.3398     0.0094 C.2     
   2 N2             0.0021    -0.0041     0.0020 N.am    
   3 C3             1.3976    -0.4574    -0.0137 C.3     
   4 C4             2.2451     0.7905    -0.0151 C.ar    
   5 C5             3.6000     1.0055    -0.0269 C.ar    
   6 C6             4.0976     2.3073    -0.0247 C.ar    
   7 C7             3.2212     3.3882    -0.0100 C.ar    
   8 C8             1.8599     3.1774     0.0018 C.ar    
   9 C9             1.3562     1.8711    -0.0008 C.ar    
  10 O10           -1.0239     2.0203     0.0181 O.2     
  11 N11            5.4707     2.5263    -0.0366 N.pl3   
  12 C12            5.9943     3.8945    -0.0343 C.3     
  13 C13            8.1900     3.8444    -1.2490 C.ar    
  14 C14            7.5008     3.8559    -0.0489 C.ar    
  15 C15            8.2136     3.8320     1.1391 C.ar    
  16 C16            9.5989     3.7972     1.0776 C.ar    
  17 C17           10.2185     3.7876    -0.1571 C.ar    
  18 N18            9.5089     3.8115    -1.2688 N.ar    
  19 C19            7.5007     3.8440     2.4668 C.3     
  20 F20            8.4416     3.8149     3.5016 F       
  21 F21            6.7286     5.0060     2.5710 F       
  22 F22            6.6700     2.7222     2.5601 F       
  23 Cl23           7.3093     3.8668    -2.7448 Cl      
  24 Cl24           0.7708     4.5292     0.0206 Cl      
  25 C25           -1.1772    -0.8732     0.0093 C.3     
  26 C26           -1.6020    -1.1686    -1.4305 C.3     
  27 C27           -2.8337    -2.0763    -1.4228 C.3     
  28 C28           -3.2585    -2.3717    -2.8627 C.3     
  29 H29            1.6083    -1.0527     0.8747 H       
  30 H30            1.5912    -1.0431    -0.9124 H       
  31 H31            4.2804     0.1667    -0.0376 H       
  32 H32            3.6096     4.3959    -0.0076 H       
  33 H33            6.0819     1.7731    -0.0465 H       
  34 H34            5.6358     4.4222    -0.9180 H       
  35 H35            5.6528     4.4127     0.8618 H       
  36 H36           10.1860     3.7782     1.9839 H       
  37 H37           11.2968     3.7605    -0.2128 H       
  38 H38           -0.9366    -1.8078     0.5161 H       
  39 H39           -1.9926    -0.3750     0.5338 H       
  40 H40           -1.8426    -0.2340    -1.9373 H       
  41 H41           -0.7867    -1.6669    -1.9550 H       
  42 H42           -2.5931    -3.0109    -0.9161 H       
  43 H43           -3.6490    -1.5780    -0.8984 H       
  44 H44           -4.1359    -3.0183    -2.8572 H       
  45 H45           -3.4991    -1.4371    -3.3695 H       
  46 H46           -2.4432    -2.8699    -3.3872 H       
@<TRIPOS>BOND
   1    1    2 am
   2    1    9 1
   3    1   10 2
   4    2    3 1
   5    2   25 1
   6    3    4 1
   7    3   29 1
   8    3   30 1
   9    4    5 ar
  10    4    9 ar
  11    5    6 ar
  12    5   31 1
  13    6    7 ar
  14    6   11 1
  15    7    8 ar
  16    7   32 1
  17    8    9 ar
  18    8   24 1
  19   11   12 1
  20   11   33 1
  21   12   14 1
  22   12   34 1
  23   12   35 1
  24   13   14 ar
  25   13   18 ar
  26   13   23 1
  27   14   15 ar
  28   15   16 ar
  29   15   19 1
  30   16   17 ar
  31   16   36 1
  32   17   18 ar
  33   17   37 1
  34   19   20 1
  35   19   21 1
  36   19   22 1
  37   25   26 1
  38   25   38 1
  39   25   39 1
  40   26   27 1
  41   26   40 1
  42   26   41 1
  43   27   28 1
  44   27   42 1
  45   27   43 1
  46   28   44 1
  47   28   45 1
  48   28   46 1

#	End of record

