#	Name: ASD01200244
#	Creating user name:	WinNT
#	Creation time:	15. 06. 2019 19:08

#	Modifying user name:	WinNT
#	Modification time:	15. 06. 2019 19:08

#	Program:	/corina/corina34_cracker 3.40 0067  02.08.2006

@<TRIPOS>MOLECULE
ASD01200244
  41   43    0    0    0
SMALL
NO_CHARGES


@<TRIPOS>ATOM
   1 C1             0.2733     0.8379     0.0943 C.ar    
   2 C2             0.5147    -0.5242     0.0704 C.ar    
   3 C3             1.8144    -0.9949     0.0130 C.ar    
   4 C4             2.8708    -0.1043    -0.0205 C.ar    
   5 C5             2.6290     1.2566     0.0034 C.ar    
   6 C6             1.3306     1.7275     0.0608 C.ar    
   7 Cl7           -0.8127    -1.6422     0.1131 Cl      
   8 C8             3.7813     2.2271    -0.0327 C.3     
   9 C9             3.6573     3.1203    -1.2687 C.3     
  10 C10            3.7578     3.0812     1.2087 C.2     
  11 C11            3.8257     2.2714    -2.5304 C.3     
  12 N12            4.7807     3.9190     1.4698 N.am    
  13 O13            2.8183     3.0146     1.9729 O.2     
  14 C14            3.5713     3.1303    -3.7815 C.3     
  15 C15            4.8777     3.1120    -4.6017 C.3     
  16 C16            5.5918     1.8139    -4.1498 C.3     
  17 C17            5.2778     1.7610    -2.6340 C.3     
  18 C18            4.8056     4.6355     2.6606 C.2     
  19 S19            6.0369     5.7292     3.1198 S.3     
  20 C20            5.1959     6.0571     4.6327 C.2     
  21 C21            4.0811     5.3240     4.6537 C.2     
  22 N22            3.8960     4.5760     3.5821 N.2     
  23 H23           -0.7412     1.2060     0.1347 H       
  24 H24            2.0035    -2.0581    -0.0054 H       
  25 H25            3.8855    -0.4716    -0.0651 H       
  26 H26            1.1422     2.7908     0.0795 H       
  27 H27            4.7201     1.6750    -0.0761 H       
  28 H28            2.6756     3.5939    -1.2777 H       
  29 H29            4.4308     3.8879    -1.2413 H       
  30 H30            3.1339     1.4294    -2.5086 H       
  31 H31            5.4995     4.0220     0.8266 H       
  32 H32            2.7566     2.7047    -4.3673 H       
  33 H33            3.3279     4.1520    -3.4898 H       
  34 H34            4.6578     3.0748    -5.6686 H       
  35 H35            5.4877     3.9843    -4.3672 H       
  36 H36            5.1753     0.9459    -4.6610 H       
  37 H37            6.6661     1.8848    -4.3196 H       
  38 H38            5.9524     2.4152    -2.0817 H       
  39 H39            5.3499     0.7379    -2.2649 H       
  40 H40            5.5251     6.7334     5.4078 H       
  41 H41            3.3848     5.3440     5.4790 H       
@<TRIPOS>BOND
   1    1    2 ar
   2    1    6 ar
   3    1   23 1
   4    2    3 ar
   5    2    7 1
   6    3    4 ar
   7    3   24 1
   8    4    5 ar
   9    4   25 1
  10    5    6 ar
  11    5    8 1
  12    6   26 1
  13    8    9 1
  14    8   10 1
  15    8   27 1
  16    9   11 1
  17    9   28 1
  18    9   29 1
  19   10   12 am
  20   10   13 2
  21   11   14 1
  22   11   17 1
  23   11   30 1
  24   12   18 1
  25   12   31 1
  26   14   15 1
  27   14   32 1
  28   14   33 1
  29   15   16 1
  30   15   34 1
  31   15   35 1
  32   16   17 1
  33   16   36 1
  34   16   37 1
  35   17   38 1
  36   17   39 1
  37   18   19 1
  38   18   22 2
  39   19   20 1
  40   20   21 2
  41   20   40 1
  42   21   22 1
  43   21   41 1

#	End of record

