#	Name: ASD02030297
#	Creating user name:	WinNT
#	Creation time:	15. 06. 2019 20:15

#	Modifying user name:	WinNT
#	Modification time:	15. 06. 2019 20:15

#	Program:	/corina/corina34_cracker 3.40 0067  02.08.2006

@<TRIPOS>MOLECULE
ASD02030297
  59   63    0    0    0
SMALL
NO_CHARGES


@<TRIPOS>ATOM
   1 N1            -0.0144     1.3644     0.1741 N.am    
   2 C2            -0.0642    -0.1018     0.0852 C.3     
   3 C3            -1.1208    -0.6168     1.0703 C.3     
   4 N4            -2.3604     0.1473     0.8714 N.am    
   5 C5            -2.3106     1.6134     0.9602 C.3     
   6 C6            -1.2550     2.1282    -0.0193 C.3     
   7 C7             1.1471     1.9968     0.4338 C.2     
   8 C8             2.3545     1.2147     0.7744 C.2     
   9 N9             3.5730     1.6921     0.9093 N.2     
  10 N10            2.3999    -0.1100     1.0067 N.2     
  11 C11            3.6441    -0.4156     1.2737 C.2     
  12 N12            4.3661     0.7219     1.2090 N.pl3   
  13 C13            5.7458     0.8301     1.4297 C.ar    
  14 O14            1.2018     3.2103     0.3880 O.2     
  15 C15           -3.5219    -0.4852     0.6117 C.2     
  16 C16           -3.5566    -1.9529     0.5252 C.2     
  17 O17           -4.5415     0.1580     0.4488 O.2     
  18 C18            6.3707     2.0655     1.3319 C.ar    
  19 C19            7.7329     2.1688     1.5509 C.ar    
  20 C20            8.4713     1.0407     1.8672 C.ar    
  21 C21            7.8496    -0.1905     1.9644 C.ar    
  22 C22            6.4892    -0.2979     1.7524 C.ar    
  23 C23           -0.9920     3.6125     0.2425 C.3     
  24 C24           -3.8074    -2.9051     1.6256 C.ar    
  25 F25            8.3430     3.3705     1.4557 F       
  26 C26           -3.3702    -2.7149    -0.5866 C.2     
  27 O27           -3.4765    -4.0110    -0.2722 O.3     
  28 C28           -3.7379    -4.1780     1.0416 C.ar    
  29 C29           -3.0867    -2.1790    -1.9663 C.3     
  30 C30           -3.9316    -5.3027     1.8345 C.ar    
  31 C31           -4.1888    -5.1618     3.1809 C.ar    
  32 C32           -4.2580    -3.8987     3.7602 C.ar    
  33 C33           -4.0706    -2.7691     2.9847 C.ar    
  34 O34           -4.5134    -3.7747     5.0899 O.3     
  35 C35           -4.7002    -4.9828     5.8301 C.3     
  36 H36           -0.3339    -0.3979    -0.9285 H       
  37 H37            0.9099    -0.5172     0.3434 H       
  38 H38           -1.3092    -1.6743     0.8849 H       
  39 H39           -0.7664    -0.4795     2.0919 H       
  40 H40           -3.2847     2.0288     0.7020 H       
  41 H41           -2.0409     1.9095     1.9739 H       
  42 H42           -1.6070     1.9912    -1.0418 H       
  43 H43            4.0234    -1.3996     1.5064 H       
  44 H44            5.7945     2.9449     1.0849 H       
  45 H45            9.5346     1.1227     2.0379 H       
  46 H46            8.4280    -1.0687     2.2105 H       
  47 H47            6.0049    -1.2602     1.8286 H       
  48 H48           -0.5215     3.7315     1.2184 H       
  49 H49           -0.3313     4.0061    -0.5299 H       
  50 H50           -1.9360     4.1573     0.2253 H       
  51 H51           -2.0097    -2.0852    -2.1054 H       
  52 H52           -3.4912    -2.8632    -2.7121 H       
  53 H53           -3.5541    -1.2008    -2.0792 H       
  54 H54           -3.8809    -6.2880     1.3952 H       
  55 H55           -4.3385    -6.0396     3.7919 H       
  56 H56           -4.1238    -1.7877     3.4323 H       
  57 H57           -4.8959    -4.7421     6.8750 H       
  58 H58           -5.5465    -5.5334     5.4193 H       
  59 H59           -3.8006    -5.5943     5.7604 H       
@<TRIPOS>BOND
   1    1    2 1
   2    1    7 am
   3    1    6 1
   4    2    3 1
   5    2   36 1
   6    2   37 1
   7    3    4 1
   8    3   38 1
   9    3   39 1
  10    4    5 1
  11    4   15 am
  12    5    6 1
  13    5   40 1
  14    5   41 1
  15    6   23 1
  16    6   42 1
  17    7    8 1
  18    7   14 2
  19    8    9 2
  20    8   10 1
  21    9   12 1
  22   10   11 2
  23   11   12 1
  24   11   43 1
  25   12   13 1
  26   13   18 ar
  27   13   22 ar
  28   15   16 1
  29   15   17 2
  30   16   26 2
  31   16   24 1
  32   18   19 ar
  33   18   44 1
  34   19   20 ar
  35   19   25 1
  36   20   21 ar
  37   20   45 1
  38   21   22 ar
  39   21   46 1
  40   22   47 1
  41   23   48 1
  42   23   49 1
  43   23   50 1
  44   24   28 ar
  45   24   33 ar
  46   26   27 1
  47   26   29 1
  48   27   28 1
  49   28   30 ar
  50   29   51 1
  51   29   52 1
  52   29   53 1
  53   30   31 ar
  54   30   54 1
  55   31   32 ar
  56   31   55 1
  57   32   33 ar
  58   32   34 1
  59   33   56 1
  60   34   35 1
  61   35   57 1
  62   35   58 1
  63   35   59 1

#	End of record

