#	Name: ASD03320062
#	Creating user name:	WinNT
#	Creation time:	15. 06. 2019 20:36

#	Modifying user name:	WinNT
#	Modification time:	15. 06. 2019 20:36

#	Program:	/corina/corina34_cracker 3.40 0067  02.08.2006

@<TRIPOS>MOLECULE
ASD03320062
  43   44    0    0    0
SMALL
NO_CHARGES


@<TRIPOS>ATOM
   1 C1            -0.0077     1.3434    -0.1946 C.ar    
   2 C2             0.0217    -0.0349     0.0276 C.ar    
   3 C3            -1.1538    -0.7589     0.0443 C.ar    
   4 C4            -2.3644    -0.1258    -0.1583 C.ar    
   5 C5            -2.4072     1.2505    -0.3818 C.ar    
   6 C6            -1.2277     1.9877    -0.3944 C.ar    
   7 C7             1.2512     2.1182    -0.2119 C.2     
   8 O8             1.2238     3.3181    -0.4055 O.2     
   9 N9             2.4292     1.4944    -0.0131 N.am    
  10 C10            3.6280     2.2093    -0.1264 C.ar    
  11 C11           -3.7088     1.9276    -0.5995 C.ar    
  12 N12           -3.7424     3.2208    -0.9110 N.ar    
  13 C13           -4.8991     3.8220    -1.1049 C.ar    
  14 C14           -6.0876     3.1035    -0.9832 C.ar    
  15 N15           -6.0550     1.8135    -0.6726 N.ar    
  16 C16           -4.8961     1.2087    -0.4837 C.ar    
  17 C17            3.6886     3.5338     0.2864 C.ar    
  18 C18            4.8711     4.2380     0.1748 C.ar    
  19 C19            5.9983     3.6227    -0.3500 C.ar    
  20 C20            5.9384     2.2998    -0.7631 C.ar    
  21 C21            4.7582     1.5924    -0.6464 C.ar    
  22 O22            7.1623     4.3169    -0.4600 O.3     
  23 C23            8.2832     3.6212    -1.0092 C.3     
  24 F24            7.9769     3.1930    -2.3054 F       
  25 F25            9.3890     4.4771    -1.0499 F       
  26 F26            8.5809     2.5122    -0.2099 F       
  27 N27           -7.3069     3.7393    -1.1818 N.pl3   
  28 H28            0.9654    -0.5354     0.1862 H       
  29 H29           -1.1265    -1.8247     0.2161 H       
  30 H30           -3.2804    -0.6979    -0.1440 H       
  31 H31           -1.2561     3.0534    -0.5670 H       
  32 H32            2.4467     0.5502     0.2085 H       
  33 H33           -4.9263     4.8716    -1.3577 H       
  34 H34           -4.8694     0.1580    -0.2353 H       
  35 H35            2.8110     4.0131     0.6944 H       
  36 H36            4.9184     5.2680     0.4959 H       
  37 H37            6.8162     1.8217    -1.1722 H       
  38 H38            4.7117     0.5625    -0.9681 H       
  39 H39           -8.1341     3.2404    -1.0934 H       
  40 H40           -7.3310     4.6820    -1.4089 H       
  41 O41           14.3890    11.2349     5.7006 O.3     
  42 H42           14.4021    10.2680     5.6953 H       
  43 H43           15.2670    11.6402     5.6944 H       
@<TRIPOS>BOND
   1    1    2 ar
   2    1    7 1
   3    1    6 ar
   4    2    3 ar
   5    2   28 1
   6    3    4 ar
   7    3   29 1
   8    4    5 ar
   9    4   30 1
  10    5    6 ar
  11    5   11 1
  12    6   31 1
  13    7    8 2
  14    7    9 am
  15    9   10 1
  16    9   32 1
  17   10   17 ar
  18   10   21 ar
  19   11   12 ar
  20   11   16 ar
  21   12   13 ar
  22   13   14 ar
  23   13   33 1
  24   14   15 ar
  25   14   27 1
  26   15   16 ar
  27   16   34 1
  28   17   18 ar
  29   17   35 1
  30   18   19 ar
  31   18   36 1
  32   19   20 ar
  33   19   22 1
  34   20   21 ar
  35   20   37 1
  36   21   38 1
  37   22   23 1
  38   23   24 1
  39   23   25 1
  40   23   26 1
  41   27   39 1
  42   27   40 1
  43   41   42 1
  44   41   43 1

#	End of record

