#	Name: ASD02030651
#	Creating user name:	WinNT
#	Creation time:	15. 06. 2019 20:15

#	Modifying user name:	WinNT
#	Modification time:	15. 06. 2019 20:15

#	Program:	/corina/corina34_cracker 3.40 0067  02.08.2006

@<TRIPOS>MOLECULE
ASD02030651
  70   73    0    0    0
SMALL
NO_CHARGES


@<TRIPOS>ATOM
   1 C1             1.1789     2.1268    -0.8122 C.ar    
   2 C2             1.1144     0.8179    -0.3842 C.ar    
   3 C3             2.2800     0.0730    -0.2748 C.ar    
   4 C4             3.4965     0.6526    -0.5907 C.ar    
   5 C5             3.5599     1.9734    -1.0155 C.ar    
   6 C6             2.3996     2.7057    -1.1341 C.ar    
   7 C7             2.3934     4.1331    -1.6211 C.3     
   8 C8             4.9208     2.5453    -1.3141 C.3     
   9 C9             4.8083     3.7788    -2.2085 C.3     
  10 N10            3.7650     4.6521    -1.6481 N.am    
  11 C11            1.8007     4.1876    -3.0306 C.3     
  12 O12            2.5209     3.2967    -3.8849 O.3     
  13 C13            2.1183     3.2246    -5.1818 C.ar    
  14 C14            4.0586     5.8804    -1.1776 C.2     
  15 O15            5.2123     6.2625    -1.1542 O.2     
  16 C16            2.9776     6.7632    -0.6899 C.ar    
  17 C17            1.2984     3.0774    -7.8218 C.ar    
  18 C18            0.6471     3.9268    -6.9397 C.ar    
  19 C19            1.0560     4.0000    -5.6223 C.ar    
  20 C20            2.7736     2.3799    -6.0654 C.ar    
  21 C21            2.3646     2.3066    -7.3827 C.ar    
  22 C22            3.1769     7.5563     0.4410 C.ar    
  23 C23            1.7550     6.8113    -1.3619 C.ar    
  24 C24            0.7505     7.6370    -0.9016 C.ar    
  25 C25            0.9527     8.4166     0.2236 C.ar    
  26 C26            2.1639     8.3779     0.8909 C.ar    
  27 O27            0.8958     3.0053    -9.1186 O.3     
  28 C28           -0.2222     3.8110    -9.4966 C.3     
  29 O29            2.2274    -1.2197     0.1411 O.3     
  30 C30            0.9559    -1.7123     0.5686 C.3     
  31 C31            0.1608    -2.1940    -0.6465 C.3     
  32 C32            1.1605    -2.8776     1.5388 C.3     
  33 C33            0.2530     5.2337    -9.7981 C.3     
  34 C34            2.3773     9.2351     2.1119 C.3     
  35 C35           -0.8797     3.2178   -10.7443 C.3     
  36 F36            2.8953    10.4760     1.7258 F       
  37 F37            1.1565     9.4233     2.7687 F       
  38 F38            3.2782     8.6017     2.9746 F       
  39 H39            0.2717     2.7059    -0.9021 H       
  40 H40            0.1616     0.3747    -0.1351 H       
  41 H41            4.4040     0.0731    -0.5058 H       
  42 H42            1.7881     4.7426    -0.9501 H       
  43 H43            5.4057     2.8240    -0.3785 H       
  44 H44            5.5240     1.7905    -1.8186 H       
  45 H45            5.7610     4.3080    -2.2284 H       
  46 H46            4.5320     3.4775    -3.2190 H       
  47 H47            0.7527     3.8898    -2.9959 H       
  48 H48            1.8771     5.2036    -3.4179 H       
  49 H49           -0.1831     4.5270    -7.2815 H       
  50 H50            0.5484     4.6608    -4.9352 H       
  51 H51            3.6038     1.7797    -5.7235 H       
  52 H52            2.8718     1.6452    -8.0696 H       
  53 H53            4.1219     7.5268     0.9630 H       
  54 H54            1.5960     6.2036    -2.2405 H       
  55 H55           -0.1958     7.6754    -1.4208 H       
  56 H56            0.1630     9.0617     0.5797 H       
  57 H57           -0.9453     3.8346    -8.6813 H       
  58 H58            0.4069    -0.9148     1.0693 H       
  59 H59            0.0151    -1.3639    -1.3377 H       
  60 H60            0.7098    -2.9915    -1.1472 H       
  61 H61           -0.8090    -2.5698    -0.3205 H       
  62 H62            1.7269    -2.5345     2.4045 H       
  63 H63            0.1906    -3.2534     1.8649 H       
  64 H64            1.7095    -3.6751     1.0382 H       
  65 H65            0.7214     5.6563    -8.9092 H       
  66 H66            0.9760     5.2101   -10.6135 H       
  67 H67           -0.5998     5.8482   -10.0864 H       
  68 H68           -1.2183     2.2042   -10.5295 H       
  69 H69           -1.7326     3.8323   -11.0326 H       
  70 H70           -0.1567     3.1942   -11.5596 H       
@<TRIPOS>BOND
   1    1    2 ar
   2    1    6 ar
   3    1   39 1
   4    2    3 ar
   5    2   40 1
   6    3    4 ar
   7    3   29 1
   8    4    5 ar
   9    4   41 1
  10    5    6 ar
  11    5    8 1
  12    6    7 1
  13    7   10 1
  14    7   11 1
  15    7   42 1
  16    8    9 1
  17    8   43 1
  18    8   44 1
  19    9   10 1
  20    9   45 1
  21    9   46 1
  22   10   14 am
  23   11   12 1
  24   11   47 1
  25   11   48 1
  26   12   13 1
  27   13   20 ar
  28   13   19 ar
  29   14   15 2
  30   14   16 1
  31   16   23 ar
  32   16   22 ar
  33   17   18 ar
  34   17   21 ar
  35   17   27 1
  36   18   19 ar
  37   18   49 1
  38   19   50 1
  39   20   21 ar
  40   20   51 1
  41   21   52 1
  42   22   26 ar
  43   22   53 1
  44   23   24 ar
  45   23   54 1
  46   24   25 ar
  47   24   55 1
  48   25   26 ar
  49   25   56 1
  50   26   34 1
  51   27   28 1
  52   28   33 1
  53   28   35 1
  54   28   57 1
  55   29   30 1
  56   30   31 1
  57   30   32 1
  58   30   58 1
  59   31   59 1
  60   31   60 1
  61   31   61 1
  62   32   62 1
  63   32   63 1
  64   32   64 1
  65   33   65 1
  66   33   66 1
  67   33   67 1
  68   34   36 1
  69   34   37 1
  70   34   38 1
  71   35   68 1
  72   35   69 1
  73   35   70 1

#	End of record

