#	Name: ASD01916662
#	Creating user name:	WinNT
#	Creation time:	15. 06. 2019 20:07

#	Modifying user name:	WinNT
#	Modification time:	15. 06. 2019 20:07

#	Program:	/corina/corina34_cracker 3.40 0067  02.08.2006

@<TRIPOS>MOLECULE
ASD01916662
  45   48    0    0    0
SMALL
NO_CHARGES


@<TRIPOS>ATOM
   1 C1            -0.0029     1.5203     0.0959 C.ar    
   2 C2            -0.0070     0.1052     0.0415 C.ar    
   3 C3            -1.2061    -0.6008     0.1303 C.ar    
   4 C4            -2.3868     0.0756     0.2302 C.ar    
   5 C5            -2.4062     1.4789     0.2361 C.ar    
   6 C6            -1.2181     2.2023     0.1744 C.ar    
   7 N7             1.1732     2.1814     0.1004 N.2     
   8 C8             2.3119     1.5368    -0.0130 C.2     
   9 N9             2.3504     0.2136    -0.3618 N.am    
  10 C10            1.2814    -0.5823    -0.1506 C.2     
  11 C11           -3.6573     2.1720     0.3061 C.1     
  12 O12            1.3761    -1.7957    -0.1211 O.2     
  13 C13           -4.6830     2.7402     0.3635 C.1     
  14 C14           -5.9341     3.4333     0.4334 C.ar    
  15 N15           -5.9528     4.7627     0.4391 N.ar    
  16 C16           -7.0826     5.4363     0.5020 C.ar    
  17 C17           -8.2989     4.7805     0.5650 C.ar    
  18 C18           -8.3266     3.3924     0.5616 C.ar    
  19 C19           -7.1269     2.7077     0.4895 C.ar    
  20 C20            3.5587     2.2055     0.4156 C.2     
  21 C21            4.5459     1.4985     0.8669 C.2     
  22 C22            4.4943     0.0254     1.1208 C.3     
  23 C23            4.6324    -0.7707    -0.1888 C.3     
  24 C24            3.5054    -0.2628    -1.1178 C.3     
  25 C25            5.6346    -0.3608     2.0649 C.3     
  26 C26            3.1588    -0.3231     1.7810 C.3     
  27 H27           -1.2003    -1.6807     0.1197 H       
  28 H28           -3.3140    -0.4732     0.3049 H       
  29 H29           -1.2367     3.2820     0.1869 H       
  30 H30           -7.0592     6.5160     0.5049 H       
  31 H31           -9.2191     5.3434     0.6166 H       
  32 H32           -9.2644     2.8590     0.6101 H       
  33 H33           -7.1120     1.6278     0.4848 H       
  34 H34            3.6464     3.2801     0.3524 H       
  35 H35            5.4741     2.0101     1.0746 H       
  36 H36            5.6058    -0.5822    -0.6416 H       
  37 H37            4.5073    -1.8360     0.0048 H       
  38 H38            3.1908    -1.0761    -1.7717 H       
  39 H39            3.8901     0.5536    -1.7290 H       
  40 H40            5.5248     0.1773     3.0065 H       
  41 H41            5.6023    -1.4339     2.2538 H       
  42 H42            6.5891    -0.1011     1.6072 H       
  43 H43            2.4064     0.4088     1.4873 H       
  44 H44            2.8437    -1.3164     1.4612 H       
  45 H45            3.2749    -0.3102     2.8647 H       
@<TRIPOS>BOND
   1    1    2 ar
   2    1    7 1
   3    1    6 ar
   4    2    3 ar
   5    2   10 1
   6    3    4 ar
   7    3   27 1
   8    4    5 ar
   9    4   28 1
  10    5    6 ar
  11    5   11 1
  12    6   29 1
  13    7    8 2
  14    8    9 1
  15    8   20 1
  16    9   10 am
  17    9   24 1
  18   10   12 2
  19   11   13 3
  20   13   14 1
  21   14   15 ar
  22   14   19 ar
  23   15   16 ar
  24   16   17 ar
  25   16   30 1
  26   17   18 ar
  27   17   31 1
  28   18   19 ar
  29   18   32 1
  30   19   33 1
  31   20   21 2
  32   20   34 1
  33   21   22 1
  34   21   35 1
  35   22   23 1
  36   22   25 1
  37   22   26 1
  38   23   24 1
  39   23   36 1
  40   23   37 1
  41   24   38 1
  42   24   39 1
  43   25   40 1
  44   25   41 1
  45   25   42 1
  46   26   43 1
  47   26   44 1
  48   26   45 1

#	End of record

