#	Name: ASD00960282
#	Creating user name:	WinNT
#	Creation time:	15. 06. 2019 18:53

#	Modifying user name:	WinNT
#	Modification time:	15. 06. 2019 18:53

#	Program:	/corina/corina34_cracker 3.40 0067  02.08.2006

@<TRIPOS>MOLECULE
ASD00960282
  36   38    0    0    0
SMALL
NO_CHARGES


@<TRIPOS>ATOM
   1 C1            -0.0167     1.3835     0.0096 C.2     
   2 C2             0.0021    -0.0041     0.0020 C.2     
   3 N3             1.2786     1.8141    -0.0004 N.pl3   
   4 C4             2.1027     0.7181    -0.0003 C.2     
   5 C5             1.3486    -0.3998    -0.0058 C.2     
   6 N6             1.7977     3.1174     0.0039 N.2     
   7 C7             3.0655     3.2776    -0.2325 C.2     
   8 N8             3.8933     2.2157    -0.5254 N.pl3   
   9 C9             3.6065     0.8751     0.0166 C.3     
  10 N10            4.1084     0.7705     1.3932 N.3     
  11 N11            1.8255    -1.7236    -0.0173 N.pl3   
  12 C12           -1.2088     2.2313     0.0201 C.2     
  13 O13           -2.3150     1.7252     0.0233 O.2     
  14 O14           -1.0814     3.5745     0.0263 O.3     
  15 C15           -2.2877     4.3405     0.0364 C.3     
  16 C16           -1.9500     5.8092     0.0421 C.ar    
  17 C17           -1.8013     6.4889    -1.1524 C.ar    
  18 C18           -1.4915     7.8360    -1.1471 C.ar    
  19 C19           -1.3309     8.5036     0.0526 C.ar    
  20 C20           -1.4804     7.8242     1.2471 C.ar    
  21 C21           -1.7945     6.4780     1.2419 C.ar    
  22 H22           -0.8582    -0.6570     0.0024 H       
  23 H23            3.4828     4.2732    -0.1987 H       
  24 H24            4.6694     2.3513    -1.0912 H       
  25 H25            4.0687     0.1121    -0.6098 H       
  26 H26            5.1056     0.9210     1.4269 H       
  27 H27            3.6251     1.4119     2.0041 H       
  28 H28            2.7802    -1.8951    -0.0220 H       
  29 H29            1.1996    -2.4646    -0.0204 H       
  30 H30           -2.8744     4.1061    -0.8517 H       
  31 H31           -2.8652     4.0970     0.9282 H       
  32 H32           -1.9268     5.9673    -2.0897 H       
  33 H33           -1.3747     8.3669    -2.0803 H       
  34 H34           -1.0881     9.5560     0.0567 H       
  35 H35           -1.3546     8.3457     2.1845 H       
  36 H36           -1.9150     5.9480     2.1752 H       
@<TRIPOS>BOND
   1    1    2 2
   2    1    3 1
   3    1   12 1
   4    2    5 1
   5    2   22 1
   6    3    4 1
   7    3    6 1
   8    4    5 2
   9    4    9 1
  10    5   11 1
  11    6    7 2
  12    7    8 1
  13    7   23 1
  14    8    9 1
  15    8   24 1
  16    9   10 1
  17    9   25 1
  18   10   26 1
  19   10   27 1
  20   11   28 1
  21   11   29 1
  22   12   13 2
  23   12   14 1
  24   14   15 1
  25   15   16 1
  26   15   30 1
  27   15   31 1
  28   16   17 ar
  29   16   21 ar
  30   17   18 ar
  31   17   32 1
  32   18   19 ar
  33   18   33 1
  34   19   20 ar
  35   19   34 1
  36   20   21 ar
  37   20   35 1
  38   21   36 1

#	End of record

