#	Name: ASD01816702
#	Creating user name:	WinNT
#	Creation time:	15. 06. 2019 19:35

#	Modifying user name:	WinNT
#	Modification time:	15. 06. 2019 19:35

#	Program:	/corina/corina34_cracker 3.40 0067  02.08.2006

@<TRIPOS>MOLECULE
ASD01816702
  72   76    0    0    0
SMALL
NO_CHARGES


@<TRIPOS>ATOM
   1 C1            -0.0167     1.3961     0.0118 C.2     
   2 C2             0.0025    -0.0052    -0.0046 C.2     
   3 C3             1.1989    -0.6602    -0.0251 C.2     
   4 C4             2.3922     0.0815    -0.0294 C.2     
   5 N5             2.3439     1.4491    -0.0127 N.am    
   6 C6             1.1420     2.0928     0.0073 C.2     
   7 C7             3.6230    -0.5887    -0.0504 C.2     
   8 C8             4.7879     0.1231    -0.0548 C.2     
   9 C9             4.7340     1.5284    -0.0381 C.2     
  10 C10            3.4812     2.1731    -0.0168 C.2     
  11 C11            3.6605    -2.0951    -0.0676 C.3     
  12 O12            3.4256     3.3914    -0.0022 O.2     
  13 C13            5.9710     2.3159    -0.0418 C.2     
  14 N14            7.1647     1.6963     0.0459 N.am    
  15 O15            5.9198     3.5292    -0.1240 O.2     
  16 N16            3.7782    -2.5662    -1.4541 N.3     
  17 C17            4.0550    -4.0076    -1.4984 C.3     
  18 C18            4.3149    -4.4343    -2.9449 C.3     
  19 C19            3.0863    -4.1051    -3.7975 C.3     
  20 C20            2.7908    -2.6061    -3.6955 C.3     
  21 C21            2.5751    -2.2325    -2.2272 C.3     
  22 C22            3.3587    -4.4680    -5.2346 C.ar    
  23 N23            4.5968    -4.6995    -5.6248 N.ar    
  24 C24            1.9279    -4.8694    -3.3069 C.1     
  25 N25            1.0339    -5.4592    -2.9283 N.1     
  26 C26            4.8824    -5.0200    -6.8718 C.ar    
  27 C27            3.8838    -5.1247    -7.8212 C.ar    
  28 C28            2.5693    -4.8884    -7.4482 C.ar    
  29 C29            2.3072    -4.5598    -6.1271 C.ar    
  30 C30            8.4025     2.4710    -0.0711 C.3     
  31 C31            9.5344     1.7359     0.6499 C.3     
  32 C32           10.7032     2.6969     0.8764 C.3     
  33 C33           10.1696     4.0424     1.3717 C.3     
  34 C34           10.4135     5.1120     0.3052 C.3     
  35 C35            9.3975     4.9435    -0.8264 C.3     
  36 C36            9.7988     3.7526    -1.6989 C.3     
  37 C37            8.7624     2.6373    -1.5490 C.3     
  38 H38           -0.9604     1.9212     0.0236 H       
  39 H39           -0.9228    -0.5622    -0.0007 H       
  40 H40            1.2286    -1.7397    -0.0376 H       
  41 H41            1.1153     3.1723     0.0203 H       
  42 H42            5.7398    -0.3870    -0.0706 H       
  43 H43            4.5175    -2.4438     0.5086 H       
  44 H44            2.7432    -2.4864     0.3724 H       
  45 H45            7.2041     0.7373     0.1865 H       
  46 H46            4.9333    -4.2276    -0.8915 H       
  47 H47            3.1971    -4.5544    -1.1070 H       
  48 H48            5.1811    -3.8980    -3.3325 H       
  49 H49            4.5049    -5.5070    -2.9794 H       
  50 H50            3.6330    -2.0411    -4.0948 H       
  51 H51            1.8919    -2.3728    -4.2662 H       
  52 H52            1.7242    -2.7876    -1.8324 H       
  53 H53            2.3786    -1.1632    -2.1496 H       
  54 H54            5.9087    -5.2025    -7.1543 H       
  55 H55            4.1241    -5.3868    -8.8410 H       
  56 H56            1.7683    -4.9625    -8.1688 H       
  57 H57            1.2953    -4.3695    -5.8013 H       
  58 H58            8.2609     3.4527     0.3810 H       
  59 H59            9.1747     1.3683     1.6109 H       
  60 H60            9.8677     0.8955     0.0410 H       
  61 H61           11.3790     2.2775     1.6218 H       
  62 H62           11.2409     2.8420    -0.0605 H       
  63 H63            9.1001     3.9600     1.5656 H       
  64 H64           10.6849     4.3216     2.2907 H       
  65 H65           10.3016     6.1009     0.7499 H       
  66 H66           11.4224     5.0046    -0.0932 H       
  67 H67            8.4085     4.7672    -0.4035 H       
  68 H68            9.3769     5.8483    -1.4339 H       
  69 H69            9.8468     4.0662    -2.7417 H       
  70 H70           10.7758     3.3852    -1.3849 H       
  71 H71            9.1760     1.7034    -1.9295 H       
  72 H72            7.8668     2.8951    -2.1143 H       
@<TRIPOS>BOND
   1    1    2 1
   2    1    6 2
   3    1   38 1
   4    2    3 2
   5    2   39 1
   6    3    4 1
   7    3   40 1
   8    4    5 1
   9    4    7 2
  10    5    6 1
  11    5   10 am
  12    6   41 1
  13    7    8 1
  14    7   11 1
  15    8    9 2
  16    8   42 1
  17    9   10 1
  18    9   13 1
  19   10   12 2
  20   11   16 1
  21   11   43 1
  22   11   44 1
  23   13   14 am
  24   13   15 2
  25   14   30 1
  26   14   45 1
  27   16   17 1
  28   16   21 1
  29   17   18 1
  30   17   46 1
  31   17   47 1
  32   18   19 1
  33   18   48 1
  34   18   49 1
  35   19   20 1
  36   19   22 1
  37   19   24 1
  38   20   21 1
  39   20   50 1
  40   20   51 1
  41   21   52 1
  42   21   53 1
  43   22   23 ar
  44   22   29 ar
  45   23   26 ar
  46   24   25 3
  47   26   27 ar
  48   26   54 1
  49   27   28 ar
  50   27   55 1
  51   28   29 ar
  52   28   56 1
  53   29   57 1
  54   30   31 1
  55   30   37 1
  56   30   58 1
  57   31   32 1
  58   31   59 1
  59   31   60 1
  60   32   33 1
  61   32   61 1
  62   32   62 1
  63   33   34 1
  64   33   63 1
  65   33   64 1
  66   34   35 1
  67   34   65 1
  68   34   66 1
  69   35   36 1
  70   35   67 1
  71   35   68 1
  72   36   37 1
  73   36   69 1
  74   36   70 1
  75   37   71 1
  76   37   72 1

#	End of record

