#	Name: ASD07000006
#	Creating user name:	WinNT
#	Creation time:	15. 06. 2019 21:08

#	Modifying user name:	WinNT
#	Modification time:	15. 06. 2019 21:08

#	Program:	/corina/corina34_cracker 3.40 0067  02.08.2006

@<TRIPOS>MOLECULE
ASD07000006
  39   41    0    0    0
SMALL
NO_CHARGES


@<TRIPOS>ATOM
   1 C1            -0.0171     1.4093     0.0098 C.ar    
   2 C2             0.0021    -0.0041     0.0020 C.ar    
   3 S3             1.5131    -0.7190    -0.0168 S.o     
   4 C4             2.7573     0.3975    -0.0229 C.2     
   5 C5             2.3724     1.7575    -0.0119 C.2     
   6 N6             1.0976     2.1329     0.0030 N.2     
   7 C7             4.0555     0.0228    -0.0372 C.2     
   8 C8             5.0549     1.0018    -0.0412 C.2     
   9 C9             4.7024     2.3516    -0.0306 C.2     
  10 C10            3.3948     2.7335    -0.0166 C.2     
  11 C11           -1.1352    -0.7337     0.0103 C.ar    
  12 C12           -2.3724    -0.0807     0.0271 C.ar    
  13 C13           -2.4196     1.3136     0.0351 C.ar    
  14 C14           -1.2754     2.0528     0.0313 C.ar    
  15 N15            6.3951     0.6308    -0.0554 N.pl3   
  16 C16            6.7624    -0.7874    -0.0661 C.3     
  17 C17            7.4396     1.6580    -0.0596 C.3     
  18 N18           -3.5510    -0.8188     0.0354 N.pl3   
  19 C19           -3.4984    -2.2828     0.0265 C.3     
  20 C20           -4.8451    -0.1324     0.0530 C.3     
  21 H21            1.6040    -1.2666     1.2083 H       
  22 H22            4.3196    -1.0244    -0.0450 H       
  23 H23            5.4769     3.1043    -0.0334 H       
  24 H24            3.1392     3.7828    -0.0089 H       
  25 H25           -1.0895    -1.8127     0.0037 H       
  26 H26           -3.3767     1.8139     0.0481 H       
  27 H27           -1.3297     3.1314     0.0381 H       
  28 H28            6.3480    -1.2634    -0.9548 H       
  29 H29            7.8483    -0.8814    -0.0765 H       
  30 H30            6.3643    -1.2726     0.8251 H       
  31 H31            7.7080     1.9075     0.9670 H       
  32 H32            8.3179     1.2810    -0.5834 H       
  33 H33            7.0699     2.5500    -0.5655 H       
  34 H34           -3.4745    -2.6518     1.0519 H       
  35 H35           -4.3802    -2.6750    -0.4803 H       
  36 H36           -2.6015    -2.6110    -0.4987 H       
  37 H37           -5.1769     0.0437    -0.9703 H       
  38 H38           -5.5776    -0.7513     0.5711 H       
  39 H39           -4.7436     0.8212     0.5712 H       
@<TRIPOS>BOND
   1    1    2 ar
   2    1    6 1
   3    1   14 ar
   4    2    3 1
   5    2   11 ar
   6    3    4 2
   7    3   21 1
   8    4    5 1
   9    4    7 1
  10    5    6 2
  11    5   10 1
  12    7    8 2
  13    7   22 1
  14    8    9 1
  15    8   15 1
  16    9   10 2
  17    9   23 1
  18   10   24 1
  19   11   12 ar
  20   11   25 1
  21   12   13 ar
  22   12   18 1
  23   13   14 ar
  24   13   26 1
  25   14   27 1
  26   15   16 1
  27   15   17 1
  28   16   28 1
  29   16   29 1
  30   16   30 1
  31   17   31 1
  32   17   32 1
  33   17   33 1
  34   18   19 1
  35   18   20 1
  36   19   34 1
  37   19   35 1
  38   19   36 1
  39   20   37 1
  40   20   38 1
  41   20   39 1

#	End of record

