#	Name: ASD01884906
#	Creating user name:	WinNT
#	Creation time:	15. 06. 2019 19:49

#	Modifying user name:	WinNT
#	Modification time:	15. 06. 2019 19:49

#	Program:	/corina/corina34_cracker 3.40 0067  02.08.2006

@<TRIPOS>MOLECULE
ASD01884906
  50   54    0    0    0
SMALL
NO_CHARGES


@<TRIPOS>ATOM
   1 C1            -0.0167     1.3768     0.0096 C.ar    
   2 C2             0.0021    -0.0041     0.0020 C.ar    
   3 C3             1.2196    -0.6850    -0.0132 C.ar    
   4 C4             2.4162     0.0307    -0.0289 C.ar    
   5 C5             2.3840     1.4155    -0.0295 C.ar    
   6 C6             1.1721     2.0809     0.0020 C.ar    
   7 C7             1.2412    -2.1664    -0.0122 C.2     
   8 C8             0.7330    -2.8717    -1.0868 C.2     
   9 C9             1.7886    -2.8727     1.0884 C.2     
  10 C10            1.8088    -4.2173     1.0896 C.2     
  11 N11            1.3039    -4.9266     0.0338 N.pl3   
  12 C12            0.7671    -4.2783    -1.0575 C.2     
  13 Cl13           0.0621    -2.0349    -2.4519 Cl      
  14 C14            1.1929    -6.2577    -0.2344 C.2     
  15 N15            0.6208    -6.3753    -1.4096 N.2     
  16 N16            0.3675    -5.2137    -1.9014 N.2     
  17 O17            1.5998    -7.2750     0.5663 O.3     
  18 O18            3.5446     2.1259    -0.0876 O.3     
  19 C19            3.7716     2.8300    -1.3143 C.3     
  20 C20            3.1008     4.1864    -1.2879 C.3     
  21 N21            1.6431     4.1169    -1.2299 N.3     
  22 C22            1.1551     3.5963     0.0520 C.3     
  23 C23            1.0738     5.3526    -1.5149 C.ar    
  24 N24            0.2455     5.9096    -0.6451 N.ar    
  25 C25           -0.3162     7.0811    -0.8770 C.ar    
  26 C26           -0.0578     7.7715    -2.0439 C.ar    
  27 C27            0.8056     7.2218    -2.9826 C.ar    
  28 C28            1.3839     5.9957    -2.7092 C.ar    
  29 C29            1.3852    -8.6038     0.0865 C.3     
  30 C30            1.9044    -9.6083     1.1172 C.3     
  31 H31           -0.9585     1.9052     0.0169 H       
  32 H32           -0.9258    -0.5568     0.0082 H       
  33 H33            3.3617    -0.4911    -0.0403 H       
  34 H34            2.1916    -2.3284     1.9296 H       
  35 H35            2.2289    -4.7438     1.9338 H       
  36 H36            4.8439     2.9629    -1.4584 H       
  37 H37            3.3689     2.2468    -2.1424 H       
  38 H38            3.4587     4.7354    -0.4169 H       
  39 H39            3.3884     4.7351    -2.1847 H       
  40 H40            0.1368     3.9449     0.2241 H       
  41 H41            1.8029     3.9426     0.8574 H       
  42 H42           -0.9870     7.5050    -0.1443 H       
  43 H43           -0.5227     8.7293    -2.2253 H       
  44 H44            1.0237     7.7421    -3.9036 H       
  45 H45            2.0603     5.5395    -3.4168 H       
  46 H46            0.3190    -8.7649    -0.0727 H       
  47 H47            1.9179    -8.7407    -0.8546 H       
  48 H48            2.9706    -9.4472     1.2765 H       
  49 H49            1.3717    -9.4713     2.0583 H       
  50 H50            1.7407   -10.6219     0.7512 H       
@<TRIPOS>BOND
   1    1    2 ar
   2    1    6 ar
   3    1   31 1
   4    2    3 ar
   5    2   32 1
   6    3    4 ar
   7    3    7 1
   8    4    5 ar
   9    4   33 1
  10    5    6 ar
  11    5   18 1
  12    6   22 1
  13    7    8 2
  14    7    9 1
  15    8   13 1
  16    8   12 1
  17    9   10 2
  18    9   34 1
  19   10   11 1
  20   10   35 1
  21   11   12 1
  22   11   14 1
  23   12   16 2
  24   14   15 2
  25   14   17 1
  26   15   16 1
  27   17   29 1
  28   18   19 1
  29   19   20 1
  30   19   36 1
  31   19   37 1
  32   20   21 1
  33   20   38 1
  34   20   39 1
  35   21   22 1
  36   21   23 1
  37   22   40 1
  38   22   41 1
  39   23   24 ar
  40   23   28 ar
  41   24   25 ar
  42   25   26 ar
  43   25   42 1
  44   26   27 ar
  45   26   43 1
  46   27   28 ar
  47   27   44 1
  48   28   45 1
  49   29   30 1
  50   29   46 1
  51   29   47 1
  52   30   48 1
  53   30   49 1
  54   30   50 1

#	End of record

