#	Name: ASD01028823
#	Creating user name:	WinNT
#	Creation time:	15. 06. 2019 18:58

#	Modifying user name:	WinNT
#	Modification time:	15. 06. 2019 18:58

#	Program:	/corina/corina34_cracker 3.40 0067  02.08.2006

@<TRIPOS>MOLECULE
ASD01028823
  36   39    0    0    0
SMALL
NO_CHARGES


@<TRIPOS>ATOM
   1 N1            -0.0157     1.3060     0.0092 N.ar    
   2 C2             0.0021    -0.0041     0.0020 C.ar    
   3 C3             1.2021    -0.7221    -0.0133 C.ar    
   4 C4             2.3969    -0.0518    -0.0211 C.ar    
   5 C5             2.3684     1.3549    -0.0132 C.ar    
   6 C6             3.5529     2.1090    -0.0204 C.ar    
   7 C7             3.4849     3.4690    -0.0125 C.ar    
   8 C8             2.2549     4.1229     0.0031 C.ar    
   9 C9             1.0873     3.4233     0.0109 C.ar    
  10 C10            1.1159     2.0180     0.0022 C.ar    
  11 O11            1.1831    -2.0810    -0.0200 O.3     
  12 C12           -0.0990    -2.7119    -0.0107 C.3     
  13 C13            4.7568     4.2772    -0.0202 C.3     
  14 C14            5.4047     5.4616    -3.4127 C.2     
  15 C15            5.2132     6.4244    -4.4251 C.2     
  16 C16            4.4261     7.5068    -4.1727 C.2     
  17 C17            3.8186     7.6484    -2.9124 C.2     
  18 C18            4.0117     6.7178    -1.9532 C.2     
  19 N19            4.7981     5.6279    -2.1926 N.pl3   
  20 N20            5.9422     3.8047    -2.1850 N.2     
  21 N21            6.0871     4.3297    -3.3509 N.2     
  22 C22            5.1673     4.5542    -1.4435 C.2     
  23 F23            5.8038     6.2750    -5.6310 F       
  24 Cl24           2.8153     9.0275    -2.5878 Cl      
  25 H25           -0.9337    -0.5432     0.0084 H       
  26 H26            3.3343    -0.5880    -0.0325 H       
  27 H27            4.5124     1.6133    -0.0318 H       
  28 H28            2.2273     5.2025     0.0094 H       
  29 H29            0.1424     3.9461     0.0237 H       
  30 H30            0.0286    -3.7944    -0.0174 H       
  31 H31           -0.6432    -2.4158     0.8861 H       
  32 H32           -0.6605    -2.4068    -0.8937 H       
  33 H33            4.5911     5.2205     0.5002 H       
  34 H34            5.5456     3.7182     0.4832 H       
  35 H35            4.2695     8.2535    -4.9371 H       
  36 H36            3.5404     6.8370    -0.9888 H       
@<TRIPOS>BOND
   1    1    2 ar
   2    1   10 ar
   3    2    3 ar
   4    2   25 1
   5    3    4 ar
   6    3   11 1
   7    4    5 ar
   8    4   26 1
   9    5    6 ar
  10    5   10 ar
  11    6    7 ar
  12    6   27 1
  13    7    8 ar
  14    7   13 1
  15    8    9 ar
  16    8   28 1
  17    9   10 ar
  18    9   29 1
  19   11   12 1
  20   12   30 1
  21   12   31 1
  22   12   32 1
  23   13   22 1
  24   13   33 1
  25   13   34 1
  26   14   15 1
  27   14   19 1
  28   14   21 2
  29   15   16 2
  30   15   23 1
  31   16   17 1
  32   16   35 1
  33   17   18 2
  34   17   24 1
  35   18   19 1
  36   18   36 1
  37   19   22 1
  38   20   21 1
  39   20   22 2

#	End of record

