#	Name: ASD01914882
#	Creating user name:	WinNT
#	Creation time:	15. 06. 2019 20:04

#	Modifying user name:	WinNT
#	Modification time:	15. 06. 2019 20:04

#	Program:	/corina/corina34_cracker 3.40 0067  02.08.2006

@<TRIPOS>MOLECULE
ASD01914882
  45   47    0    0    0
SMALL
NO_CHARGES


@<TRIPOS>ATOM
   1 C1            -0.0168     1.3897     0.0097 C.ar    
   2 C2             0.0021    -0.0041     0.0020 C.ar    
   3 C3             1.2345    -0.6632    -0.0133 C.ar    
   4 C4             2.3882     0.1021    -0.0202 C.ar    
   5 C5             2.2854     1.4810    -0.0118 C.ar    
   6 N6             1.1077     2.0753     0.0026 N.ar    
   7 N7            -2.7975    -2.3167    -0.3481 N.pl3   
   8 N8            -1.4800    -1.9179    -0.6025 N.2     
   9 C9            -1.2647    -0.7749     0.0104 C.2     
  10 C10           -2.4606    -0.4109     0.6823 C.2     
  11 C11           -3.3814    -1.3880     0.4360 C.2     
  12 C12           -2.6638     0.7650     1.4739 C.1     
  13 C13           -2.8304     1.7291     2.1228 C.1     
  14 C14           -3.0392     2.9378     2.9365 C.3     
  15 C15           -4.4693     2.9458     3.4801 C.3     
  16 C16           -4.6864     4.2022     4.3259 C.3     
  17 C17           -6.1166     4.2103     4.8695 C.3     
  18 C18           -6.2961     5.3997     5.8150 C.3     
  19 C19           -7.7263     5.4077     6.3586 C.3     
  20 C20           -8.7133     5.5272     5.1956 C.3     
  21 C21           -8.5337     4.3377     4.2501 C.3     
  22 C22           -7.1036     4.3297     3.7065 C.3     
  23 H23           -0.9621     1.9120     0.0170 H       
  24 H24            1.2855    -1.7419    -0.0192 H       
  25 H25            3.3581    -0.3729    -0.0316 H       
  26 H26            3.1835     2.0809    -0.0171 H       
  27 H27           -3.2203    -3.1230    -0.6829 H       
  28 H28           -4.3965    -1.4130     0.8038 H       
  29 H29           -2.3344     2.9423     3.7680 H       
  30 H30           -2.8798     3.8227     2.3203 H       
  31 H31           -5.1741     2.9413     2.6487 H       
  32 H32           -4.6288     2.0610     4.0964 H       
  33 H33           -3.9816     4.2067     5.1574 H       
  34 H34           -4.5270     5.0871     3.7097 H       
  35 H35           -6.3044     3.2835     5.4117 H       
  36 H36           -5.5930     5.3146     6.6435 H       
  37 H37           -6.1083     6.3264     5.2728 H       
  38 H38           -7.9141     4.4810     6.9008 H       
  39 H39           -7.8542     6.2551     7.0322 H       
  40 H40           -9.7321     5.5329     5.5829 H       
  41 H41           -8.5254     6.4539     4.6534 H       
  42 H42           -8.7215     3.4110     4.7924 H       
  43 H43           -9.2369     4.4228     3.4216 H       
  44 H44           -6.9158     5.2564     3.1643 H       
  45 H45           -6.9756     3.4823     3.0330 H       
@<TRIPOS>BOND
   1    1    2 ar
   2    1    6 ar
   3    1   23 1
   4    2    3 ar
   5    2    9 1
   6    3    4 ar
   7    3   24 1
   8    4    5 ar
   9    4   25 1
  10    5    6 ar
  11    5   26 1
  12    7    8 1
  13    7   11 1
  14    7   27 1
  15    8    9 2
  16    9   10 1
  17   10   11 2
  18   10   12 1
  19   11   28 1
  20   12   13 3
  21   13   14 1
  22   14   15 1
  23   14   29 1
  24   14   30 1
  25   15   16 1
  26   15   31 1
  27   15   32 1
  28   16   17 1
  29   16   33 1
  30   16   34 1
  31   17   18 1
  32   17   22 1
  33   17   35 1
  34   18   19 1
  35   18   36 1
  36   18   37 1
  37   19   20 1
  38   19   38 1
  39   19   39 1
  40   20   21 1
  41   20   40 1
  42   20   41 1
  43   21   22 1
  44   21   42 1
  45   21   43 1
  46   22   44 1
  47   22   45 1

#	End of record

