#	Name: ASD00069090
#	Creating user name:	WinNT
#	Creation time:	15. 06. 2019 18:29

#	Modifying user name:	WinNT
#	Modification time:	15. 06. 2019 18:29

#	Program:	/corina/corina34_cracker 3.40 0067  02.08.2006

@<TRIPOS>MOLECULE
ASD00069090
  60   65    0    0    0
SMALL
NO_CHARGES


@<TRIPOS>ATOM
   1 N1            -0.0179     1.4659     0.0101 N.3     
   2 C2             0.0021    -0.0041     0.0020 C.3     
   3 C3             0.7497    -0.4921    -1.2417 C.3     
   4 O4             2.0659     0.0673    -1.2506 O.3     
   5 C5             2.0838     1.4973    -1.2437 C.3     
   6 C6             1.3496     2.0055    -0.0001 C.3     
   7 C7            -0.7765     1.9758     1.1601 C.3     
   8 C8             1.2488     7.4241     2.5330 C.2     
   9 N9             1.5722     6.1210     2.8039 N.pl3   
  10 C10            0.6550     5.3268     2.1429 C.ar    
  11 C11           -0.2169     6.2053     1.4755 C.ar    
  12 N12            0.1961     7.4662     1.7516 N.2     
  13 C13           -1.2652     5.6837     0.7102 C.ar    
  14 C14           -1.4330     4.3313     0.6177 C.ar    
  15 C15           -0.5725     3.4644     1.2763 C.ar    
  16 C16            0.4678     3.9557     2.0369 C.ar    
  17 N17            3.4320     9.8954     4.1115 N.pl3   
  18 N18            3.0234     8.5870     3.8346 N.2     
  19 C19            1.9720     8.6034     3.0480 C.2     
  20 C20            1.6471    10.0088     2.7744 C.ar    
  21 C21            0.6580    10.6445     2.0217 C.ar    
  22 C22            0.6201    12.0085     1.9644 C.ar    
  23 C23            1.5579    12.7709     2.6485 C.ar    
  24 C24            2.5421    12.1661     3.3968 C.ar    
  25 C25            2.5990    10.7764     3.4694 C.ar    
  26 C26            4.1955    10.0615     6.4300 C.3     
  27 C27            4.5675    10.2672     4.9593 C.3     
  28 O28            5.6927     9.4481     4.6349 O.3     
  29 C29            6.8687     9.7466     5.3900 C.3     
  30 C30            6.5891     9.5200     6.8780 C.3     
  31 C31            5.4068    10.3947     7.3064 C.3     
  32 N32           -0.4297    12.6802     1.1657 N.pl3   
  33 O33           -1.2546    12.0167     0.5633 O.2     
  34 O34           -0.4685    13.8963     1.1108 O.2     
  35 H35            0.5087    -0.3661     0.8967 H       
  36 H36           -1.0202    -0.3818    -0.0162 H       
  37 H37            0.8167    -1.5799    -1.2226 H       
  38 H38            0.2136    -0.1754    -2.1363 H       
  39 H39            3.1155     1.8483    -1.2262 H       
  40 H40            1.5864     1.8718    -2.1384 H       
  41 H41            1.3110     3.0946    -0.0198 H       
  42 H42            1.8778     1.6756     0.8946 H       
  43 H43           -1.8364     1.7643     1.0189 H       
  44 H44           -0.4270     1.4890     2.0706 H       
  45 H45            2.3079     5.8133     3.3561 H       
  46 H46           -1.9410     6.3492     0.1937 H       
  47 H47           -2.2436     3.9325     0.0259 H       
  48 H48            1.1345     3.2763     2.5472 H       
  49 H49           -0.0749    10.0594     1.4861 H       
  50 H50            1.5148    13.8486     2.5924 H       
  51 H51            3.2676    12.7668     3.9253 H       
  52 H52            3.3655    10.7180     6.6910 H       
  53 H53            3.9044     9.0234     6.5904 H       
  54 H54            4.8193    11.3142     4.7910 H       
  55 H55            7.6816     9.0949     5.0695 H       
  56 H56            7.1508    10.7868     5.2274 H       
  57 H57            6.3464     8.4710     7.0474 H       
  58 H58            7.4709     9.7892     7.4594 H       
  59 H59            5.6676    11.4458     7.1836 H       
  60 H60            5.1666    10.1968     8.3510 H       
@<TRIPOS>BOND
   1    1    2 1
   2    1    6 1
   3    1    7 1
   4    2    3 1
   5    2   35 1
   6    2   36 1
   7    3    4 1
   8    3   37 1
   9    3   38 1
  10    4    5 1
  11    5    6 1
  12    5   39 1
  13    5   40 1
  14    6   41 1
  15    6   42 1
  16    7   15 1
  17    7   43 1
  18    7   44 1
  19    8    9 1
  20    8   12 2
  21    8   19 1
  22    9   10 1
  23    9   45 1
  24   10   11 ar
  25   10   16 ar
  26   11   12 1
  27   11   13 ar
  28   13   14 ar
  29   13   46 1
  30   14   15 ar
  31   14   47 1
  32   15   16 ar
  33   16   48 1
  34   17   18 1
  35   17   25 1
  36   17   27 1
  37   18   19 2
  38   19   20 1
  39   20   21 ar
  40   20   25 ar
  41   21   22 ar
  42   21   49 1
  43   22   23 ar
  44   22   32 1
  45   23   24 ar
  46   23   50 1
  47   24   25 ar
  48   24   51 1
  49   26   27 1
  50   26   31 1
  51   26   52 1
  52   26   53 1
  53   27   28 1
  54   27   54 1
  55   28   29 1
  56   29   30 1
  57   29   55 1
  58   29   56 1
  59   30   31 1
  60   30   57 1
  61   30   58 1
  62   31   59 1
  63   31   60 1
  64   32   33 2
  65   32   34 2

#	End of record

