#	Name: ASD03330297
#	Creating user name:	WinNT
#	Creation time:	15. 06. 2019 20:37

#	Modifying user name:	WinNT
#	Modification time:	15. 06. 2019 20:37

#	Program:	/corina/corina34_cracker 3.40 0067  02.08.2006

@<TRIPOS>MOLECULE
ASD03330297
  63   65    0    0    0
SMALL
NO_CHARGES


@<TRIPOS>ATOM
   1 C1             0.0663     1.6852    -0.2330 C.2     
   2 C2             0.1655     0.1854    -0.1245 C.3     
   3 N3             1.1443     2.5122    -0.2588 N.pl3   
   4 N4             1.5537    -0.2028    -0.4325 N.3     
   5 C5             2.5126     0.5961     0.3436 C.3     
   6 C6             2.5290     2.0387    -0.1779 C.3     
   7 C7             0.6820     3.7854    -0.3665 C.2     
   8 N8            -0.6314     3.7510    -0.4029 N.2     
   9 C9            -1.0404     2.4638    -0.3267 C.2     
  10 C10           -2.4367     1.9927    -0.3402 C.2     
  11 O11           -2.6779     0.8032    -0.2626 O.2     
  12 N12           -3.4464     2.8801    -0.4385 N.am    
  13 C13            1.5166     5.0054    -0.4312 C.ar    
  14 C14            2.8724     4.9106    -0.7461 C.ar    
  15 C15            3.6454     6.0520    -0.8047 C.ar    
  16 C16            3.0788     7.2884    -0.5516 C.ar    
  17 C17            1.7351     7.3890    -0.2383 C.ar    
  18 C18            0.9499     6.2558    -0.1830 C.ar    
  19 C19            1.7610    -1.6395    -0.2067 C.3     
  20 C20            3.1718    -2.0276    -0.6537 C.3     
  21 C21            1.5939    -1.9511     1.2819 C.3     
  22 C22           -5.7402     3.5109     0.0404 C.2     
  23 C23           -4.8344     2.4117    -0.4519 C.3     
  24 C24           -5.2290     2.0265    -1.8790 C.3     
  25 C25           -5.0057     3.2202    -2.8097 C.3     
  26 O26           -5.4097     4.6710    -0.0855 O.2     
  27 N27           -6.9176     3.2048     0.6206 N.am    
  28 C28           -7.7486     4.2655     1.1954 C.3     
  29 C29           -4.3707     0.8489    -2.3452 C.3     
  30 C30           -6.7051     1.6253    -1.9094 C.3     
  31 H31           -0.0889    -0.1284     0.8879 H       
  32 H32           -0.5144    -0.2813    -0.8373 H       
  33 H33            2.2202     0.5936     1.3936 H       
  34 H34            3.5083     0.1637     0.2447 H       
  35 H35            2.9857     2.0669    -1.1672 H       
  36 H36            3.0944     2.6709     0.5069 H       
  37 H37           -3.2540     3.8288    -0.5004 H       
  38 H38            3.3161     3.9459    -0.9432 H       
  39 H39            4.6951     5.9800    -1.0484 H       
  40 H40            3.6882     8.1789    -0.5984 H       
  41 H41            1.2987     8.3571    -0.0413 H       
  42 H42           -0.1001     6.3361     0.0565 H       
  43 H43            1.0289    -2.2069    -0.7812 H       
  44 H44            3.9040    -1.4602    -0.0792 H       
  45 H45            3.3257    -3.0936    -0.4862 H       
  46 H46            3.2909    -1.8056    -1.7142 H       
  47 H47            0.5888    -1.6746     1.6003 H       
  48 H48            1.7477    -3.0171     1.4494 H       
  49 H49            2.3260    -1.3837     1.8564 H       
  50 H50           -4.9309     1.5426     0.1989 H       
  51 H51           -3.9540     3.5061    -2.7881 H       
  52 H52           -5.2868     2.9458    -3.8264 H       
  53 H53           -5.6171     4.0593    -2.4776 H       
  54 H54           -7.2146     2.2821     0.6576 H       
  55 H55           -7.1929     4.7768     1.9814 H       
  56 H56           -8.0166     4.9794     0.4166 H       
  57 H57           -8.6548     3.8294     1.6160 H       
  58 H58           -4.5298    -0.0016    -1.6822 H       
  59 H59           -4.6518     0.5744    -3.3620 H       
  60 H60           -3.3191     1.1347    -2.3236 H       
  61 H61           -7.3235     2.4996    -1.7057 H       
  62 H62           -6.9530     1.2261    -2.8929 H       
  63 H63           -6.8905     0.8645    -1.1512 H       
@<TRIPOS>BOND
   1    1    2 1
   2    1    3 1
   3    1    9 2
   4    2    4 1
   5    2   31 1
   6    2   32 1
   7    3    6 1
   8    3    7 1
   9    4    5 1
  10    4   19 1
  11    5    6 1
  12    5   33 1
  13    5   34 1
  14    6   35 1
  15    6   36 1
  16    7    8 2
  17    7   13 1
  18    8    9 1
  19    9   10 1
  20   10   11 2
  21   10   12 am
  22   12   23 1
  23   12   37 1
  24   13   14 ar
  25   13   18 ar
  26   14   15 ar
  27   14   38 1
  28   15   16 ar
  29   15   39 1
  30   16   17 ar
  31   16   40 1
  32   17   18 ar
  33   17   41 1
  34   18   42 1
  35   19   20 1
  36   19   21 1
  37   19   43 1
  38   20   44 1
  39   20   45 1
  40   20   46 1
  41   21   47 1
  42   21   48 1
  43   21   49 1
  44   22   26 2
  45   22   27 am
  46   22   23 1
  47   23   24 1
  48   23   50 1
  49   24   25 1
  50   24   29 1
  51   24   30 1
  52   25   51 1
  53   25   52 1
  54   25   53 1
  55   27   28 1
  56   27   54 1
  57   28   55 1
  58   28   56 1
  59   28   57 1
  60   29   58 1
  61   29   59 1
  62   29   60 1
  63   30   61 1
  64   30   62 1
  65   30   63 1

#	End of record

