#	Name: ASD01910489
#	Creating user name:	WinNT
#	Creation time:	15. 06. 2019 19:55

#	Modifying user name:	WinNT
#	Modification time:	15. 06. 2019 19:55

#	Program:	/corina/corina34_cracker 3.40 0067  02.08.2006

@<TRIPOS>MOLECULE
ASD01910489
  47   50    0    0    0
SMALL
NO_CHARGES


@<TRIPOS>ATOM
   1 C1             0.0502     1.4710     0.0681 C.ar    
   2 C2             0.0550    -0.0120     0.0470 C.2     
   3 N3            -1.0306    -0.8186     0.0498 N.2     
   4 C4            -0.5607    -2.0409     0.0264 C.2     
   5 O5             0.7728    -1.9499     0.0102 O.3     
   6 N6             1.1099    -0.7848     0.0166 N.2     
   7 C7            -1.3712    -3.3114     0.0194 C.3     
   8 C8            -1.0547    -4.1123    -1.2456 C.3     
   9 C9            -1.9015    -5.3869    -1.2697 C.3     
  10 C10           -1.5542    -6.2490    -0.0520 C.3     
  11 N11           -1.7173    -5.4391     1.1629 N.am    
  12 C12           -1.0179    -4.1500     1.2518 C.3     
  13 C13           -2.4937    -5.8703     2.1766 C.2     
  14 C14           -3.2645    -7.1226     2.0355 C.ar    
  15 O15           -2.5598    -5.2288     3.2071 O.2     
  16 C16            1.2552     2.1753     0.0623 C.ar    
  17 C17            1.2443     3.5575     0.0815 C.ar    
  18 C18            0.0407     4.2416     0.1064 C.ar    
  19 C19           -1.1579     3.5450     0.1127 C.ar    
  20 C20           -1.1578     2.1661     0.0878 C.ar    
  21 F21            2.4294     1.5077     0.0384 F       
  22 F22            0.0343     5.5925     0.1251 F       
  23 C23           -2.6145    -8.3110     1.6967 C.ar    
  24 C24           -3.3385    -9.4770     1.5667 C.ar    
  25 C25           -4.7097    -9.4708     1.7714 C.ar    
  26 C26           -5.3603    -8.2932     2.1076 C.ar    
  27 C27           -4.6452    -7.1233     2.2462 C.ar    
  28 C28           -5.3536    -5.8444     2.6121 C.3     
  29 F29           -5.4146   -10.6161     1.6423 F       
  30 H30           -2.4330    -3.0656     0.0383 H       
  31 H31           -1.2821    -3.5085    -2.1241 H       
  32 H32            0.0023    -4.3785    -1.2519 H       
  33 H33           -2.9584    -5.1221    -1.2385 H       
  34 H34           -1.6927    -5.9452    -2.1823 H       
  35 H35           -2.2228    -7.1089    -0.0104 H       
  36 H36           -0.5216    -6.5898    -0.1281 H       
  37 H37            0.0584    -4.3196     1.2820 H       
  38 H38           -1.3326    -3.6249     2.1536 H       
  39 H39            2.1756     4.1044     0.0774 H       
  40 H40           -2.0938     4.0835     0.1329 H       
  41 H41           -2.0926     1.6253     0.0927 H       
  42 H42           -1.5465    -8.3168     1.5363 H       
  43 H43           -2.8367   -10.3967     1.3047 H       
  44 H44           -6.4288    -8.2938     2.2652 H       
  45 H45           -5.4583    -5.7842     3.6953 H       
  46 H46           -4.7739    -4.9931     2.2552 H       
  47 H47           -6.3408    -5.8310     2.1503 H       
@<TRIPOS>BOND
   1    1    2 1
   2    1   16 ar
   3    1   20 ar
   4    2    3 1
   5    2    6 2
   6    3    4 2
   7    4    5 1
   8    4    7 1
   9    5    6 1
  10    7    8 1
  11    7   12 1
  12    7   30 1
  13    8    9 1
  14    8   31 1
  15    8   32 1
  16    9   10 1
  17    9   33 1
  18    9   34 1
  19   10   11 1
  20   10   35 1
  21   10   36 1
  22   11   12 1
  23   11   13 am
  24   12   37 1
  25   12   38 1
  26   13   14 1
  27   13   15 2
  28   14   23 ar
  29   14   27 ar
  30   16   17 ar
  31   16   21 1
  32   17   18 ar
  33   17   39 1
  34   18   19 ar
  35   18   22 1
  36   19   20 ar
  37   19   40 1
  38   20   41 1
  39   23   24 ar
  40   23   42 1
  41   24   25 ar
  42   24   43 1
  43   25   26 ar
  44   25   29 1
  45   26   27 ar
  46   26   44 1
  47   27   28 1
  48   28   45 1
  49   28   46 1
  50   28   47 1

#	End of record

