#	Name: ASD00070062
#	Creating user name:	WinNT
#	Creation time:	15. 06. 2019 18:30

#	Modifying user name:	WinNT
#	Modification time:	15. 06. 2019 18:30

#	Program:	/corina/corina34_cracker 3.40 0067  02.08.2006

@<TRIPOS>MOLECULE
ASD00070062
  69   73    0    0    0
SMALL
NO_CHARGES


@<TRIPOS>ATOM
   1 C1            -0.0180     1.4749     0.0102 C.2     
   2 C2             0.0021    -0.0041     0.0020 C.ar    
   3 C3             1.2206    -0.6855    -0.0133 C.ar    
   4 C4             1.2396    -2.0627    -0.0204 C.ar    
   5 C5             0.0397    -2.7776    -0.0123 C.ar    
   6 C6            -1.1792    -2.0956     0.0030 C.ar    
   7 C7            -1.1975    -0.7185     0.0155 C.ar    
   8 O8             1.0262     2.0969     0.0035 O.2     
   9 N9            -1.1942     2.1328     0.0193 N.am    
  10 C10           -1.2141     3.5977     0.0274 C.3     
  11 C11           -2.5311     4.0932    -0.5733 C.3     
  12 C12           -2.5519     5.6230    -0.5649 C.3     
  13 C13           -2.4262     6.1268     0.8743 C.3     
  14 C14           -1.1092     5.6314     1.4750 C.3     
  15 C15           -1.0885     4.1015     1.4666 C.3     
  16 C16           -2.4470     7.6567     0.8827 C.3     
  17 C17           -2.4471     8.1588     2.3279 C.3     
  18 N18           -2.4670     9.6276     2.3360 N.3     
  19 C19           -2.7058    10.1433     3.6901 C.3     
  20 C20           -2.8649    11.6644     3.6374 C.3     
  21 C21           -1.5940    12.2856     3.0513 C.3     
  22 C22           -1.3415    11.6960     1.6609 C.3     
  23 C23           -1.2266    10.1739     1.7709 C.3     
  24 O24           -0.1297    16.6459     4.2827 O.3     
  25 C25            0.9562    15.7467     4.5636 C.3     
  26 C26            0.2719    14.3597     4.5230 C.3     
  27 C27           -0.9147    14.6228     3.6163 C.ar    
  28 C28           -1.0646    16.0013     3.5321 C.ar    
  29 C29           -1.7677    13.7785     2.9412 C.ar    
  30 C30           -2.7843    14.3015     2.1613 C.ar    
  31 C31           -2.9388    15.6717     2.0635 C.ar    
  32 C32           -2.0871    16.5195     2.7415 C.ar    
  33 C33            0.0591    -4.2094    -0.0202 C.1     
  34 N34            0.0745    -5.3453    -0.0264 N.1     
  35 H35            2.1484    -0.1327    -0.0199 H       
  36 H36            2.1822    -2.5897    -0.0326 H       
  37 H37           -2.1071    -2.6481     0.0089 H       
  38 H38           -2.1399    -0.1912     0.0318 H       
  39 H39           -2.0276     1.6365     0.0206 H       
  40 H40           -0.3801     3.9756    -0.5640 H       
  41 H41           -2.6206     3.7342    -1.5986 H       
  42 H42           -3.3651     3.7152     0.0180 H       
  43 H43           -1.7179     6.0009    -1.1563 H       
  44 H44           -3.4901     5.9760    -0.9929 H       
  45 H45           -3.2602     5.7489     1.4656 H       
  46 H46           -0.2752     6.0093     0.8836 H       
  47 H47           -1.0197     5.9903     2.5003 H       
  48 H48           -1.9225     3.7236     2.0579 H       
  49 H49           -0.1502     3.7485     1.8945 H       
  50 H50           -1.5645     8.0349     0.3667 H       
  51 H51           -3.3443     8.0107     0.3750 H       
  52 H52           -3.3296     7.7806     2.8439 H       
  53 H53           -1.5498     7.8048     2.8356 H       
  54 H54           -3.6146     9.6968     4.0937 H       
  55 H55           -1.8610     9.8884     4.3300 H       
  56 H56           -3.7180    11.9196     3.0088 H       
  57 H57           -3.0265    12.0485     4.6446 H       
  58 H58           -0.7471    12.0634     3.7005 H       
  59 H59           -2.1706    11.9516     1.0012 H       
  60 H60           -0.4148    12.1026     1.2560 H       
  61 H61           -0.3887     9.9189     2.4198 H       
  62 H62           -1.0610     9.7497     0.7806 H       
  63 H63            1.7266    15.8198     3.7959 H       
  64 H64            1.3740    15.9424     5.5512 H       
  65 H65            0.9348    13.6107     4.0898 H       
  66 H66           -0.0569    14.0583     5.5176 H       
  67 H67           -3.4544    13.6414     1.6306 H       
  68 H68           -3.7300    16.0809     1.4528 H       
  69 H69           -2.2149    17.5888     2.6600 H       
@<TRIPOS>BOND
   1    1    2 1
   2    1    8 2
   3    1    9 am
   4    2    3 ar
   5    2    7 ar
   6    3    4 ar
   7    3   35 1
   8    4    5 ar
   9    4   36 1
  10    5    6 ar
  11    5   33 1
  12    6    7 ar
  13    6   37 1
  14    7   38 1
  15    9   10 1
  16    9   39 1
  17   10   11 1
  18   10   15 1
  19   10   40 1
  20   11   12 1
  21   11   41 1
  22   11   42 1
  23   12   13 1
  24   12   43 1
  25   12   44 1
  26   13   14 1
  27   13   16 1
  28   13   45 1
  29   14   15 1
  30   14   46 1
  31   14   47 1
  32   15   48 1
  33   15   49 1
  34   16   17 1
  35   16   50 1
  36   16   51 1
  37   17   18 1
  38   17   52 1
  39   17   53 1
  40   18   19 1
  41   18   23 1
  42   19   20 1
  43   19   54 1
  44   19   55 1
  45   20   21 1
  46   20   56 1
  47   20   57 1
  48   21   22 1
  49   21   29 1
  50   21   58 1
  51   22   23 1
  52   22   59 1
  53   22   60 1
  54   23   61 1
  55   23   62 1
  56   24   25 1
  57   24   28 1
  58   25   26 1
  59   25   63 1
  60   25   64 1
  61   26   27 1
  62   26   65 1
  63   26   66 1
  64   27   28 ar
  65   27   29 ar
  66   28   32 ar
  67   29   30 ar
  68   30   31 ar
  69   30   67 1
  70   31   32 ar
  71   31   68 1
  72   32   69 1
  73   33   34 3

#	End of record

