#	Name: ASD09080146
#	Creating user name:	WinNT
#	Creation time:	15. 06. 2019 21:20

#	Modifying user name:	WinNT
#	Modification time:	15. 06. 2019 21:20

#	Program:	/corina/corina34_cracker 3.40 0067  02.08.2006

@<TRIPOS>MOLECULE
ASD09080146
  61   64    0    0    0
SMALL
NO_CHARGES


@<TRIPOS>ATOM
   1 C1             1.2196    -0.1504    -0.6518 C.3     
   2 C2            -1.0128   -10.5604    -1.8294 C.ar    
   3 C3            -0.3775   -10.9240    -3.0041 C.ar    
   4 C4            -0.0349    -9.9612    -3.9377 C.ar    
   5 C5            -0.3266    -8.6318    -3.7011 C.ar    
   6 C6            -0.9658    -8.2607    -2.5201 C.ar    
   7 C7            -1.3134    -9.2342    -1.5859 C.ar    
   8 Cl8           -1.4388   -11.7737    -0.6632 Cl      
   9 Cl9            0.7627   -10.4250    -5.4082 Cl      
  10 C10           -1.2805    -6.8340    -2.2605 C.ar    
  11 C11           -1.9198    -6.4626    -1.0795 C.ar    
  12 C12           -2.2101    -5.1341    -0.8432 C.ar    
  13 C13           -1.8667    -4.1721    -1.7759 C.ar    
  14 C14           -1.2319    -4.5351    -2.9500 C.ar    
  15 C15           -0.9325    -5.8601    -3.1943 C.ar    
  16 C16           -2.1858    -2.7230    -1.5121 C.3     
  17 C17           -1.0127    -2.0675    -0.7807 C.3     
  18 O18           -0.8634    -2.6627     0.5099 O.3     
  19 C19           -1.2827    -0.5697    -0.6233 C.3     
  20 C20           -0.1096     0.0859     0.1081 C.3     
  21 O21            0.1507    -0.5767     1.3689 O.3     
  22 C22            1.5413    -0.3278     1.6348 C.3     
  23 O23            2.2106    -0.0734     0.3927 O.3     
  24 C24            1.6795     0.8891     2.5518 C.3     
  25 C25            2.1621    -1.5511     2.3122 C.3     
  26 O26           -1.4320     0.0255    -1.9138 O.3     
  27 C27           -2.2673     1.7903    -3.3055 C.ar    
  28 C28           -3.1985     1.3863    -4.2438 C.ar    
  29 C29           -3.1968     1.9495    -5.5062 C.ar    
  30 C30           -2.2642     2.9171    -5.8302 C.ar    
  31 C31           -1.3335     3.3217    -4.8915 C.ar    
  32 C32           -1.3343     2.7574    -3.6296 C.ar    
  33 C33           -2.2730     1.1807    -1.9273 C.3     
  34 H34            1.2269    -1.1357    -1.1179 H       
  35 H35            1.3822     0.6299    -1.3953 H       
  36 H36           -0.1481   -11.9624    -3.1929 H       
  37 H37           -0.0585    -7.8812    -4.4299 H       
  38 H38           -1.8093    -8.9515    -0.6691 H       
  39 H39           -2.1884    -7.2130    -0.3507 H       
  40 H40           -2.7059    -4.8452     0.0717 H       
  41 H41           -0.9666    -3.7800    -3.6751 H       
  42 H42           -0.4369    -6.1425    -4.1114 H       
  43 H43           -2.3560    -2.2103    -2.4587 H       
  44 H44           -3.0821    -2.6548    -0.8956 H       
  45 H45           -0.0985    -2.2134    -1.3561 H       
  46 H46           -1.6408    -2.5710     1.0776 H       
  47 H47           -2.1968    -0.4238    -0.0479 H       
  48 H48           -0.2905     1.1505     0.2561 H       
  49 H49            1.1602     0.6973     3.4908 H       
  50 H50            2.7347     1.0754     2.7517 H       
  51 H51            1.2421     1.7615     2.0663 H       
  52 H52            2.0683    -2.4165     1.6560 H       
  53 H53            3.2163    -1.3597     2.5125 H       
  54 H54            1.6440    -1.7489     3.2505 H       
  55 H55           -3.9272     0.6304    -3.9907 H       
  56 H56           -3.9240     1.6334    -6.2395 H       
  57 H57           -2.2624     3.3566    -6.8167 H       
  58 H58           -0.6044     4.0771    -5.1449 H       
  59 H59           -0.6067     3.0730    -2.8965 H       
  60 H60           -3.2902     0.8927    -1.6616 H       
  61 H61           -1.9016     1.9090    -1.2063 H       
@<TRIPOS>BOND
   1    1   20 1
   2    1   23 1
   3    1   34 1
   4    1   35 1
   5    2    3 ar
   6    2    8 1
   7    2    7 ar
   8    3    4 ar
   9    3   36 1
  10    4    5 ar
  11    4    9 1
  12    5    6 ar
  13    5   37 1
  14    6    7 ar
  15    6   10 1
  16    7   38 1
  17   10   11 ar
  18   10   15 ar
  19   11   12 ar
  20   11   39 1
  21   12   13 ar
  22   12   40 1
  23   13   14 ar
  24   13   16 1
  25   14   15 ar
  26   14   41 1
  27   15   42 1
  28   16   17 1
  29   16   43 1
  30   16   44 1
  31   17   18 1
  32   17   19 1
  33   17   45 1
  34   18   46 1
  35   19   26 1
  36   19   20 1
  37   19   47 1
  38   20   21 1
  39   20   48 1
  40   21   22 1
  41   22   23 1
  42   22   24 1
  43   22   25 1
  44   24   49 1
  45   24   50 1
  46   24   51 1
  47   25   52 1
  48   25   53 1
  49   25   54 1
  50   26   33 1
  51   27   28 ar
  52   27   32 ar
  53   27   33 1
  54   28   29 ar
  55   28   55 1
  56   29   30 ar
  57   29   56 1
  58   30   31 ar
  59   30   57 1
  60   31   32 ar
  61   31   58 1
  62   32   59 1
  63   33   60 1
  64   33   61 1

#	End of record

