#	Name: ASD01903227
#	Creating user name:	WinNT
#	Creation time:	15. 06. 2019 19:54

#	Modifying user name:	WinNT
#	Modification time:	15. 06. 2019 19:54

#	Program:	/corina/corina34_cracker 3.40 0067  02.08.2006

@<TRIPOS>MOLECULE
ASD01903227
  29   31    0    0    0
SMALL
NO_CHARGES


@<TRIPOS>ATOM
   1 S1            -0.0211     1.7049     0.0114 S.3     
   2 C2             0.0021    -0.0041     0.0020 C.2     
   3 N3             1.2221    -0.4387    -0.0120 N.2     
   4 C4             2.1845     0.4751    -0.0162 C.2     
   5 C5             1.7399     1.7439    -0.0052 C.2     
   6 N6            -1.1265    -0.8117     0.0089 N.pl3   
   7 C7            -2.3885    -0.2388     0.0239 C.ar    
   8 C8             3.6284     0.1262    -0.0311 C.2     
   9 C9             4.7036     1.0304     0.0635 C.2     
  10 N10            5.8161     0.3460     0.0143 N.2     
  11 N11            5.4977    -1.0115    -0.1127 N.pl3   
  12 C12            4.1530    -1.1285    -0.1330 C.2     
  13 N13           -3.4545    -1.0248     0.0303 N.ar    
  14 C14           -4.6768    -0.5072     0.0447 C.ar    
  15 C15           -4.8253     0.8789     0.0531 C.ar    
  16 C16           -3.6875     1.6643     0.0461 C.ar    
  17 N17           -2.4985     1.0814     0.0371 N.ar    
  18 O18           -5.7650    -1.3148     0.0507 O.3     
  19 C19           -5.5272    -2.7238     0.0409 C.3     
  20 H20            2.3548     2.6317    -0.0068 H       
  21 H21           -1.0321    -1.7770     0.0031 H       
  22 H22            4.6231     2.1030     0.1600 H       
  23 H23            6.1333    -1.7419    -0.1721 H       
  24 H24            3.5940    -2.0483    -0.2215 H       
  25 H25           -5.8069     1.3291     0.0645 H       
  26 H26           -3.7675     2.7413     0.0522 H       
  27 H27           -4.9517    -3.0013     0.9240 H       
  28 H28           -6.4801    -3.2532     0.0471 H       
  29 H29           -4.9686    -2.9918    -0.8559 H       
@<TRIPOS>BOND
   1    1    2 1
   2    1    5 1
   3    2    3 2
   4    2    6 1
   5    3    4 1
   6    4    5 2
   7    4    8 1
   8    5   20 1
   9    6    7 1
  10    6   21 1
  11    7   13 ar
  12    7   17 ar
  13    8    9 1
  14    8   12 2
  15    9   10 2
  16    9   22 1
  17   10   11 1
  18   11   12 1
  19   11   23 1
  20   12   24 1
  21   13   14 ar
  22   14   15 ar
  23   14   18 1
  24   15   16 ar
  25   15   25 1
  26   16   17 ar
  27   16   26 1
  28   18   19 1
  29   19   27 1
  30   19   28 1
  31   19   29 1

#	End of record

