#	Name: ASD01900850
#	Creating user name:	WinNT
#	Creation time:	15. 06. 2019 19:52

#	Modifying user name:	WinNT
#	Modification time:	15. 06. 2019 19:52

#	Program:	/corina/corina34_cracker 3.40 0067  02.08.2006

@<TRIPOS>MOLECULE
ASD01900850
  26   27    0    0    0
SMALL
NO_CHARGES


@<TRIPOS>ATOM
   1 N1            -0.0164     1.3110     0.0233 N.ar    
   2 C2             0.0011    -0.0042     0.0226 C.ar    
   3 C3             1.1993    -0.6999     0.0123 C.ar    
   4 C4             2.3937     0.0038     0.0021 C.ar    
   5 C5             2.3450     1.3888     0.0027 C.ar    
   6 C6             1.1042     2.0223     0.0138 C.ar    
   7 C7             1.0349     3.5019     0.0145 C.2     
   8 O8             2.0578     4.1582     0.0059 O.2     
   9 N9            -0.1625     4.1205     0.0248 N.am    
  10 C10           -0.2294     5.5139     0.1381 C.ar    
  11 C11            0.6981     6.1905     0.9139 C.ar    
  12 C12            0.6284     7.5801     1.0240 C.ar    
  13 C13           -0.3781     8.2799     0.3499 C.ar    
  14 C14           -1.2977     7.5934    -0.4211 C.ar    
  15 C15           -1.2228     6.2181    -0.5324 C.ar    
  16 C16            1.5830     8.2867     1.8242 C.1     
  17 N17            2.3402     8.8472     2.4590 N.1     
  18 F18           -0.4517     9.6250     0.4525 F       
  19 H19           -0.9312    -0.5493     0.0305 H       
  20 H20            1.2027    -1.7799     0.0125 H       
  21 H21            3.3406    -0.5155    -0.0056 H       
  22 H22            3.2560     1.9688    -0.0047 H       
  23 H23           -0.9779     3.6000    -0.0463 H       
  24 H24            1.4724     5.6442     1.4320 H       
  25 H25           -2.0746     8.1341    -0.9414 H       
  26 H26           -1.9413     5.6878    -1.1398 H       
@<TRIPOS>BOND
   1    1    2 ar
   2    1    6 ar
   3    2    3 ar
   4    2   19 1
   5    3    4 ar
   6    3   20 1
   7    4    5 ar
   8    4   21 1
   9    5    6 ar
  10    5   22 1
  11    6    7 1
  12    7    8 2
  13    7    9 am
  14    9   10 1
  15    9   23 1
  16   10   11 ar
  17   10   15 ar
  18   11   12 ar
  19   11   24 1
  20   12   13 ar
  21   12   16 1
  22   13   14 ar
  23   13   18 1
  24   14   15 ar
  25   14   25 1
  26   15   26 1
  27   16   17 3

#	End of record

