#	Name: ASD03090946
#	Creating user name:	WinNT
#	Creation time:	15. 06. 2019 20:29

#	Modifying user name:	WinNT
#	Modification time:	15. 06. 2019 20:29

#	Program:	/corina/corina34_cracker 3.40 0067  02.08.2006

@<TRIPOS>MOLECULE
ASD03090946
  41   43    0    0    0
SMALL
NO_CHARGES


@<TRIPOS>ATOM
   1 N1            -0.0175     1.3432    -0.0860 N.am    
   2 C2             0.0012    -0.0044    -0.0679 C.2     
   3 O3             1.0649    -0.5993    -0.0775 O.2     
   4 N4            -1.1464    -0.6880    -0.0394 N.2     
   5 C5             1.2409     2.0928    -0.1173 C.3     
   6 C6             1.6391     2.3248    -1.5153 C.1     
   7 C7             1.9568     2.5099    -2.6302 C.1     
   8 S8             0.2595    -3.0387    -0.0302 S.3     
   9 C9            -1.1280    -2.0187    -0.0215 C.2     
  10 N10           -2.1987    -2.8518     0.0077 N.pl3   
  11 C11           -1.9391    -4.1884     0.0221 C.2     
  12 C12           -0.6633    -4.5510     0.0062 C.2     
  13 O13           -7.3741    -0.8848     0.0781 O.3     
  14 C14           -8.4123    -1.7492    -0.3960 C.3     
  15 C15           -8.2087    -3.1342     0.2329 C.3     
  16 O16           -6.9212    -3.6205    -0.1616 O.3     
  17 C17           -5.8806    -2.7488    -0.0610 C.ar    
  18 C18           -6.1064    -1.3819     0.0568 C.ar    
  19 C19           -4.5831    -3.2357    -0.0763 C.ar    
  20 C20           -3.5113    -2.3592     0.0230 C.ar    
  21 C21           -3.7397    -0.9950     0.1377 C.ar    
  22 C22           -5.0330    -0.5092     0.1545 C.ar    
  23 F23           -8.2679    -3.0328     1.6270 F       
  24 F24           -9.2025    -4.0087    -0.2198 F       
  25 F25           -9.6595    -1.2390    -0.0199 F       
  26 F26           -8.3434    -1.8491    -1.7897 F       
  27 C27           -0.1141    -5.9542     0.0171 C.3     
  28 C28           -1.2961     2.0582    -0.0806 C.3     
  29 H29            1.1060     3.0502     0.3858 H       
  30 H30            2.0170     1.5211     0.3915 H       
  31 H31            2.2409     2.6755    -3.6274 H       
  32 H32           -2.7344    -4.9188     0.0454 H       
  33 H33           -4.4058    -4.2972    -0.1662 H       
  34 H34           -2.9060    -0.3127     0.2139 H       
  35 H35           -5.2085     0.5527     0.2435 H       
  36 H36            0.9752    -5.9182    -0.0005 H       
  37 H37           -0.4460    -6.4673     0.9197 H       
  38 H38           -0.4741    -6.4922    -0.8598 H       
  39 H39           -1.6010     2.2495     0.9483 H       
  40 H40           -1.1850     3.0052    -0.6087 H       
  41 H41           -2.0536     1.4519    -0.5772 H       
@<TRIPOS>BOND
   1    1    2 am
   2    1    5 1
   3    1   28 1
   4    2    3 2
   5    2    4 1
   6    4    9 2
   7    5    6 1
   8    5   29 1
   9    5   30 1
  10    6    7 3
  11    7   31 1
  12    8    9 1
  13    8   12 1
  14    9   10 1
  15   10   11 1
  16   10   20 1
  17   11   12 2
  18   11   32 1
  19   12   27 1
  20   13   14 1
  21   13   18 1
  22   14   15 1
  23   14   25 1
  24   14   26 1
  25   15   16 1
  26   15   23 1
  27   15   24 1
  28   16   17 1
  29   17   18 ar
  30   17   19 ar
  31   18   22 ar
  32   19   20 ar
  33   19   33 1
  34   20   21 ar
  35   21   22 ar
  36   21   34 1
  37   22   35 1
  38   27   36 1
  39   27   37 1
  40   27   38 1
  41   28   39 1
  42   28   40 1
  43   28   41 1

#	End of record

