#	Name: ASD00170349
#	Creating user name:	WinNT
#	Creation time:	15. 06. 2019 18:32

#	Modifying user name:	WinNT
#	Modification time:	15. 06. 2019 18:32

#	Program:	/corina/corina34_cracker 3.40 0067  02.08.2006

@<TRIPOS>MOLECULE
ASD00170349
  29   29    0    0    0
SMALL
NO_CHARGES


@<TRIPOS>ATOM
   1 C1             0.1064     1.1139    -0.0293 C.ar    
   2 C2            -0.0435    -0.2776    -0.0381 C.ar    
   3 N3            -1.2554    -0.8164    -0.0719 N.ar    
   4 C4            -2.3275    -0.0340    -0.0974 C.ar    
   5 C5            -2.1734     1.3610    -0.0885 C.ar    
   6 N6            -0.9531     1.8937    -0.0494 N.ar    
   7 C7            -3.3624     2.2368    -0.1168 C.2     
   8 N8            -3.2208     3.5639     0.0132 N.2     
   9 C9            -3.8398     4.2026     0.9936 C.2     
  10 N10           -4.5314     3.4995     1.9359 N.pl3   
  11 N11           -3.5932    -0.5922    -0.1332 N.pl3   
  12 N12            1.0752    -1.0935    -0.0119 N.3     
  13 Cl13           1.6948     1.8129     0.0156 Cl      
  14 O14           -4.4720     1.7533    -0.2584 O.2     
  15 N15           -3.7860     5.5640     1.0616 N.pl3   
  16 C16            1.1260    -1.8775     1.2294 C.3     
  17 C17            1.1153    -1.9699    -1.1901 C.3     
  18 H18           -4.6300     2.5385     1.8486 H       
  19 H19           -4.9246     3.9606     2.6934 H       
  20 H20           -3.6976    -1.5520    -0.2270 H       
  21 H21           -4.3761    -0.0236    -0.0646 H       
  22 H22           -3.2942     6.0639     0.3915 H       
  23 H23           -4.2395     6.0320     1.7800 H       
  24 H24            0.2358    -2.5025     1.3011 H       
  25 H25            2.0141    -2.5094     1.2239 H       
  26 H26            1.1657    -1.2024     2.0842 H       
  27 H27            1.2354    -1.3651    -2.0889 H       
  28 H28            1.9546    -2.6597    -1.1015 H       
  29 H29            0.1855    -2.5353    -1.2542 H       
@<TRIPOS>BOND
   1    1    2 ar
   2    1   13 1
   3    1    6 ar
   4    2    3 ar
   5    2   12 1
   6    3    4 ar
   7    4    5 ar
   8    4   11 1
   9    5    6 ar
  10    5    7 1
  11    7    8 1
  12    7   14 2
  13    8    9 2
  14    9   10 1
  15    9   15 1
  16   10   18 1
  17   10   19 1
  18   11   20 1
  19   11   21 1
  20   12   16 1
  21   12   17 1
  22   15   22 1
  23   15   23 1
  24   16   24 1
  25   16   25 1
  26   16   26 1
  27   17   27 1
  28   17   28 1
  29   17   29 1

#	End of record

