#	Name: ASD01914172
#	Creating user name:	WinNT
#	Creation time:	15. 06. 2019 20:03

#	Modifying user name:	WinNT
#	Modification time:	15. 06. 2019 20:03

#	Program:	/corina/corina34_cracker 3.40 0067  02.08.2006

@<TRIPOS>MOLECULE
ASD01914172
  47   50    0    0    0
SMALL
NO_CHARGES


@<TRIPOS>ATOM
   1 C1            -0.9996     1.6601    -0.2119 C.ar    
   2 C2            -0.8120     0.1949    -0.2046 C.2     
   3 N3            -1.7607    -0.7221    -0.1279 N.2     
   4 C4            -1.1228    -1.9025    -0.1558 C.2     
   5 N5             0.1515    -1.6596    -0.2457 N.2     
   6 O6             0.3545    -0.4644    -0.2803 O.3     
   7 C7            -1.7669    -3.2635    -0.0935 C.3     
   8 C8            -1.4201    -4.0511    -1.3591 C.3     
   9 C9            -2.1006    -5.4211    -1.3119 C.3     
  10 C10           -1.5837    -6.2020    -0.0996 C.3     
  11 N11           -1.7822    -5.3878     1.1072 N.am    
  12 C12           -1.2462    -4.0200     1.1326 C.3     
  13 C13           -2.4435    -5.8861     2.1706 C.2     
  14 C14           -2.5234    -5.1059     3.4225 C.ar    
  15 O15           -2.9742    -6.9775     2.0996 O.2     
  16 C16           -1.4799    -3.6995     5.0660 C.ar    
  17 C17           -3.7899    -4.3220     5.3065 C.ar    
  18 C18           -3.7210    -5.0510     4.1387 C.ar    
  19 C19           -1.4000    -4.4255     3.8971 C.ar    
  20 C20           -0.0935    -6.4993    -0.2783 C.3     
  21 C21           -2.6730    -3.6440     5.7704 C.ar    
  22 C22            0.1058     2.5080    -0.2982 C.ar    
  23 C23           -0.0768     3.8773    -0.3051 C.ar    
  24 C24           -1.3539     4.4098    -0.2261 C.ar    
  25 C25           -2.4534     3.5760    -0.1399 C.ar    
  26 C26           -2.2857     2.2039    -0.1383 C.ar    
  27 F27            0.9921     4.6993    -0.3885 F       
  28 F28           -3.3610     1.3904    -0.0541 F       
  29 F29           -2.7458    -2.9313     6.9158 F       
  30 H30           -2.8486    -3.1511    -0.0199 H       
  31 H31           -1.7679    -3.5029    -2.2347 H       
  32 H32           -0.3400    -4.1840    -1.4195 H       
  33 H33           -3.1792    -5.2888    -1.2265 H       
  34 H34           -1.8722    -5.9723    -2.2241 H       
  35 H35           -2.1360    -7.1369    -0.0046 H       
  36 H36           -0.1571    -4.0538     1.1057 H       
  37 H37           -1.5759    -3.5152     2.0406 H       
  38 H38           -0.6128    -3.1698     5.4320 H       
  39 H39           -4.7156    -4.2789     5.8612 H       
  40 H40           -4.5917    -5.5785     3.7781 H       
  41 H41           -0.4702    -4.4684     3.3494 H       
  42 H42            0.4559    -5.5620    -0.3666 H       
  43 H43            0.2723    -7.0549     0.5851 H       
  44 H44            0.0529    -7.0927    -1.1809 H       
  45 H45            1.1016     2.0945    -0.3591 H       
  46 H46           -1.4908     5.4811    -0.2314 H       
  47 H47           -3.4458     3.9976    -0.0779 H       
@<TRIPOS>BOND
   1    1    2 1
   2    1   22 ar
   3    1   26 ar
   4    2    3 2
   5    2    6 1
   6    3    4 1
   7    4    5 2
   8    4    7 1
   9    5    6 1
  10    7    8 1
  11    7   12 1
  12    7   30 1
  13    8    9 1
  14    8   31 1
  15    8   32 1
  16    9   10 1
  17    9   33 1
  18    9   34 1
  19   10   11 1
  20   10   20 1
  21   10   35 1
  22   11   12 1
  23   11   13 am
  24   12   36 1
  25   12   37 1
  26   13   14 1
  27   13   15 2
  28   14   19 ar
  29   14   18 ar
  30   16   21 ar
  31   16   19 ar
  32   16   38 1
  33   17   18 ar
  34   17   21 ar
  35   17   39 1
  36   18   40 1
  37   19   41 1
  38   20   42 1
  39   20   43 1
  40   20   44 1
  41   21   29 1
  42   22   23 ar
  43   22   45 1
  44   23   24 ar
  45   23   27 1
  46   24   25 ar
  47   24   46 1
  48   25   26 ar
  49   25   47 1
  50   26   28 1

#	End of record

