#	Name: ASD04590293
#	Creating user name:	WinNT
#	Creation time:	15. 06. 2019 20:50

#	Modifying user name:	WinNT
#	Modification time:	15. 06. 2019 20:50

#	Program:	/corina/corina34_cracker 3.40 0067  02.08.2006

@<TRIPOS>MOLECULE
ASD04590293
  52   56    0    0    0
SMALL
NO_CHARGES


@<TRIPOS>ATOM
   1 C1            -0.0167     1.3832     0.0096 C.ar    
   2 C2             0.0021    -0.0041     0.0020 C.ar    
   3 C3            -1.1738    -0.7192     0.0094 C.ar    
   4 C4            -2.3977    -0.0431     0.0252 C.ar    
   5 C5            -2.4107     1.3631     0.0333 C.ar    
   6 C6            -1.2148     2.0662     0.0305 C.ar    
   7 N7            -3.6889    -0.4558     0.0354 N.2     
   8 C8            -4.4844     0.5863     0.0491 C.2     
   9 N9            -3.7413     1.7362     0.0484 N.pl3   
  10 C10           -5.9607     0.5285     0.0632 C.2     
  11 C11           -6.7466    -0.6471     0.0646 C.2     
  12 C12           -8.0494    -0.2732     0.0793 C.2     
  13 N13           -8.0930     1.0850     0.0868 N.pl3   
  14 N14           -6.7769     1.5640     0.0823 N.2     
  15 N15           -6.2638    -1.9657     0.0530 N.am    
  16 C16           -7.1281    -2.9999     0.0560 C.2     
  17 C17           -6.6208    -4.3851     0.0437 C.ar    
  18 O18           -8.3260    -2.7911     0.0687 O.2     
  19 C19           -5.8861    -6.3477     1.2264 C.ar    
  20 C20           -5.6664    -6.9888     0.0208 C.ar    
  21 C21           -5.9149    -6.3371    -1.1736 C.ar    
  22 C22           -6.3907    -5.0394    -1.1714 C.ar    
  23 F23           -6.6332    -4.4047    -2.3391 F       
  24 C24           -6.3617    -5.0501     1.2471 C.ar    
  25 F25           -6.5752    -4.4255     2.4259 F       
  26 C26            1.2811     2.1491     0.0014 C.3     
  27 N27            1.6896     2.4054    -1.3862 N.3     
  28 C28            2.8167     3.3478    -1.4381 C.3     
  29 C29            3.2477     3.5398    -2.8946 C.3     
  30 O30            2.1286     3.9915    -3.6620 O.3     
  31 C31            1.0129     3.0972    -3.6342 C.3     
  32 C32            0.5593     2.9007    -2.1852 C.3     
  33 H33            0.9470    -0.5269    -0.0102 H       
  34 H34           -1.1513    -1.7990     0.0027 H       
  35 H35           -1.2220     3.1462     0.0371 H       
  36 H36           -4.0847     2.6434     0.0569 H       
  37 H37           -8.9014    -0.9369     0.0837 H       
  38 H38           -8.8963     1.6286     0.0972 H       
  39 H39           -5.3082    -2.1322     0.0428 H       
  40 H40           -5.6895    -6.8640     2.1544 H       
  41 H41           -5.2944    -8.0027     0.0118 H       
  42 H42           -5.7403    -6.8450    -2.1106 H       
  43 H43            1.1467     3.0974     0.5216 H       
  44 H44            2.0512     1.5645     0.5047 H       
  45 H45            2.5093     4.3063    -1.0201 H       
  46 H46            3.6512     2.9493    -0.8611 H       
  47 H47            4.0455     4.2810    -2.9434 H       
  48 H48            3.6057     2.5919    -3.2962 H       
  49 H49            0.1943     3.5183    -4.2179 H       
  50 H50            1.3059     2.1364    -4.0574 H       
  51 H51           -0.2541     2.1757    -2.1536 H       
  52 H52            0.2157     3.8521    -1.7792 H       
@<TRIPOS>BOND
   1    1    2 ar
   2    1   26 1
   3    1    6 ar
   4    2    3 ar
   5    2   33 1
   6    3    4 ar
   7    3   34 1
   8    4    5 ar
   9    4    7 1
  10    5    6 ar
  11    5    9 1
  12    6   35 1
  13    7    8 2
  14    8    9 1
  15    8   10 1
  16    9   36 1
  17   10   11 1
  18   10   14 2
  19   11   12 2
  20   11   15 1
  21   12   13 1
  22   12   37 1
  23   13   14 1
  24   13   38 1
  25   15   16 am
  26   15   39 1
  27   16   17 1
  28   16   18 2
  29   17   22 ar
  30   17   24 ar
  31   19   20 ar
  32   19   24 ar
  33   19   40 1
  34   20   21 ar
  35   20   41 1
  36   21   22 ar
  37   21   42 1
  38   22   23 1
  39   24   25 1
  40   26   27 1
  41   26   43 1
  42   26   44 1
  43   27   28 1
  44   27   32 1
  45   28   29 1
  46   28   45 1
  47   28   46 1
  48   29   30 1
  49   29   47 1
  50   29   48 1
  51   30   31 1
  52   31   32 1
  53   31   49 1
  54   31   50 1
  55   32   51 1
  56   32   52 1

#	End of record

