#	Name: ASD01230127
#	Creating user name:	WinNT
#	Creation time:	15. 06. 2019 19:11

#	Modifying user name:	WinNT
#	Modification time:	15. 06. 2019 19:11

#	Program:	/corina/corina34_cracker 3.40 0067  02.08.2006

@<TRIPOS>MOLECULE
ASD01230127
  55   58    0    0    0
SMALL
NO_CHARGES


@<TRIPOS>ATOM
   1 P1             0.6167     1.8460    -0.0685 P.3     
   2 O2             0.8462     0.4276    -0.4233 O.2     
   3 O3             1.6408     2.2806     1.0953 O.3     
   4 O4             0.8555     2.7691    -1.3658 O.3     
   5 N5            -0.9645     2.0397     0.4745 N.3     
   6 O6            -3.3334     0.5549     2.3096 O.3     
   7 C7            -2.2988     0.2655     1.5077 C.2     
   8 C8            -1.1936     1.2793     1.7103 C.3     
   9 C9            -1.7127     2.2120     2.8272 C.3     
  10 C10           -2.8855     1.3943     3.4148 C.3     
  11 O11           -2.2549    -0.6656     0.7390 O.2     
  12 C12            1.7832     1.3549     2.0804 C.ar    
  13 C13            2.4316     0.1568     1.8191 C.ar    
  14 C14            2.5758    -0.7826     2.8217 C.ar    
  15 C15            2.0740    -0.5289     4.0859 C.ar    
  16 C16            1.4269     0.6656     4.3485 C.ar    
  17 C17            1.2854     1.6096     3.3499 C.ar    
  18 Cl18           2.2559    -1.7111     5.3441 Cl      
  19 C19            0.2522     2.5015    -2.6332 C.3     
  20 O20            2.1032     3.4606    -3.9058 O.3     
  21 C21            0.6875     3.5676    -3.6406 C.3     
  22 C22            0.0104     3.3242    -5.0075 C.3     
  23 C23            1.0986     3.7003    -6.0379 C.3     
  24 C24            2.3046     4.1263    -5.1715 C.3     
  25 O25           -1.1334     4.1677    -5.1570 O.3     
  26 F26            1.4291     2.5939    -6.8277 F       
  27 F27            0.6694     4.7646    -6.8379 F       
  28 C28            3.7866     2.3684    -5.9661 C.2     
  29 N29            4.9165     1.9372    -6.5240 N.2     
  30 C30            5.8476     2.7957    -6.9189 C.2     
  31 C31            5.6381     4.1793    -6.7460 C.2     
  32 C32            4.4843     4.6020    -6.1773 C.2     
  33 N33            3.5574     3.6823    -5.7876 N.am    
  34 O34            2.9436     1.5593    -5.6159 O.2     
  35 N35            7.0110     2.3387    -7.4934 N.pl3   
  36 H36           -1.1853     3.0157     0.6043 H       
  37 H37           -0.2764     0.7825     2.0266 H       
  38 H38           -0.9428     2.3824     3.5797 H       
  39 H39           -2.0668     3.1554     2.4118 H       
  40 H40           -3.6875     2.0577     3.7383 H       
  41 H41           -2.5414     0.7782     4.2456 H       
  42 H42            2.8232    -0.0417     0.8323 H       
  43 H43            3.0803    -1.7157     2.6185 H       
  44 H44            1.0358     0.8618     5.3359 H       
  45 H45            0.7838     2.5435     3.5563 H       
  46 H46            0.5669     1.5190    -2.9852 H       
  47 H47           -0.8328     2.5202    -2.5304 H       
  48 H48            0.4453     4.5633    -3.2690 H       
  49 H49           -0.2702     2.2763    -5.1136 H       
  50 H50            2.3103     5.2077    -5.0348 H       
  51 H51           -1.5972     4.0562    -5.9982 H       
  52 H52            6.3866     4.8909    -7.0620 H       
  53 H53            4.3007     5.6566    -6.0338 H       
  54 H54            7.1523     1.3862    -7.6108 H       
  55 H55            7.6899     2.9688    -7.7812 H       
@<TRIPOS>BOND
   1    1    2 2
   2    1    3 1
   3    1    4 1
   4    1    5 1
   5    3   12 1
   6    4   19 1
   7    5    8 1
   8    5   36 1
   9    6    7 1
  10    6   10 1
  11    7    8 1
  12    7   11 2
  13    8    9 1
  14    8   37 1
  15    9   10 1
  16    9   38 1
  17    9   39 1
  18   10   40 1
  19   10   41 1
  20   12   13 ar
  21   12   17 ar
  22   13   14 ar
  23   13   42 1
  24   14   15 ar
  25   14   43 1
  26   15   16 ar
  27   15   18 1
  28   16   17 ar
  29   16   44 1
  30   17   45 1
  31   19   21 1
  32   19   46 1
  33   19   47 1
  34   20   21 1
  35   20   24 1
  36   21   22 1
  37   21   48 1
  38   22   23 1
  39   22   25 1
  40   22   49 1
  41   23   24 1
  42   23   26 1
  43   23   27 1
  44   24   33 1
  45   24   50 1
  46   25   51 1
  47   28   29 1
  48   28   33 am
  49   28   34 2
  50   29   30 2
  51   30   31 1
  52   30   35 1
  53   31   32 2
  54   31   52 1
  55   32   33 1
  56   32   53 1
  57   35   54 1
  58   35   55 1

#	End of record

