#	Name: ASD06340015
#	Creating user name:	WinNT
#	Creation time:	15. 06. 2019 21:05

#	Modifying user name:	WinNT
#	Modification time:	15. 06. 2019 21:05

#	Program:	/corina/corina34_cracker 3.40 0067  02.08.2006

@<TRIPOS>MOLECULE
ASD06340015
  43   45    0    0    0
SMALL
NO_CHARGES


@<TRIPOS>ATOM
   1 N1            -0.0094     0.9737     0.2543 N.am    
   2 C2             0.0771    -0.3437     0.1439 C.2     
   3 N3             1.3118    -0.8671     0.0906 N.am    
   4 S4             2.3851     0.4450     0.1915 S.3     
   5 C5             1.1545     1.6437     0.3009 C.2     
   6 C6             1.6627    -2.2843    -0.0297 C.3     
   7 C7            -1.3013     1.6618     0.3158 C.3     
   8 O8             1.3068     2.8474     0.3994 O.2     
   9 O9            -0.9156    -1.0457     0.0936 O.2     
  10 C10            1.6586    -2.6872    -1.5057 C.3     
  11 C11            2.0251    -4.1673    -1.6314 C.3     
  12 C12            2.0210    -4.5701    -3.1074 C.3     
  13 C13           -1.6796     1.8922     1.7563 C.2     
  14 N14           -2.4993     2.8554     2.2372 N.pl3   
  15 C15           -1.2724     1.1737     2.8286 C.2     
  16 N16           -1.8507     1.7287     3.8996 N.2     
  17 N17           -2.5712     2.7227     3.5154 N.2     
  18 C18           -3.1869     3.8742     1.4399 C.3     
  19 C19           -4.5693     3.3882     1.0880 C.ar    
  20 C20           -5.6398     3.6978     1.9060 C.ar    
  21 C21           -4.7677     2.6376    -0.0557 C.ar    
  22 C22           -6.0358     2.1919    -0.3785 C.ar    
  23 C23           -7.1053     2.4963     0.4427 C.ar    
  24 C24           -6.9078     3.2520     1.5832 C.ar    
  25 H25            2.6553    -2.4497     0.3893 H       
  26 H26            0.9342    -2.8864     0.5133 H       
  27 H27           -1.2273     2.6202    -0.1981 H       
  28 H28           -2.0628     1.0488    -0.1662 H       
  29 H29            0.6661    -2.5218    -1.9247 H       
  30 H30            2.3871    -2.0851    -2.0487 H       
  31 H31            3.0177    -4.3326    -1.2124 H       
  32 H32            1.2966    -4.7694    -1.0884 H       
  33 H33            1.0285    -4.4048    -3.5264 H       
  34 H34            2.7496    -3.9680    -3.6504 H       
  35 H35            2.2822    -5.6246    -3.1970 H       
  36 H36           -0.6110     0.3199     2.8210 H       
  37 H37           -3.2616     4.7967     2.0157 H       
  38 H38           -2.6237     4.0611     0.5256 H       
  39 H39           -5.4854     4.2877     2.7974 H       
  40 H40           -3.9321     2.3998    -0.6973 H       
  41 H41           -6.1910     1.6061    -1.2725 H       
  42 H42           -8.0961     2.1483     0.1903 H       
  43 H43           -7.7434     3.4899     2.2248 H       
@<TRIPOS>BOND
   1    1    2 am
   2    1    5 am
   3    1    7 1
   4    2    3 am
   5    2    9 2
   6    3    4 1
   7    3    6 1
   8    4    5 1
   9    5    8 2
  10    6   10 1
  11    6   25 1
  12    6   26 1
  13    7   13 1
  14    7   27 1
  15    7   28 1
  16   10   11 1
  17   10   29 1
  18   10   30 1
  19   11   12 1
  20   11   31 1
  21   11   32 1
  22   12   33 1
  23   12   34 1
  24   12   35 1
  25   13   14 1
  26   13   15 2
  27   14   18 1
  28   14   17 1
  29   15   16 1
  30   15   36 1
  31   16   17 2
  32   18   19 1
  33   18   37 1
  34   18   38 1
  35   19   20 ar
  36   19   21 ar
  37   20   24 ar
  38   20   39 1
  39   21   22 ar
  40   21   40 1
  41   22   23 ar
  42   22   41 1
  43   23   24 ar
  44   23   42 1
  45   24   43 1

#	End of record

