#	Name: ASD09740511
#	Creating user name:	WinNT
#	Creation time:	15. 06. 2019 21:23

#	Modifying user name:	WinNT
#	Modification time:	15. 06. 2019 21:23

#	Program:	/corina/corina34_cracker 3.40 0067  02.08.2006

@<TRIPOS>MOLECULE
ASD09740511
  60   63    0    0    0
SMALL
NO_CHARGES


@<TRIPOS>ATOM
   1 N1            -0.0944     1.3695     0.7156 N.2     
   2 C2            -0.1041     0.0822     0.9572 C.2     
   3 C3             1.0399     1.9948     0.8634 C.2     
   4 S4             2.2745     0.8454     1.3709 S.3     
   5 C5             1.0789    -0.4492     1.3355 C.2     
   6 C6             1.2560     3.4392     0.6397 C.ar    
   7 C7             0.1961     4.2477     0.2375 C.ar    
   8 C8             2.5238     3.9955     0.8375 C.ar    
   9 C9             2.7308     5.3419     0.6308 C.ar    
  10 C10            1.6829     6.1562     0.2248 C.ar    
  11 C11            0.4059     5.6101     0.0279 C.ar    
  12 O12            1.8923     7.4813     0.0232 O.3     
  13 C13            3.2384     7.9489     0.1299 C.3     
  14 C14            3.4015     9.2265    -0.6960 C.3     
  15 C15            3.5608     8.2448     1.5960 C.3     
  16 C16           -0.6773     6.4479    -0.3910 C.1     
  17 N17           -1.5366     7.1125    -0.7233 N.1     
  18 C18            1.3271    -1.8687     1.6634 C.ar    
  19 C19            2.3999    -2.5459     1.0753 C.ar    
  20 C20            2.6264    -3.8705     1.3859 C.ar    
  21 C21            1.7907    -4.5246     2.2783 C.ar    
  22 C22            0.7283    -3.8601     2.8616 C.ar    
  23 C23            0.4951    -2.5331     2.5644 C.ar    
  24 C24            3.4401    -2.0651     0.0866 C.3     
  25 C25            4.5785    -3.1047     0.1612 C.3     
  26 C26            3.8357    -4.3748     0.6272 C.3     
  27 N27            4.6933    -5.1707     1.5089 N.am    
  28 S28            4.6111    -6.8243     1.4720 S.o2    
  29 O29            5.5457    -7.2436     2.4568 O.2     
  30 O30            3.2257    -7.1094     1.6082 O.2     
  31 C31            5.1925    -7.2694    -0.1877 C.3     
  32 C32            5.1633    -8.7679    -0.3450 C.2     
  33 O33            5.5534    -9.3292    -1.5003 O.3     
  34 O34            4.7888    -9.4641     0.5687 O.2     
  35 C35            5.4990   -10.7779    -1.5807 C.3     
  36 H36           -0.9989    -0.5148     0.8606 H       
  37 H37           -0.7848     3.8211     0.0881 H       
  38 H38            3.3435     3.3674     1.1538 H       
  39 H39            3.7122     5.7652     0.7857 H       
  40 H40            3.9193     7.1847    -0.2447 H       
  41 H41            2.7206     9.9908    -0.3214 H       
  42 H42            4.4283     9.5832    -0.6146 H       
  43 H43            3.1719     9.0157    -1.7405 H       
  44 H44            2.8799     9.0091     1.9707 H       
  45 H45            3.4446     7.3347     2.1844 H       
  46 H46            4.5875     8.6015     1.6774 H       
  47 H47            1.9711    -5.5618     2.5194 H       
  48 H48            0.0830    -4.3788     3.5551 H       
  49 H49           -0.3349    -2.0135     3.0199 H       
  50 H50            3.0207    -2.0349    -0.9191 H       
  51 H51            3.8080    -1.0800     0.3736 H       
  52 H52            5.0291    -3.2572    -0.8196 H       
  53 H53            5.3299    -2.8050     0.8918 H       
  54 H54            3.5227    -4.9670    -0.2327 H       
  55 H55            5.3093    -4.7291     2.1142 H       
  56 H56            4.5431    -6.8130    -0.9347 H       
  57 H57            6.2122    -6.9095    -0.3242 H       
  58 H58            5.8402   -11.1002    -2.5645 H       
  59 H59            6.1426   -11.2088    -0.8138 H       
  60 H60            4.4734   -11.1122    -1.4243 H       
@<TRIPOS>BOND
   1    1    2 1
   2    1    3 2
   3    2    5 2
   4    2   36 1
   5    3    4 1
   6    3    6 1
   7    4    5 1
   8    5   18 1
   9    6    7 ar
  10    6    8 ar
  11    7   11 ar
  12    7   37 1
  13    8    9 ar
  14    8   38 1
  15    9   10 ar
  16    9   39 1
  17   10   11 ar
  18   10   12 1
  19   11   16 1
  20   12   13 1
  21   13   14 1
  22   13   15 1
  23   13   40 1
  24   14   41 1
  25   14   42 1
  26   14   43 1
  27   15   44 1
  28   15   45 1
  29   15   46 1
  30   16   17 3
  31   18   19 ar
  32   18   23 ar
  33   19   20 ar
  34   19   24 1
  35   20   21 ar
  36   20   26 1
  37   21   22 ar
  38   21   47 1
  39   22   23 ar
  40   22   48 1
  41   23   49 1
  42   24   25 1
  43   24   50 1
  44   24   51 1
  45   25   26 1
  46   25   52 1
  47   25   53 1
  48   26   27 1
  49   26   54 1
  50   27   28 am
  51   27   55 1
  52   28   29 2
  53   28   30 2
  54   28   31 1
  55   31   32 1
  56   31   56 1
  57   31   57 1
  58   32   33 1
  59   32   34 2
  60   33   35 1
  61   35   58 1
  62   35   59 1
  63   35   60 1

#	End of record

