#	Name: ASD01810574
#	Creating user name:	WinNT
#	Creation time:	15. 06. 2019 19:24

#	Modifying user name:	WinNT
#	Modification time:	15. 06. 2019 19:24

#	Program:	/corina/corina34_cracker 3.40 0067  02.08.2006

@<TRIPOS>MOLECULE
ASD01810574
  41   45    0    0    0
SMALL
NO_CHARGES


@<TRIPOS>ATOM
   1 C1            -0.0167     1.3812     0.0096 C.ar    
   2 C2             0.0021    -0.0041     0.0020 C.ar    
   3 C3             1.1984    -0.6908    -0.0131 C.ar    
   4 C4             2.4015     0.0061    -0.0204 C.ar    
   5 C5             2.3789     1.4106    -0.0127 C.ar    
   6 C6             1.1664     2.0916     0.0022 C.ar    
   7 N7             3.6054    -0.6770    -0.0347 N.pl3   
   8 C8             4.7971    -0.0584    -0.0423 C.2     
   9 C9             4.9001     1.3105    -0.0364 C.2     
  10 C10            3.6673     2.1304    -0.0207 C.2     
  11 C11            5.9972     2.2731    -0.0422 C.2     
  12 N12            5.4244     3.4961    -0.0313 N.am    
  13 N13            4.0322     3.3795    -0.0185 N.2     
  14 C14            6.1581     4.7641    -0.0316 C.3     
  15 C15            6.3973     5.2057    -1.4525 C.ar    
  16 C16            5.4697     6.0081    -2.0911 C.ar    
  17 C17            5.6863     6.4149    -3.3931 C.ar    
  18 C18            6.8369     6.0173    -4.0608 C.ar    
  19 C19            7.7664     5.2116    -3.4169 C.ar    
  20 C20            7.5467     4.8125    -2.1131 C.ar    
  21 N21            7.0594     6.4281    -5.3824 N.pl3   
  22 N22            6.2101     7.2369    -6.1485 N.2     
  23 C23            6.7551     7.4019    -7.3268 C.2     
  24 C24            7.9678     6.7045    -7.3501 C.2     
  25 C25            8.1347     6.1185    -6.1417 C.2     
  26 O26            7.1917     2.0232    -0.0541 O.2     
  27 H27           -0.9602     1.9068     0.0170 H       
  28 H28           -0.9288    -0.5516     0.0083 H       
  29 H29            1.2005    -1.7708    -0.0189 H       
  30 H30            1.1508     3.1714     0.0084 H       
  31 H31            3.5873    -1.6468    -0.0391 H       
  32 H32            5.6984    -0.6535    -0.0530 H       
  33 H33            5.5743     5.5219     0.4910 H       
  34 H34            7.1149     4.6304     0.4732 H       
  35 H35            4.5747     6.3168    -1.5713 H       
  36 H36            4.9613     7.0412    -3.8915 H       
  37 H37            8.6622     4.9005    -3.9338 H       
  38 H38            8.2694     4.1858    -1.6117 H       
  39 H39            6.3400     7.9771    -8.1413 H       
  40 H40            8.6519     6.6472    -8.1838 H       
  41 H41            8.9732     5.5084    -5.8400 H       
@<TRIPOS>BOND
   1    1    2 ar
   2    1    6 ar
   3    1   27 1
   4    2    3 ar
   5    2   28 1
   6    3    4 ar
   7    3   29 1
   8    4    5 ar
   9    4    7 1
  10    5    6 ar
  11    5   10 1
  12    6   30 1
  13    7    8 1
  14    7   31 1
  15    8    9 2
  16    8   32 1
  17    9   10 1
  18    9   11 1
  19   10   13 2
  20   11   12 am
  21   11   26 2
  22   12   13 1
  23   12   14 1
  24   14   15 1
  25   14   33 1
  26   14   34 1
  27   15   16 ar
  28   15   20 ar
  29   16   17 ar
  30   16   35 1
  31   17   18 ar
  32   17   36 1
  33   18   19 ar
  34   18   21 1
  35   19   20 ar
  36   19   37 1
  37   20   38 1
  38   21   22 1
  39   21   25 1
  40   22   23 2
  41   23   24 1
  42   23   39 1
  43   24   25 2
  44   24   40 1
  45   25   41 1

#	End of record

