#	Name: ASD01010023
#	Creating user name:	WinNT
#	Creation time:	15. 06. 2019 18:56

#	Modifying user name:	WinNT
#	Modification time:	15. 06. 2019 18:56

#	Program:	/corina/corina34_cracker 3.40 0067  02.08.2006

@<TRIPOS>MOLECULE
ASD01010023
  16   16    0    0    0
SMALL
NO_CHARGES


@<TRIPOS>ATOM
   1 C1            -0.0179     1.4698     0.0101 C.2     
   2 C2             0.0021    -0.0041     0.0020 C.ar    
   3 C3             1.2235    -0.6927    -0.0133 C.ar    
   4 O4             2.3930    -0.0054    -0.0208 O.3     
   5 C5             1.2307    -2.0793    -0.0204 C.ar    
   6 C6             0.0396    -2.7780    -0.0123 C.ar    
   7 C7            -1.1700    -2.1018     0.0024 C.ar    
   8 C8            -1.1959    -0.7232     0.0154 C.ar    
   9 O9             1.0260     2.0916     0.0035 O.2     
  10 O10           -1.1939     2.1276     0.0193 O.3     
  11 Br11          -2.7920    -3.0739     0.0127 Br      
  12 H12            2.7405     0.1892     0.8603 H       
  13 H13            2.1692    -2.6135    -0.0326 H       
  14 H14            0.0508    -3.8580    -0.0178 H       
  15 H15           -2.1406    -0.2001     0.0318 H       
  16 H16           -1.1564     3.0939     0.0244 H       
@<TRIPOS>BOND
   1    1    2 1
   2    1    9 2
   3    1   10 1
   4    2    3 ar
   5    2    8 ar
   6    3    4 1
   7    3    5 ar
   8    4   12 1
   9    5    6 ar
  10    5   13 1
  11    6    7 ar
  12    6   14 1
  13    7    8 ar
  14    7   11 1
  15    8   15 1
  16   10   16 1

#	End of record

