#	Name: ASD01840524
#	Creating user name:	WinNT
#	Creation time:	15. 06. 2019 19:37

#	Modifying user name:	WinNT
#	Modification time:	15. 06. 2019 19:37

#	Program:	/corina/corina34_cracker 3.40 0067  02.08.2006

@<TRIPOS>MOLECULE
ASD01840524
  48   51    0    0    0
SMALL
NO_CHARGES


@<TRIPOS>ATOM
   1 C1            -0.5886    -1.2132     1.0253 C.3     
   2 O2            -0.0622    -0.2657     0.0941 O.3     
   3 C3             0.5648    -0.7625    -1.0028 C.ar    
   4 C4             1.1017     0.1096    -1.9403 C.ar    
   5 C5             1.7389    -0.4070    -3.0551 C.ar    
   6 C6             1.8167    -1.7898    -3.1927 C.ar    
   7 O7             2.4342    -2.3405    -4.2720 O.3     
   8 C8             2.8809    -1.4441    -5.2913 C.3     
   9 C9             4.2695    -0.9094    -4.9299 C.3     
  10 C10            4.7682     0.0018    -6.0537 C.3     
  11 N11            4.8275    -0.7559    -7.3101 N.3     
  12 C12            3.4974    -1.2392    -7.7021 C.3     
  13 C13            2.9607    -2.1875    -6.6275 C.3     
  14 C14            5.3978     0.0011    -8.3197 C.ar    
  15 N15            4.7781     1.0913    -8.7387 N.ar    
  16 C16            5.2920     1.8451    -9.7052 C.ar    
  17 C17            4.6156     3.0547   -10.1774 C.2     
  18 N18            5.1454     3.7693   -11.1244 N.2     
  19 N19            6.3569     3.4376   -11.7318 N.am    
  20 C20            7.0558     2.3427   -11.3659 C.2     
  21 O21            8.1122     2.0708   -11.9086 O.2     
  22 C22            6.5208     1.4873   -10.3042 C.ar    
  23 C23            7.1883     0.3351    -9.8717 C.ar    
  24 C24            6.6194    -0.4017    -8.8694 C.ar    
  25 C25            7.3026    -1.6462    -8.3640 C.3     
  26 C26            1.2577    -2.5983    -2.2163 C.ar    
  27 N27            0.6621    -2.0713    -1.1634 N.ar    
  28 H28           -1.3257    -1.8422     0.5262 H       
  29 H29            0.2208    -1.8354     1.4073 H       
  30 H30           -1.0622    -0.6849     1.8527 H       
  31 H31            1.0227     1.1778    -1.8017 H       
  32 H32            2.1655     0.2475    -3.8008 H       
  33 H33            2.1808    -0.6132    -5.3780 H       
  34 H34            4.2107    -0.3426    -4.0007 H       
  35 H35            4.9595    -1.7439    -4.8048 H       
  36 H36            4.0851     0.8434    -6.1690 H       
  37 H37            5.7627     0.3729    -5.8060 H       
  38 H38            2.8203    -0.3918    -7.8096 H       
  39 H39            3.5690    -1.7695    -8.6516 H       
  40 H40            3.6302    -3.0421    -6.5291 H       
  41 H41            1.9669    -2.5338    -6.9112 H       
  42 H42            3.6751     3.3531    -9.7383 H       
  43 H43            6.7054     4.0080   -12.4347 H       
  44 H44            8.1288     0.0396   -10.3130 H       
  45 H45            7.0349    -2.4909    -8.9989 H       
  46 H46            8.3828    -1.5024    -8.3869 H       
  47 H47            6.9841    -1.8455    -7.3408 H       
  48 H48            1.3139    -3.6723    -2.3159 H       
@<TRIPOS>BOND
   1    1    2 1
   2    1   28 1
   3    1   29 1
   4    1   30 1
   5    2    3 1
   6    3   27 ar
   7    3    4 ar
   8    4    5 ar
   9    4   31 1
  10    5    6 ar
  11    5   32 1
  12    6    7 1
  13    6   26 ar
  14    7    8 1
  15    8   13 1
  16    8    9 1
  17    8   33 1
  18    9   10 1
  19    9   34 1
  20    9   35 1
  21   10   11 1
  22   10   36 1
  23   10   37 1
  24   11   12 1
  25   11   14 1
  26   12   13 1
  27   12   38 1
  28   12   39 1
  29   13   40 1
  30   13   41 1
  31   14   24 ar
  32   14   15 ar
  33   15   16 ar
  34   16   22 ar
  35   16   17 1
  36   17   18 2
  37   17   42 1
  38   18   19 1
  39   19   20 am
  40   19   43 1
  41   20   21 2
  42   20   22 1
  43   22   23 ar
  44   23   24 ar
  45   23   44 1
  46   24   25 1
  47   25   45 1
  48   25   46 1
  49   25   47 1
  50   26   27 ar
  51   26   48 1

#	End of record

