#	Name: ASD01813842
#	Creating user name:	WinNT
#	Creation time:	15. 06. 2019 19:31

#	Modifying user name:	WinNT
#	Modification time:	15. 06. 2019 19:31

#	Program:	/corina/corina34_cracker 3.40 0067  02.08.2006

@<TRIPOS>MOLECULE
ASD01813842
  49   52    0    0    0
SMALL
NO_CHARGES


@<TRIPOS>ATOM
   1 C1             0.0978     1.5358    -0.0284 C.2     
   2 C2             0.0762     0.1346    -0.0396 C.2     
   3 C3             1.2532    -0.5551    -0.0443 C.2     
   4 C4             2.4675     0.1514    -0.0378 C.2     
   5 N5             2.4591     1.5198    -0.0265 N.am    
   6 C6             1.2765     2.1983    -0.0223 C.2     
   7 C7             3.6785    -0.5551    -0.0425 C.2     
   8 C8             4.8637     0.1215    -0.0359 C.2     
   9 C9             4.8512     1.5286    -0.0247 C.2     
  10 C10            3.6171     2.2103    -0.0199 C.2     
  11 O11            3.5970     3.4295    -0.0106 O.2     
  12 C12            6.1093     2.2784    -0.0170 C.2     
  13 O13            6.0905     3.6272    -0.0063 O.3     
  14 O14            7.1711     1.6849    -0.0201 O.2     
  15 C15            3.6714    -2.0620    -0.0545 C.3     
  16 N16            3.7909    -2.5413    -1.4379 N.3     
  17 C17            4.0254    -3.9916    -1.4744 C.3     
  18 C18            4.0644    -4.4628    -2.9301 C.3     
  19 N19            5.1256    -3.7424    -3.6473 N.3     
  20 C20            4.8910    -2.2921    -3.6107 C.3     
  21 C21            4.8521    -1.8208    -2.1551 C.3     
  22 C22            5.2386    -4.1960    -4.9566 C.ar    
  23 C23            5.6768    -5.5043    -5.2146 C.ar    
  24 C24            5.7860    -5.9474    -6.5353 C.ar    
  25 C25            5.4639    -5.1004    -7.5733 C.ar    
  26 C26            5.0316    -3.8094    -7.3151 C.ar    
  27 C27            4.9131    -3.3588    -6.0159 C.ar    
  28 C28            6.0104    -6.3792    -4.1312 C.1     
  29 N29            6.2750    -7.0733    -3.2717 N.1     
  30 H30           -0.8301     2.0884    -0.0291 H       
  31 H31           -0.8650    -0.3951    -0.0442 H       
  32 H32            1.2516    -1.6350    -0.0526 H       
  33 H33            1.2813     3.2783    -0.0133 H       
  34 H34            5.8000    -0.4167    -0.0387 H       
  35 H35            6.9460     4.0781    -0.0015 H       
  36 H36            4.5111    -2.4339     0.5327 H       
  37 H37            2.7381    -2.4244     0.3763 H       
  38 H38            4.9768    -4.2183    -0.9932 H       
  39 H39            3.2201    -4.5036    -0.9479 H       
  40 H40            4.2671    -5.5334    -2.9604 H       
  41 H41            3.1036    -4.2608    -3.4036 H       
  42 H42            5.6964    -1.7801    -4.1373 H       
  43 H43            3.9396    -2.0654    -4.0920 H       
  44 H44            4.6493    -0.7503    -2.1248 H       
  45 H45            5.8128    -2.0229    -1.6816 H       
  46 H46            6.1227    -6.9525    -6.7422 H       
  47 H47            5.5491    -5.4444    -8.5935 H       
  48 H48            4.7815    -3.1531    -8.1355 H       
  49 H49            4.5755    -2.3513    -5.8231 H       
@<TRIPOS>BOND
   1    1    2 1
   2    1    6 2
   3    1   30 1
   4    2    3 2
   5    2   31 1
   6    3    4 1
   7    3   32 1
   8    4    5 1
   9    4    7 2
  10    5    6 1
  11    5   10 am
  12    6   33 1
  13    7    8 1
  14    7   15 1
  15    8    9 2
  16    8   34 1
  17    9   10 1
  18    9   12 1
  19   10   11 2
  20   12   13 1
  21   12   14 2
  22   13   35 1
  23   15   16 1
  24   15   36 1
  25   15   37 1
  26   16   17 1
  27   16   21 1
  28   17   18 1
  29   17   38 1
  30   17   39 1
  31   18   19 1
  32   18   40 1
  33   18   41 1
  34   19   20 1
  35   19   22 1
  36   20   21 1
  37   20   42 1
  38   20   43 1
  39   21   44 1
  40   21   45 1
  41   22   23 ar
  42   22   27 ar
  43   23   24 ar
  44   23   28 1
  45   24   25 ar
  46   24   46 1
  47   25   26 ar
  48   25   47 1
  49   26   27 ar
  50   26   48 1
  51   27   49 1
  52   28   29 3

#	End of record

