#	Name: ASD03090716
#	Creating user name:	WinNT
#	Creation time:	15. 06. 2019 20:29

#	Modifying user name:	WinNT
#	Modification time:	15. 06. 2019 20:29

#	Program:	/corina/corina34_cracker 3.40 0067  02.08.2006

@<TRIPOS>MOLECULE
ASD03090716
  41   42    0    0    0
SMALL
NO_CHARGES


@<TRIPOS>ATOM
   1 N1            -0.0162     1.3436     0.0094 N.am    
   2 C2            -0.1348     0.0013     0.0382 C.2     
   3 O3             0.8564    -0.6984    -0.0420 O.2     
   4 N4            -1.3520    -0.5653     0.1560 N.am    
   5 O5            -2.3645    -3.8319     0.2906 O.3     
   6 N6            -2.5809    -2.6423     0.2948 N.2     
   7 C7            -1.4747    -1.9543     0.1858 C.2     
   8 C8            -0.4229    -2.9052     0.1031 C.2     
   9 C9            -1.0554    -4.0984     0.1758 C.2     
  10 C10           -0.4140    -5.4615     0.1355 C.3     
  11 C11           -0.7345    -6.2143     1.4283 C.3     
  12 C12           -0.9584    -6.2461    -1.0599 C.3     
  13 C13            1.2562     1.9358     0.0099 C.ar    
  14 C14            1.4709     3.1264    -0.6799 C.ar    
  15 C15            2.7272     3.7094    -0.6778 C.ar    
  16 C16            3.7694     3.1074     0.0108 C.ar    
  17 C17            3.5548     1.9201     0.6979 C.ar    
  18 C18            2.2993     1.3388     0.7019 C.ar    
  19 O19            5.0032     3.6802     0.0127 O.3     
  20 C20            5.1529     4.9008    -0.7152 C.3     
  21 O21            0.4479     3.7159    -1.3553 O.3     
  22 C22            0.7404     4.9354    -2.0403 C.3     
  23 F23            4.5716     1.3348     1.3678 F       
  24 H24           -0.8102     1.9002    -0.0156 H       
  25 H25           -2.1426    -0.0071     0.2201 H       
  26 H26            0.6363    -2.7187     0.0044 H       
  27 H27            0.6660    -5.3521     0.0369 H       
  28 H28           -0.2706    -7.2002     1.3992 H       
  29 H29           -0.3466    -5.6553     2.2799 H       
  30 H30           -1.8145    -6.3237     1.5269 H       
  31 H31           -0.7301    -5.7098    -1.9810 H       
  32 H32           -0.4945    -7.2321    -1.0890 H       
  33 H33           -2.0384    -6.3555    -0.9613 H       
  34 H34            2.8951     4.6326    -1.2126 H       
  35 H35            2.1326     0.4176     1.2405 H       
  36 H36            4.4798     5.6536    -0.3047 H       
  37 H37            6.1822     5.2496    -0.6320 H       
  38 H38            4.9108     4.7303    -1.7642 H       
  39 H39            1.0862     5.6806    -1.3240 H       
  40 H40            1.5178     4.7574    -2.7833 H       
  41 H41           -0.1599     5.2985    -2.5362 H       
@<TRIPOS>BOND
   1    1    2 am
   2    1   13 1
   3    1   24 1
   4    2    3 2
   5    2    4 am
   6    4    7 1
   7    4   25 1
   8    5    6 1
   9    5    9 1
  10    6    7 2
  11    7    8 1
  12    8    9 2
  13    8   26 1
  14    9   10 1
  15   10   11 1
  16   10   12 1
  17   10   27 1
  18   11   28 1
  19   11   29 1
  20   11   30 1
  21   12   31 1
  22   12   32 1
  23   12   33 1
  24   13   14 ar
  25   13   18 ar
  26   14   15 ar
  27   14   21 1
  28   15   16 ar
  29   15   34 1
  30   16   17 ar
  31   16   19 1
  32   17   18 ar
  33   17   23 1
  34   18   35 1
  35   19   20 1
  36   20   36 1
  37   20   37 1
  38   20   38 1
  39   21   22 1
  40   22   39 1
  41   22   40 1
  42   22   41 1

#	End of record

