#	Name: ASD01918384
#	Creating user name:	WinNT
#	Creation time:	15. 06. 2019 20:11

#	Modifying user name:	WinNT
#	Modification time:	15. 06. 2019 20:11

#	Program:	/corina/corina34_cracker 3.40 0067  02.08.2006

@<TRIPOS>MOLECULE
ASD01918384
  46   49    0    0    0
SMALL
NO_CHARGES


@<TRIPOS>ATOM
   1 C1            -0.4768     0.6683    -1.0886 C.ar    
   2 C2             0.0142     0.0148     0.0301 C.ar    
   3 N3             1.1337    -0.6733    -0.0266 N.ar    
   4 C4             1.8352    -0.7704    -1.1490 C.ar    
   5 C5             1.4009    -0.1391    -2.3124 C.ar    
   6 C6             0.2246     0.5930    -2.2820 C.ar    
   7 C7             3.0910    -1.5565    -1.1647 C.2     
   8 O8             3.7373    -1.6488    -2.1896 O.2     
   9 N9             3.5166    -2.1693    -0.0422 N.am    
  10 C10            4.7583    -2.9465    -0.0578 C.3     
  11 C11            5.3371    -3.0121     1.3571 C.3     
  12 C12            4.3234    -3.6695     2.2960 C.3     
  13 C13            4.0294    -5.0921     1.8112 C.3     
  14 C14            3.4858    -5.0444     0.3908 C.3     
  15 C15            4.4665    -4.3656    -0.5542 C.3     
  16 O16            2.2052    -4.3987     0.3524 O.3     
  17 C17            1.2612    -5.3617     0.4391 C.2     
  18 N18            1.7052    -6.5549     0.1907 N.2     
  19 C19            3.1494    -6.4637    -0.1073 C.3     
  20 C20           -0.1500    -5.0807     0.7855 C.ar    
  21 C21           -1.0741    -6.1229     0.8577 C.ar    
  22 C22           -2.3886    -5.8552     1.1818 C.ar    
  23 C23           -2.7912    -4.5564     1.4344 C.ar    
  24 C24           -1.8790    -3.5169     1.3644 C.ar    
  25 C25           -0.5599    -3.7731     1.0469 C.ar    
  26 Cl26          -2.3934    -1.8898     1.6831 Cl      
  27 H27           -1.3994     1.2270    -1.0327 H       
  28 H28           -0.5295     0.0716     0.9616 H       
  29 H29            1.9730    -0.2187    -3.2249 H       
  30 H30           -0.1377     1.0933    -3.1680 H       
  31 H31            3.0007    -2.0957     0.7759 H       
  32 H32            5.4777    -2.4692    -0.7231 H       
  33 H33            6.2557    -3.5987     1.3467 H       
  34 H34            5.5550    -2.0032     1.7073 H       
  35 H35            4.7335    -3.7068     3.3052 H       
  36 H36            3.4011    -3.0887     2.2993 H       
  37 H37            4.9479    -5.6788     1.8289 H       
  38 H38            3.2913    -5.5538     2.4671 H       
  39 H39            4.0343    -4.3188    -1.5537 H       
  40 H40            5.3942    -4.9369    -0.5864 H       
  41 H41            3.3332    -6.5549    -1.1778 H       
  42 H42            3.7104    -7.2150     0.4485 H       
  43 H43           -0.7615    -7.1376     0.6601 H       
  44 H44           -3.1046    -6.6618     1.2378 H       
  45 H45           -3.8212    -4.3521     1.6868 H       
  46 H46            0.1512    -2.9620     0.9928 H       
@<TRIPOS>BOND
   1    1    2 ar
   2    1    6 ar
   3    1   27 1
   4    2    3 ar
   5    2   28 1
   6    3    4 ar
   7    4    5 ar
   8    4    7 1
   9    5    6 ar
  10    5   29 1
  11    6   30 1
  12    7    8 2
  13    7    9 am
  14    9   10 1
  15    9   31 1
  16   10   11 1
  17   10   15 1
  18   10   32 1
  19   11   12 1
  20   11   33 1
  21   11   34 1
  22   12   13 1
  23   12   35 1
  24   12   36 1
  25   13   14 1
  26   13   37 1
  27   13   38 1
  28   14   15 1
  29   14   16 1
  30   14   19 1
  31   15   39 1
  32   15   40 1
  33   16   17 1
  34   17   18 2
  35   17   20 1
  36   18   19 1
  37   19   41 1
  38   19   42 1
  39   20   21 ar
  40   20   25 ar
  41   21   22 ar
  42   21   43 1
  43   22   23 ar
  44   22   44 1
  45   23   24 ar
  46   23   45 1
  47   24   25 ar
  48   24   26 1
  49   25   46 1

#	End of record

