#	Name: ASD01530002
#	Creating user name:	WinNT
#	Creation time:	15. 06. 2019 19:21

#	Modifying user name:	WinNT
#	Modification time:	15. 06. 2019 19:21

#	Program:	/corina/corina34_cracker 3.40 0067  02.08.2006

@<TRIPOS>MOLECULE
ASD01530002
  45   47    0    0    0
SMALL
NO_CHARGES


@<TRIPOS>ATOM
   1 C1            -0.0476     1.7792    -0.0986 C.ar    
   2 C2            -0.1695     0.3884    -0.0653 C.ar    
   3 C3             0.9782    -0.4066    -0.0218 C.ar    
   4 C4             2.2211     0.1860    -0.0121 C.ar    
   5 C5             2.3353     1.5684    -0.0453 C.ar    
   6 C6             1.2040     2.3601    -0.0884 C.ar    
   7 C7            -1.4658    -0.2201    -0.0752 C.1     
   8 N8            -2.4940    -0.7029    -0.0831 N.1     
   9 C9             3.6221    -0.3787     0.0297 C.3     
  10 O10            4.4904     0.6849    -0.4021 O.3     
  11 C11            3.8106     1.8961    -0.0248 C.3     
  12 C12            4.2298     2.3170     1.3601 C.ar    
  13 C13            4.1177     3.0079    -1.0301 C.3     
  14 C14            5.6210     3.2922    -1.0327 C.3     
  15 C15            5.9281     4.4040    -2.0379 C.3     
  16 N16            7.3715     4.6770    -2.0404 N.3     
  17 C17            8.1244     3.5245    -2.5531 C.3     
  18 C18            7.6765     5.8901    -2.8107 C.3     
  19 C19            5.2401     1.6355     2.0130 C.ar    
  20 C20            5.6256     2.0208     3.2829 C.ar    
  21 C21            4.9997     3.0899     3.9014 C.ar    
  22 C22            3.9880     3.7716     3.2465 C.ar    
  23 C23            3.6077     3.3878     1.9746 C.ar    
  24 F24            5.3755     3.4672     5.1430 F       
  25 H25           -0.9312     2.3989    -0.1367 H       
  26 H26            0.8910    -1.4827     0.0044 H       
  27 H27            1.2994     3.4356    -0.1145 H       
  28 H28            3.8751    -0.6809     1.0460 H       
  29 H29            3.7046    -1.2291    -0.6472 H       
  30 H30            3.8057     2.6935    -2.0261 H       
  31 H31            3.5774     3.9117    -0.7485 H       
  32 H32            5.9330     3.6066    -0.0367 H       
  33 H33            6.1613     2.3884    -1.3143 H       
  34 H34            5.6160     4.0897    -3.0339 H       
  35 H35            5.3878     5.3079    -1.7563 H       
  36 H36            7.8078     3.3086    -3.5735 H       
  37 H37            9.1900     3.7535    -2.5441 H       
  38 H38            7.9339     2.6563    -1.9222 H       
  39 H39            7.1605     6.7415    -2.3671 H       
  40 H40            8.7516     6.0689    -2.7962 H       
  41 H41            7.3437     5.7598    -3.8405 H       
  42 H42            5.7279     0.8015     1.5305 H       
  43 H43            6.4146     1.4881     3.7929 H       
  44 H44            3.4991     4.6056     3.7280 H       
  45 H45            2.8187     3.9194     1.4636 H       
@<TRIPOS>BOND
   1    1    2 ar
   2    1    6 ar
   3    1   25 1
   4    2    3 ar
   5    2    7 1
   6    3    4 ar
   7    3   26 1
   8    4    5 ar
   9    4    9 1
  10    5    6 ar
  11    5   11 1
  12    6   27 1
  13    7    8 3
  14    9   10 1
  15    9   28 1
  16    9   29 1
  17   10   11 1
  18   11   12 1
  19   11   13 1
  20   12   19 ar
  21   12   23 ar
  22   13   14 1
  23   13   30 1
  24   13   31 1
  25   14   15 1
  26   14   32 1
  27   14   33 1
  28   15   16 1
  29   15   34 1
  30   15   35 1
  31   16   17 1
  32   16   18 1
  33   17   36 1
  34   17   37 1
  35   17   38 1
  36   18   39 1
  37   18   40 1
  38   18   41 1
  39   19   20 ar
  40   19   42 1
  41   20   21 ar
  42   20   43 1
  43   21   22 ar
  44   21   24 1
  45   22   23 ar
  46   22   44 1
  47   23   45 1

#	End of record

