#	Name: ASD01940439
#	Creating user name:	WinNT
#	Creation time:	15. 06. 2019 20:12

#	Modifying user name:	WinNT
#	Modification time:	15. 06. 2019 20:12

#	Program:	/corina/corina34_cracker 3.40 0067  02.08.2006

@<TRIPOS>MOLECULE
ASD01940439
  23   23    0    0    0
SMALL
NO_CHARGES


@<TRIPOS>ATOM
   1 C1            -0.0179     1.4688     0.0101 C.2     
   2 C2             0.0021    -0.0041     0.0020 C.ar    
   3 C3             1.2229    -0.6894    -0.0133 C.ar    
   4 C4             1.2369    -2.0667    -0.0209 C.ar    
   5 C5             0.0394    -2.7761    -0.0133 C.ar    
   6 C6            -1.1763    -2.0971     0.0019 C.ar    
   7 C7            -1.1984    -0.7216     0.0154 C.ar    
   8 O8             1.0262     2.0907     0.0035 O.2     
   9 O9            -1.1941     2.1267     0.0193 O.3     
  10 C10            2.5499    -2.8061    -0.0379 C.3     
  11 Cl11           2.7166     0.1953    -0.0233 Cl      
  12 N12            0.0571    -4.1661    -0.0215 N.pl3   
  13 C13           -1.1378     3.5776     0.0269 C.3     
  14 H14           -2.1032    -2.6512     0.0078 H       
  15 H15           -2.1419    -0.1964     0.0321 H       
  16 H16            2.8766    -2.9900     0.9856 H       
  17 H17            2.4246    -3.7571    -0.5557 H       
  18 H18            3.2981    -2.2062    -0.5559 H       
  19 H19            0.9032    -4.6404    -0.0324 H       
  20 H20           -0.7767    -4.6618    -0.0162 H       
  21 H21           -0.6060     3.9159     0.9162 H       
  22 H22           -0.6144     3.9256    -0.8637 H       
  23 H23           -2.1505     3.9805     0.0339 H       
@<TRIPOS>BOND
   1    1    2 1
   2    1    8 2
   3    1    9 1
   4    2    3 ar
   5    2    7 ar
   6    3    4 ar
   7    3   11 1
   8    4    5 ar
   9    4   10 1
  10    5    6 ar
  11    5   12 1
  12    6    7 ar
  13    6   14 1
  14    7   15 1
  15    9   13 1
  16   10   16 1
  17   10   17 1
  18   10   18 1
  19   12   19 1
  20   12   20 1
  21   13   21 1
  22   13   22 1
  23   13   23 1

#	End of record

