#	Name: ASD03090664
#	Creating user name:	WinNT
#	Creation time:	15. 06. 2019 20:29

#	Modifying user name:	WinNT
#	Modification time:	15. 06. 2019 20:29

#	Program:	/corina/corina34_cracker 3.40 0067  02.08.2006

@<TRIPOS>MOLECULE
ASD03090664
  38   39    0    0    0
SMALL
NO_CHARGES


@<TRIPOS>ATOM
   1 N1            -0.0162     1.3436     0.0094 N.am    
   2 C2             0.0192     0.1476     0.6299 C.2     
   3 O3             1.0726    -0.2854     1.0556 O.2     
   4 N4            -1.1130    -0.5683     0.7784 N.am    
   5 O5             0.0024    -2.4051     1.9370 O.3     
   6 N6            -0.2833    -3.4717     2.4296 N.2     
   7 C7            -1.5555    -3.7319     2.3173 C.2     
   8 C8            -2.1311    -2.6363     1.6432 C.2     
   9 C9            -1.0766    -1.7990     1.4169 C.2     
  10 C10           -2.2706    -4.9633     2.8108 C.3     
  11 F11           -1.3764    -5.7662     3.5271 F       
  12 F12           -3.3287    -4.5855     3.6443 F       
  13 F13           -2.7703    -5.6813     1.7191 F       
  14 C14            1.1454     2.1272    -0.0707 C.ar    
  15 C15            1.0455     3.5109    -0.1992 C.ar    
  16 C16            2.1934     4.2814    -0.2775 C.ar    
  17 C17            3.4399     3.6745    -0.2278 C.ar    
  18 C18            3.5374     2.2971    -0.1004 C.ar    
  19 C19            2.3934     1.5258    -0.0162 C.ar    
  20 C20            4.8929     1.6406    -0.0472 C.3     
  21 O21            4.5671     4.4310    -0.3047 O.3     
  22 C22            4.3929     5.8433    -0.4355 C.3     
  23 O23           -0.1772     4.1037    -0.2481 O.3     
  24 C24           -0.2036     5.5263    -0.3806 C.3     
  25 H25           -0.8435     1.6609    -0.3853 H       
  26 H26           -1.9534    -0.2228     0.4388 H       
  27 H27           -3.1657    -2.4927     1.3686 H       
  28 H28            2.1184     5.3541    -0.3775 H       
  29 H29            2.4717     0.4537     0.0879 H       
  30 H30            5.2256     1.5774     0.9888 H       
  31 H31            4.8278     0.6379    -0.4697 H       
  32 H32            5.6056     2.2316    -0.6224 H       
  33 H33            3.8337     6.0577    -1.3462 H       
  34 H34            3.8436     6.2230     0.4260 H       
  35 H35            5.3686     6.3266    -0.4860 H       
  36 H36            0.3081     5.9799     0.4683 H       
  37 H37            0.2989     5.8146    -1.3039 H       
  38 H38           -1.2377     5.8696    -0.4072 H       
@<TRIPOS>BOND
   1    1    2 am
   2    1   14 1
   3    1   25 1
   4    2    3 2
   5    2    4 am
   6    4    9 1
   7    4   26 1
   8    5    6 1
   9    5    9 1
  10    6    7 2
  11    7    8 1
  12    7   10 1
  13    8    9 2
  14    8   27 1
  15   10   11 1
  16   10   12 1
  17   10   13 1
  18   14   15 ar
  19   14   19 ar
  20   15   16 ar
  21   15   23 1
  22   16   17 ar
  23   16   28 1
  24   17   18 ar
  25   17   21 1
  26   18   19 ar
  27   18   20 1
  28   19   29 1
  29   20   30 1
  30   20   31 1
  31   20   32 1
  32   21   22 1
  33   22   33 1
  34   22   34 1
  35   22   35 1
  36   23   24 1
  37   24   36 1
  38   24   37 1
  39   24   38 1

#	End of record

