#	Name: ASD01470018
#	Creating user name:	WinNT
#	Creation time:	15. 06. 2019 19:21

#	Modifying user name:	WinNT
#	Modification time:	15. 06. 2019 19:21

#	Program:	/corina/corina34_cracker 3.40 0067  02.08.2006

@<TRIPOS>MOLECULE
ASD01470018
  79   84    0    0    0
SMALL
NO_CHARGES


@<TRIPOS>ATOM
   1 N1            -1.7187     1.4018     0.5917 N.am    
   2 C2            -0.3884     0.9507     0.1921 C.3     
   3 C3             0.1549    -0.0867     1.1848 C.3     
   4 C4            -0.3156    -1.4936     0.8497 C.3     
   5 C5            -1.6878    -1.4817     0.1965 C.3     
   6 N6            -2.6489    -0.7449     1.0180 N.am    
   7 C7            -2.6786     0.5993     1.0229 C.2     
   8 O8            -3.6853     1.1263     1.4553 O.2     
   9 C9            -3.5947    -1.4858     1.8564 C.3     
  10 C10           -2.0072     2.8361     0.5157 C.3     
  11 C11           -1.7347     3.4748     1.8532 C.ar    
  12 C12           -3.0318    -1.6236     3.2475 C.ar    
  13 C13           -3.1694    -0.5978     4.1369 C.ar    
  14 C14           -2.6466    -0.7271     5.4286 C.ar    
  15 C15           -1.9844    -1.9141     5.7966 C.ar    
  16 C16           -1.8597    -2.9441     4.8674 C.ar    
  17 C17           -2.3826    -2.7963     3.6142 C.ar    
  18 C18           -0.4495     3.8728     2.1785 C.ar    
  19 C19           -0.1891     4.4597     3.4028 C.ar    
  20 C20           -1.2134     4.6532     4.3114 C.ar    
  21 C21           -2.5139     4.2534     3.9877 C.ar    
  22 C22           -2.7676     3.6659     2.7467 C.ar    
  23 C23           -2.6125     0.1418     6.6005 C.2     
  24 N24           -1.9869    -0.4945     7.5493 N.2     
  25 N25           -1.5861    -1.7563     7.0983 N.pl3   
  26 C26           -0.4664     0.3227    -1.2009 C.3     
  27 O27            1.5832    -0.0552     1.1539 O.3     
  28 C28            0.3932     1.1102    -2.1558 C.ar    
  29 C29            1.6931     0.7114    -2.4053 C.ar    
  30 C30            2.4816     1.4338    -3.2812 C.ar    
  31 C31            1.9702     2.5547    -3.9080 C.ar    
  32 C32            0.6700     2.9530    -3.6592 C.ar    
  33 C33           -0.1199     2.2281    -2.7866 C.ar    
  34 C34           -2.1747    -2.9215     0.0206 C.3     
  35 O35           -0.3773    -2.2640     2.0517 O.3     
  36 C36           -1.2627    -3.6470    -0.9349 C.ar    
  37 C37           -0.1268    -4.2772    -0.4623 C.ar    
  38 C38            0.7098    -4.9427    -1.3388 C.ar    
  39 C39            0.4101    -4.9782    -2.6879 C.ar    
  40 C40           -0.7263    -4.3487    -3.1603 C.ar    
  41 C41           -1.5651    -3.6870    -2.2832 C.ar    
  42 C42           -3.6144     4.4560     4.9517 C.2     
  43 F43           -0.9586     5.2264     5.5080 F       
  44 N44           -4.8445     3.9767     4.6807 N.am    
  45 O45           -3.4106     5.0553     5.9896 O.2     
  46 H46            0.2866     1.8060     0.1612 H       
  47 H47           -0.1852     0.1709     2.1878 H       
  48 H48            0.3992    -1.9555     0.1686 H       
  49 H49           -1.6151    -1.0082    -0.7826 H       
  50 H50           -4.5414    -0.9472     1.8992 H       
  51 H51           -3.7589    -2.4759     1.4311 H       
  52 H52           -1.3722     3.2949    -0.2421 H       
  53 H53           -3.0541     2.9825     0.2497 H       
  54 H54           -3.6786     0.3090     3.8455 H       
  55 H55           -1.3535    -3.8589     5.1381 H       
  56 H56           -2.2838    -3.5978     2.8971 H       
  57 H57            0.3539     3.7238     1.4724 H       
  58 H58            0.8162     4.7671     3.6503 H       
  59 H59           -3.7694     3.3547     2.4901 H       
  60 H60           -3.0311     1.1350     6.6689 H       
  61 H61           -1.1039    -2.4145     7.6229 H       
  62 H62           -0.1105    -0.7066    -1.1559 H       
  63 H63           -1.4998     0.3350    -1.5476 H       
  64 H64            2.0036    -0.6844     1.7560 H       
  65 H65            2.0927    -0.1644    -1.9156 H       
  66 H66            3.4974     1.1226    -3.4755 H       
  67 H67            2.5865     3.1195    -4.5917 H       
  68 H68            0.2706     3.8289    -4.1486 H       
  69 H69           -1.1357     2.5392    -2.5923 H       
  70 H70           -2.1669    -3.4281     0.9857 H       
  71 H71           -3.1889    -2.9158    -0.3786 H       
  72 H72            0.4697    -2.3444     2.5113 H       
  73 H73            0.1073    -4.2495     0.5916 H       
  74 H74            1.5976    -5.4345    -0.9697 H       
  75 H75            1.0641    -5.4975    -3.3727 H       
  76 H76           -0.9602    -4.3762    -4.2143 H       
  77 H77           -2.4529    -3.1951    -2.6523 H       
  78 H78           -4.9907     3.4362     3.8886 H       
  79 H79           -5.5836     4.1722     5.2777 H       
@<TRIPOS>BOND
   1    1    2 1
   2    1   10 1
   3    1    7 am
   4    2    3 1
   5    2   26 1
   6    2   46 1
   7    3    4 1
   8    3   27 1
   9    3   47 1
  10    4    5 1
  11    4   35 1
  12    4   48 1
  13    5    6 1
  14    5   34 1
  15    5   49 1
  16    6    7 am
  17    6    9 1
  18    7    8 2
  19    9   12 1
  20    9   50 1
  21    9   51 1
  22   10   11 1
  23   10   52 1
  24   10   53 1
  25   11   18 ar
  26   11   22 ar
  27   12   13 ar
  28   12   17 ar
  29   13   14 ar
  30   13   54 1
  31   14   15 ar
  32   14   23 1
  33   15   16 ar
  34   15   25 1
  35   16   17 ar
  36   16   55 1
  37   17   56 1
  38   18   19 ar
  39   18   57 1
  40   19   20 ar
  41   19   58 1
  42   20   21 ar
  43   20   43 1
  44   21   22 ar
  45   21   42 1
  46   22   59 1
  47   23   24 2
  48   23   60 1
  49   24   25 1
  50   25   61 1
  51   26   28 1
  52   26   62 1
  53   26   63 1
  54   27   64 1
  55   28   29 ar
  56   28   33 ar
  57   29   30 ar
  58   29   65 1
  59   30   31 ar
  60   30   66 1
  61   31   32 ar
  62   31   67 1
  63   32   33 ar
  64   32   68 1
  65   33   69 1
  66   34   36 1
  67   34   70 1
  68   34   71 1
  69   35   72 1
  70   36   37 ar
  71   36   41 ar
  72   37   38 ar
  73   37   73 1
  74   38   39 ar
  75   38   74 1
  76   39   40 ar
  77   39   75 1
  78   40   41 ar
  79   40   76 1
  80   41   77 1
  81   42   44 am
  82   42   45 2
  83   44   78 1
  84   44   79 1

#	End of record

