#	Name: ASD09740658
#	Creating user name:	WinNT
#	Creation time:	15. 06. 2019 21:23

#	Modifying user name:	WinNT
#	Modification time:	15. 06. 2019 21:23

#	Program:	/corina/corina34_cracker 3.40 0067  02.08.2006

@<TRIPOS>MOLECULE
ASD09740658
  61   63    0    0    0
SMALL
NO_CHARGES


@<TRIPOS>ATOM
   1 Si1           -1.2610     0.9801    -0.3626 Si      
   2 O2             0.0016     0.0126    -0.0019 O.3     
   3 C3             0.5919    -0.6207    -1.1387 C.3     
   4 C4             0.0339    -2.0501    -1.3054 C.3     
   5 C5             1.2573    -2.8214    -1.8445 C.3     
   6 C6             2.4616    -2.0613    -1.3319 C.ar    
   7 C7             3.7990    -2.4487    -1.2274 C.ar    
   8 C8             4.7423    -1.5611    -0.7156 C.ar    
   9 C9             4.3504    -0.3007    -0.3133 C.ar    
  10 C10            3.0254     0.0790    -0.4178 C.ar    
  11 C11            2.0804    -0.7988    -0.9268 C.ar    
  12 O12            5.5581    -4.4474    -1.6515 O.3     
  13 B13            4.2390    -3.8842    -1.6862 Du      
  14 O14            3.4100    -4.9204    -2.2316 O.3     
  15 C15            3.9038    -6.1367    -1.6321 C.3     
  16 C16            5.3602    -5.8160    -1.2388 C.3     
  17 C17            6.3283    -6.7413    -1.9787 C.3     
  18 C18            5.5453    -5.9487     0.2742 C.3     
  19 C19            3.0821    -6.4911    -0.3910 C.3     
  20 C20            3.8650    -7.2837    -2.6439 C.3     
  21 C21           -0.6691     2.4154    -1.3924 C.3     
  22 C22           -2.5320     0.0113    -1.3201 C.3     
  23 C23           -2.0240     1.6187     1.2124 C.3     
  24 C24           -0.9801     2.4143     1.9987 C.3     
  25 C25           -3.2083     2.5262     0.8740 C.3     
  26 C26           -2.5100     0.4399     2.0581 C.3     
  27 H27            0.4054    -0.0346    -2.0385 H       
  28 H28           -0.2876    -2.4550    -0.3458 H       
  29 H29           -0.7829    -2.0656    -2.0270 H       
  30 H30            1.2615    -3.8411    -1.4592 H       
  31 H31            1.2501    -2.8281    -2.9344 H       
  32 H32            5.7773    -1.8586    -0.6336 H       
  33 H33            5.0797     0.3898     0.0840 H       
  34 H34            2.7241     1.0664    -0.1008 H       
  35 H35            7.3538    -6.4642    -1.7347 H       
  36 H36            6.1487    -7.7727    -1.6753 H       
  37 H37            6.1721    -6.6462    -3.0533 H       
  38 H38            4.8380    -5.2957     0.7854 H       
  39 H39            5.3674    -6.9818     0.5728 H       
  40 H40            6.5625    -5.6631     0.5422 H       
  41 H41            2.0439    -6.6581    -0.6781 H       
  42 H42            3.4834    -7.3966     0.0640 H       
  43 H43            3.1336    -5.6710     0.3252 H       
  44 H44            4.4677    -7.0215    -3.5136 H       
  45 H45            4.2647    -8.1875    -2.1841 H       
  46 H46            2.8352    -7.4591    -2.9551 H       
  47 H47           -0.1476     2.0402    -2.2729 H       
  48 H48           -1.5238     3.0155    -1.7045 H       
  49 H49            0.0103     3.0303    -0.8021 H       
  50 H50           -2.8783    -0.8285    -0.7176 H       
  51 H51           -3.3758     0.6578    -1.5612 H       
  52 H52           -2.0856    -0.3624    -2.2416 H       
  53 H53           -0.6338     3.2541     1.3963 H       
  54 H54           -1.4265     2.7879     2.9203 H       
  55 H55           -0.1364     1.7677     2.2398 H       
  56 H56           -3.9520     1.9594     0.3138 H       
  57 H57           -3.6547     2.8998     1.7956 H       
  58 H58           -2.8620     3.3660     0.2715 H       
  59 H59           -1.6663    -0.2067     2.2992 H       
  60 H60           -2.9564     0.8135     2.9797 H       
  61 H61           -3.2537    -0.1269     1.4980 H       
@<TRIPOS>BOND
   1    1    2 1
   2    1   21 1
   3    1   22 1
   4    1   23 1
   5    2    3 1
   6    3    4 1
   7    3   11 1
   8    3   27 1
   9    4    5 1
  10    4   28 1
  11    4   29 1
  12    5    6 1
  13    5   30 1
  14    5   31 1
  15    6    7 ar
  16    6   11 ar
  17    7    8 ar
  18    7   13 1
  19    8    9 ar
  20    8   32 1
  21    9   10 ar
  22    9   33 1
  23   10   11 ar
  24   10   34 1
  25   12   13 1
  26   12   16 1
  27   13   14 1
  28   14   15 1
  29   15   16 1
  30   15   19 1
  31   15   20 1
  32   16   17 1
  33   16   18 1
  34   17   35 1
  35   17   36 1
  36   17   37 1
  37   18   38 1
  38   18   39 1
  39   18   40 1
  40   19   41 1
  41   19   42 1
  42   19   43 1
  43   20   44 1
  44   20   45 1
  45   20   46 1
  46   21   47 1
  47   21   48 1
  48   21   49 1
  49   22   50 1
  50   22   51 1
  51   22   52 1
  52   23   24 1
  53   23   26 1
  54   23   25 1
  55   24   53 1
  56   24   54 1
  57   24   55 1
  58   25   56 1
  59   25   57 1
  60   25   58 1
  61   26   59 1
  62   26   60 1
  63   26   61 1

#	End of record

