#	Name: ASD09890018
#	Creating user name:	WinNT
#	Creation time:	15. 06. 2019 21:24

#	Modifying user name:	WinNT
#	Modification time:	15. 06. 2019 21:24

#	Program:	/corina/corina34_cracker 3.40 0067  02.08.2006

@<TRIPOS>MOLECULE
ASD09890018
  44   46    0    0    0
SMALL
NO_CHARGES


@<TRIPOS>ATOM
   1 C1            -0.0167     1.3771     0.0096 C.ar    
   2 C2             0.0021    -0.0041     0.0020 C.ar    
   3 C3             1.2080    -0.6804    -0.0127 C.ar    
   4 C4             2.3983     0.0232    -0.0203 C.ar    
   5 C5             2.3858     1.4044    -0.0132 C.ar    
   6 C6             1.1767     2.0861     0.0020 C.ar    
   7 N7             1.1608     3.4886     0.0092 N.pl3   
   8 C8             1.6008     4.3209    -0.9762 C.2     
   9 C9             0.6967     4.3005     1.0007 C.2     
  10 N10            0.8682     5.5319     0.6033 N.2     
  11 N11            1.4028     5.5440    -0.5656 N.2     
  12 C12            2.2033     3.9064    -2.2938 C.3     
  13 O13            1.1672     3.7640    -3.2676 O.3     
  14 C14            1.5438     3.3919    -4.5193 C.ar    
  15 C15            0.5897     3.2349    -5.5141 C.ar    
  16 C16            0.9750     2.8566    -6.7856 C.ar    
  17 C17            2.3104     2.6345    -7.0672 C.ar    
  18 C18            3.2632     2.7899    -6.0774 C.ar    
  19 C19            2.8836     3.1741    -4.8058 C.ar    
  20 S20           -0.0047     3.7841     2.5323 S.o2    
  21 C21            1.4103     3.6654     3.6611 C.3     
  22 O22           -0.8541     4.8593     2.9089 O.2     
  23 O23           -0.5336     2.4940     2.2583 O.2     
  24 C24            2.0878     5.0325     3.7751 C.3     
  25 C25            0.9252     3.2199     5.0420 C.3     
  26 H26           -0.9589     1.9048     0.0170 H       
  27 H27           -0.9261    -0.5562     0.0079 H       
  28 H28            1.2203    -1.7603    -0.0179 H       
  29 H29            3.3388    -0.5077    -0.0314 H       
  30 H30            3.3158     1.9534    -0.0187 H       
  31 H31            2.9110     4.6665    -2.6248 H       
  32 H32            2.7217     2.9552    -2.1731 H       
  33 H33           -0.4535     3.4079    -5.2945 H       
  34 H34            0.2326     2.7339    -7.5603 H       
  35 H35            2.6096     2.3388    -8.0619 H       
  36 H36            4.3055     2.6152    -6.2996 H       
  37 H37            3.6282     3.2954    -4.0330 H       
  38 H38            2.1236     2.9376     3.2743 H       
  39 H39            2.4334     5.3500     2.7913 H       
  40 H40            1.3745     5.7604     4.1619 H       
  41 H41            2.9381     4.9612     4.4534 H       
  42 H42            0.4426     2.2459     4.9608 H       
  43 H43            1.7755     3.1486     5.7203 H       
  44 H44            0.2119     3.9477     5.4288 H       
@<TRIPOS>BOND
   1    1    2 ar
   2    1    6 ar
   3    1   26 1
   4    2    3 ar
   5    2   27 1
   6    3    4 ar
   7    3   28 1
   8    4    5 ar
   9    4   29 1
  10    5    6 ar
  11    5   30 1
  12    6    7 1
  13    7    8 1
  14    7    9 1
  15    8   12 1
  16    8   11 2
  17    9   10 2
  18    9   20 1
  19   10   11 1
  20   12   13 1
  21   12   31 1
  22   12   32 1
  23   13   14 1
  24   14   15 ar
  25   14   19 ar
  26   15   16 ar
  27   15   33 1
  28   16   17 ar
  29   16   34 1
  30   17   18 ar
  31   17   35 1
  32   18   19 ar
  33   18   36 1
  34   19   37 1
  35   20   21 1
  36   20   22 2
  37   20   23 2
  38   21   24 1
  39   21   25 1
  40   21   38 1
  41   24   39 1
  42   24   40 1
  43   24   41 1
  44   25   42 1
  45   25   43 1
  46   25   44 1

#	End of record

