#	Name: ASD02320030
#	Creating user name:	WinNT
#	Creation time:	15. 06. 2019 20:20

#	Modifying user name:	WinNT
#	Modification time:	15. 06. 2019 20:20

#	Program:	/corina/corina34_cracker 3.40 0067  02.08.2006

@<TRIPOS>MOLECULE
ASD02320030
  61   63    0    0    0
SMALL
NO_CHARGES


@<TRIPOS>ATOM
   1 C1            -0.0167     1.3811     0.0096 C.ar    
   2 C2             0.0021    -0.0041     0.0020 C.ar    
   3 C3            -1.1857    -0.7065     0.0022 C.ar    
   4 C4            -2.4040    -0.0397     0.0091 C.ar    
   5 C5            -2.4283     1.3379     0.0326 C.ar    
   6 C6            -1.2340     2.0508     0.0307 C.ar    
   7 C7            -3.6590    -0.8737    -0.0312 C.3     
   8 N8            -4.8254    -0.0544     0.3130 N.am    
   9 C9            -4.8768     1.2087    -0.2280 C.2     
  10 C10           -3.7158     2.1220     0.0871 C.3     
  11 C11           -5.8004    -0.5173     1.1202 C.2     
  12 O12           -5.7255    -1.6383     1.5819 O.2     
  13 C13          -10.0732    -0.2644     3.6251 C.ar    
  14 C14           -9.8569    -0.2603     4.9954 C.ar    
  15 C15          -11.1507    -0.9490     3.0982 C.ar    
  16 C16          -12.0167    -1.6326     3.9392 C.ar    
  17 C17          -11.8004    -1.6284     5.3090 C.ar    
  18 C18          -10.7225    -0.9436     5.8361 C.ar    
  19 O19           -1.2578     3.4105     0.0390 O.3     
  20 S20           -1.2615     4.0211     1.4331 S.o2    
  21 O21           -1.4893     5.4131     1.2609 O.2     
  22 O22           -2.0923     3.1906     2.2327 O.2     
  23 O23            0.1483     3.8819     1.9896 O.3     
  24 Na24           1.4579     5.1583     1.2049 Du      
  25 O25           -8.7957     0.4134     5.5141 O.3     
  26 S26           -9.0964     1.8622     5.8706 S.o2    
  27 O27           -7.8508     2.4611     6.2007 O.2     
  28 O28           -9.9507     2.3578     4.8489 O.2     
  29 O29           -9.9198     1.8496     7.1506 O.3     
  30 Na30          -8.8639     1.4453     8.7883 Du      
  31 O31          -13.0778    -2.3063     3.4204 O.3     
  32 S32          -12.7769    -3.7549     3.0635 S.o2    
  33 O33          -13.9130    -4.2394     2.3609 O.2     
  34 O34          -11.4633    -3.7701     2.5216 O.2     
  35 O35          -12.7127    -4.5364     4.3679 O.3     
  36 Na36         -14.4910    -4.8878     5.1892 Du      
  37 C37           -6.9835     0.3559     1.4502 C.3     
  38 C38           -7.9349    -0.4032     2.3771 C.3     
  39 C39           -9.1361     0.4834     2.7121 C.3     
  40 O40            1.1492     2.0811     0.0023 O.3     
  41 S41            1.6666     2.4073    -1.3914 S.o2    
  42 O42            2.9683     2.9507    -1.2192 O.2     
  43 O43            1.4010     1.2660    -2.1953 O.2     
  44 O44            0.8009     3.5316    -1.9418 O.3     
  45 Na45           1.1912     5.3152    -1.1503 Du      
  46 H46            0.9438    -0.5328    -0.0044 H       
  47 H47           -1.1678    -1.7863    -0.0036 H       
  48 H48           -3.7884    -1.2828    -1.0331 H       
  49 H49           -3.5706    -1.6933     0.6819 H       
  50 H50           -5.7027     1.5303    -0.8452 H       
  51 H51           -3.8438     2.5411     1.0851 H       
  52 H52           -3.6803     2.9297    -0.6440 H       
  53 H53          -11.3194    -0.9520     2.0315 H       
  54 H54          -12.4748    -2.1603     5.9638 H       
  55 H55          -10.5543    -0.9401     6.9029 H       
  56 H56           -6.6385     1.2626     1.9471 H       
  57 H57           -7.5063     0.6217     0.5314 H       
  58 H58           -8.2799    -1.3099     1.8802 H       
  59 H59           -7.4121    -0.6689     3.2959 H       
  60 H60           -9.6589     0.7491     1.7933 H       
  61 H61           -8.7910     1.3901     3.2091 H       
@<TRIPOS>BOND
   1    1    2 ar
   2    1   40 1
   3    1    6 ar
   4    2    3 ar
   5    2   46 1
   6    3    4 ar
   7    3   47 1
   8    4    5 ar
   9    4    7 1
  10    5    6 ar
  11    5   10 1
  12    6   19 1
  13    7    8 1
  14    7   48 1
  15    7   49 1
  16    8    9 1
  17    8   11 am
  18    9   10 1
  19    9   50 1
  20   10   51 1
  21   10   52 1
  22   11   12 2
  23   11   37 1
  24   13   14 ar
  25   13   15 ar
  26   13   39 1
  27   14   25 1
  28   14   18 ar
  29   15   16 ar
  30   15   53 1
  31   16   17 ar
  32   16   31 1
  33   17   18 ar
  34   17   54 1
  35   18   55 1
  36   19   20 1
  37   20   21 2
  38   20   22 2
  39   20   23 1
  40   23   24 1
  41   25   26 1
  42   26   27 2
  43   26   28 2
  44   26   29 1
  45   29   30 1
  46   31   32 1
  47   32   33 2
  48   32   34 2
  49   32   35 1
  50   35   36 1
  51   37   38 1
  52   37   56 1
  53   37   57 1
  54   38   39 1
  55   38   58 1
  56   38   59 1
  57   39   60 1
  58   39   61 1
  59   40   41 1
  60   41   42 2
  61   41   43 2
  62   41   44 1
  63   44   45 1

#	End of record

