#	Name: ASD02038043
#	Creating user name:	WinNT
#	Creation time:	15. 06. 2019 20:16

#	Modifying user name:	WinNT
#	Modification time:	15. 06. 2019 20:16

#	Program:	/corina/corina34_cracker 3.40 0067  02.08.2006

@<TRIPOS>MOLECULE
ASD02038043
  53   56    0    0    0
SMALL
NO_CHARGES


@<TRIPOS>ATOM
   1 N1            -0.0160     1.4024     0.1113 N.am    
   2 N2             0.8844     3.5171     0.5192 N.am    
   3 C3             0.9861     2.1744     0.5761 C.2     
   4 C4            -0.5087     7.1331     2.2775 C.3     
   5 O5            -1.4466     7.9282     1.5495 O.3     
   6 C6            -2.1207     8.8812     2.2471 C.ar    
   7 C7            -3.0460     9.6884     1.6021 C.ar    
   8 C8            -1.8871     9.0422     3.6047 C.ar    
   9 C9            -2.5718    10.0102     4.3133 C.ar    
  10 C10           -3.4926    10.8215     3.6671 C.ar    
  11 C11           -3.7306    10.6565     2.3107 C.ar    
  12 O12            1.9820     1.6596     1.0467 O.2     
  13 O13           -4.1673    11.7739     4.3648 O.3     
  14 C14            0.1354     0.0119     0.0656 C.ar    
  15 C15            1.9149     4.3723     1.1237 C.3     
  16 C16            1.2383     5.3574     2.0821 C.3     
  17 C17            0.1462     6.1237     1.3324 C.3     
  18 C18           -0.9112     5.1412     0.8237 C.3     
  19 C19           -0.2561     4.1536    -0.1538 C.3     
  20 C20           -0.9622    -0.8145     0.2676 C.ar    
  21 C21           -0.8096    -2.1864     0.2214 C.ar    
  22 C22            0.4345    -2.7372    -0.0258 C.ar    
  23 C23            1.5294    -1.9170    -0.2274 C.ar    
  24 C24            1.3823    -0.5443    -0.1877 C.ar    
  25 C25            0.5975    -4.2346    -0.0751 C.3     
  26 C26            1.1129    -4.8466    -1.3792 C.3     
  27 C27            2.0219    -4.7880    -0.1499 C.3     
  28 H28           -0.8437     1.8102    -0.1878 H       
  29 H29            0.2575     7.7779     2.7078 H       
  30 H30           -1.0259     6.6008     3.0757 H       
  31 H31           -3.2308     9.5603     0.5458 H       
  32 H32           -1.1701     8.4104     4.1079 H       
  33 H33           -2.3905    10.1351     5.3706 H       
  34 H34           -4.4473    11.2885     1.8074 H       
  35 H35           -3.7234    12.6327     4.3884 H       
  36 H36            2.6246     3.7552     1.6749 H       
  37 H37            2.4372     4.9235     0.3418 H       
  38 H38            0.7934     4.8095     2.9128 H       
  39 H39            1.9788     6.0600     2.4642 H       
  40 H40            0.5879     6.6515     0.4872 H       
  41 H41           -1.3359     4.5953     1.6662 H       
  42 H42           -1.7006     5.6899     0.3101 H       
  43 H43            0.0875     4.6891    -1.0389 H       
  44 H44           -0.9797     3.3916    -0.4432 H       
  45 H45           -1.9340    -0.3850     0.4611 H       
  46 H46           -1.6627    -2.8297     0.3788 H       
  47 H47            2.4997    -2.3502    -0.4203 H       
  48 H48            2.2377     0.0958    -0.3456 H       
  49 H49           -0.1356    -4.8063     0.4939 H       
  50 H50            0.7191    -5.8211    -1.6680 H       
  51 H51            1.3341    -4.1662    -2.2015 H       
  52 H52            2.8411    -4.0691    -0.1635 H       
  53 H53            2.2262    -5.7240     0.3700 H       
@<TRIPOS>BOND
   1    1   14 1
   2    1    3 am
   3    1   28 1
   4    2    3 am
   5    2   15 1
   6    2   19 1
   7    3   12 2
   8    4    5 1
   9    4   17 1
  10    4   29 1
  11    4   30 1
  12    5    6 1
  13    6    7 ar
  14    6    8 ar
  15    7   11 ar
  16    7   31 1
  17    8    9 ar
  18    8   32 1
  19    9   10 ar
  20    9   33 1
  21   10   11 ar
  22   10   13 1
  23   11   34 1
  24   13   35 1
  25   14   20 ar
  26   14   24 ar
  27   15   16 1
  28   15   36 1
  29   15   37 1
  30   16   17 1
  31   16   38 1
  32   16   39 1
  33   17   18 1
  34   17   40 1
  35   18   19 1
  36   18   41 1
  37   18   42 1
  38   19   43 1
  39   19   44 1
  40   20   21 ar
  41   20   45 1
  42   21   22 ar
  43   21   46 1
  44   22   23 ar
  45   22   25 1
  46   23   24 ar
  47   23   47 1
  48   24   48 1
  49   25   26 1
  50   25   27 1
  51   25   49 1
  52   26   27 1
  53   26   50 1
  54   26   51 1
  55   27   52 1
  56   27   53 1

#	End of record

