#	Name: ASD01230544
#	Creating user name:	WinNT
#	Creation time:	15. 06. 2019 19:14

#	Modifying user name:	WinNT
#	Modification time:	15. 06. 2019 19:14

#	Program:	/corina/corina34_cracker 3.40 0067  02.08.2006

@<TRIPOS>MOLECULE
ASD01230544
  37   40    0    0    0
SMALL
NO_CHARGES


@<TRIPOS>ATOM
   1 S1            -0.2580     1.5336     1.0956 S.o2    
   2 N2            -0.1454    -0.0616     0.6713 N.am    
   3 C3             0.9040    -0.5496     0.0489 C.2     
   4 N4             2.0068     0.1646    -0.3195 N.pl3   
   5 C5             2.1468     1.6111    -0.1336 C.3     
   6 C6             1.4856     2.0515     1.1757 C.3     
   7 C7             0.8501    -1.9474    -0.2509 C.2     
   8 C8             1.9034    -2.5544    -0.8544 C.2     
   9 C9             3.0420    -1.7945    -1.1779 C.2     
  10 C10            3.0710    -0.4783    -0.9097 C.2     
  11 O11           -0.2571    -2.6685     0.0694 O.3     
  12 O12           -4.9453    -1.5444    -2.5658 O.3     
  13 C13           -4.9843    -0.3524    -3.3579 C.3     
  14 C14           -3.7048    -0.2956    -4.2035 C.3     
  15 O15           -2.5815    -0.2810    -3.3159 O.3     
  16 C16           -2.5958    -1.1821    -2.2958 C.ar    
  17 C17           -3.7766    -1.8120    -1.9195 C.ar    
  18 C18           -1.4158    -1.4711    -1.6281 C.ar    
  19 C19           -1.4145    -2.3852    -0.5850 C.ar    
  20 C20           -2.5943    -3.0106    -0.2099 C.ar    
  21 C21           -3.7712    -2.7243    -0.8753 C.ar    
  22 F22           -3.6367    -1.4205    -5.0324 F       
  23 F23           -3.7055     0.8663    -4.9828 F       
  24 F24           -6.1035    -0.3798    -4.1968 F       
  25 F25           -5.0476     0.7676    -2.5220 F       
  26 O26           -0.9172     2.1498    -0.0022 O.2     
  27 O27           -0.8397     1.5184     2.3920 O.2     
  28 H28            3.2055     1.8693    -0.1064 H       
  29 H29            1.6725     2.1284    -0.9677 H       
  30 H30            1.5470     3.1351     1.2768 H       
  31 H31            1.9776     1.5701     2.0209 H       
  32 H32            1.8678    -3.6093    -1.0833 H       
  33 H33            3.8934    -2.2693    -1.6426 H       
  34 H34            3.9531     0.0905    -1.1641 H       
  35 H35           -0.4971    -0.9842    -1.9202 H       
  36 H36           -2.5933    -3.7216     0.6030 H       
  37 H37           -4.6889    -3.2119    -0.5812 H       
@<TRIPOS>BOND
   1    1    2 am
   2    1    6 1
   3    1   26 2
   4    1   27 2
   5    2    3 2
   6    3    4 1
   7    3    7 1
   8    4    5 1
   9    4   10 1
  10    5    6 1
  11    5   28 1
  12    5   29 1
  13    6   30 1
  14    6   31 1
  15    7    8 2
  16    7   11 1
  17    8    9 1
  18    8   32 1
  19    9   10 2
  20    9   33 1
  21   10   34 1
  22   11   19 1
  23   12   13 1
  24   12   17 1
  25   13   14 1
  26   13   24 1
  27   13   25 1
  28   14   15 1
  29   14   22 1
  30   14   23 1
  31   15   16 1
  32   16   17 ar
  33   16   18 ar
  34   17   21 ar
  35   18   19 ar
  36   18   35 1
  37   19   20 ar
  38   20   21 ar
  39   20   36 1
  40   21   37 1

#	End of record

