#	Name: ASD07310001
#	Creating user name:	WinNT
#	Creation time:	15. 06. 2019 21:11

#	Modifying user name:	WinNT
#	Modification time:	15. 06. 2019 21:11

#	Program:	/corina/corina34_cracker 3.40 0067  02.08.2006

@<TRIPOS>MOLECULE
ASD07310001
  54   56    0    0    0
SMALL
NO_CHARGES


@<TRIPOS>ATOM
   1 C1             1.3082     1.8994     0.3169 C.ar    
   2 C2             1.3091     0.5294     0.5087 C.ar    
   3 C3             2.5059    -0.1597     0.5896 C.ar    
   4 C4             3.7075     0.5232     0.4780 C.ar    
   5 C5             3.7053     1.9029     0.2845 C.ar    
   6 C6             2.5033     2.5862     0.2049 C.ar    
   7 Cl7           -0.1947    -0.3267     0.6485 Cl      
   8 N8             4.9214    -0.1727     0.5602 N.am    
   9 C9             4.9721    -1.4799     0.2359 C.2     
  10 O10            3.9524    -2.0731    -0.0587 O.2     
  11 N11            6.1530    -2.1295     0.2381 N.am    
  12 O12            4.8811     2.5775     0.1748 O.3     
  13 C13            4.8024     3.9906    -0.0224 C.3     
  14 C14            6.1932     4.5625    -0.1204 C.2     
  15 O15            7.1570     3.8318    -0.0302 O.2     
  16 N16            6.3661     5.8858    -0.3083 N.am    
  17 C17            5.2160     6.7709    -0.5475 C.3     
  18 C18            5.2974     7.9494     0.4286 C.3     
  19 N19            6.6124     8.5927     0.3060 N.3     
  20 C20            7.6930     7.6730     0.6860 C.3     
  21 C21            7.7092     6.4841    -0.2735 C.3     
  22 C22            8.7241     5.4466     0.2108 C.3     
  23 C23            6.6698     9.8284     1.0983 C.3     
  24 C24            6.5711     9.4907     2.5636 C.ar    
  25 C25            7.7184     9.2428     3.2940 C.ar    
  26 C26            7.6292     8.9334     4.6380 C.ar    
  27 C27            6.3902     8.8719     5.2529 C.ar    
  28 C28            5.2418     9.1204     4.5203 C.ar    
  29 C29            5.3338     9.4347     3.1777 C.ar    
  30 F30            6.3017     8.5691     6.5666 F       
  31 H31            0.3718     2.4333     0.2501 H       
  32 H32            2.5044    -1.2292     0.7401 H       
  33 H33            2.4992     3.6557     0.0549 H       
  34 H34            5.7250     0.2865     0.8505 H       
  35 H35            6.9664    -1.6562     0.4731 H       
  36 H36            6.1894    -3.0702     0.0047 H       
  37 H37            4.2581     4.1992    -0.9435 H       
  38 H38            4.2806     4.4464     0.8191 H       
  39 H39            5.2460     7.1414    -1.5721 H       
  40 H40            4.2898     6.2209    -0.3809 H       
  41 H41            4.5158     8.6716     0.1929 H       
  42 H42            5.1632     7.5874     1.4480 H       
  43 H43            8.6487     8.1948     0.6369 H       
  44 H44            7.5255     7.3148     1.7017 H       
  45 H45            7.9780     6.8243    -1.2735 H       
  46 H46            8.3885     5.0249     1.1583 H       
  47 H47            8.8126     4.6517    -0.5297 H       
  48 H48            9.6941     5.9242     0.3490 H       
  49 H49            7.6130    10.3398     0.9060 H       
  50 H50            5.8406    10.4782     0.8185 H       
  51 H51            8.6847     9.2905     2.8141 H       
  52 H52            8.5255     8.7394     5.2083 H       
  53 H53            4.2748     9.0726     4.9989 H       
  54 H54            4.4383     9.6286     2.6061 H       
@<TRIPOS>BOND
   1    1    2 ar
   2    1    6 ar
   3    1   31 1
   4    2    3 ar
   5    2    7 1
   6    3    4 ar
   7    3   32 1
   8    4    5 ar
   9    4    8 1
  10    5    6 ar
  11    5   12 1
  12    6   33 1
  13    8    9 am
  14    8   34 1
  15    9   10 2
  16    9   11 am
  17   11   35 1
  18   11   36 1
  19   12   13 1
  20   13   14 1
  21   13   37 1
  22   13   38 1
  23   14   15 2
  24   14   16 am
  25   16   17 1
  26   16   21 1
  27   17   18 1
  28   17   39 1
  29   17   40 1
  30   18   19 1
  31   18   41 1
  32   18   42 1
  33   19   20 1
  34   19   23 1
  35   20   21 1
  36   20   43 1
  37   20   44 1
  38   21   22 1
  39   21   45 1
  40   22   46 1
  41   22   47 1
  42   22   48 1
  43   23   24 1
  44   23   49 1
  45   23   50 1
  46   24   25 ar
  47   24   29 ar
  48   25   26 ar
  49   25   51 1
  50   26   27 ar
  51   26   52 1
  52   27   28 ar
  53   27   30 1
  54   28   29 ar
  55   28   53 1
  56   29   54 1

#	End of record

