#	Name: ASD00844608
#	Creating user name:	WinNT
#	Creation time:	15. 06. 2019 18:50

#	Modifying user name:	WinNT
#	Modification time:	15. 06. 2019 18:50

#	Program:	/corina/corina34_cracker 3.40 0067  02.08.2006

@<TRIPOS>MOLECULE
ASD00844608
  94   99    0    0    0
SMALL
NO_CHARGES


@<TRIPOS>ATOM
   1 C1             0.5635     1.2776    -0.7182 C.ar    
   2 C2             0.8722    -0.0618    -0.9054 C.ar    
   3 C3             0.8060    -0.9427     0.1646 C.ar    
   4 C4             0.4333    -0.4842     1.4130 C.ar    
   5 C5             0.1257     0.8514     1.5969 C.ar    
   6 C6             0.1912     1.7312     0.5326 C.ar    
   7 C7             1.1402    -2.3985    -0.0354 C.3     
   8 C8             0.8677    -3.1838     1.2299 C.2     
   9 C9             0.3414    -2.9745    -1.2063 C.3     
  10 C10           -1.1279    -2.7242    -0.9834 C.2     
  11 N11           -2.0319    -3.1826    -1.8717 N.am    
  12 O12           -1.4969    -2.1103    -0.0047 O.2     
  13 C13           -3.4551    -2.8446    -1.7336 C.3     
  14 C14           -4.2724    -4.1403    -1.7385 C.3     
  15 C15           -3.9368    -4.9456    -2.9958 C.3     
  16 C16           -2.4509    -5.3118    -2.9876 C.3     
  17 C17           -1.6122    -4.0248    -3.0001 C.3     
  18 N18           -4.7432    -6.1732    -3.0204 N.3     
  19 C19           -4.5353    -6.9149    -4.2719 C.3     
  20 C20           -5.3291    -8.2226    -4.2247 C.3     
  21 N21           -6.7535    -7.9211    -4.0249 N.3     
  22 C22           -6.9614    -7.1794    -2.7734 C.3     
  23 C23           -6.1676    -5.8717    -2.8206 C.3     
  24 C24           -7.5599    -9.1487    -4.0495 C.3     
  25 O25           -0.2052    -3.3130     1.7805 O.2     
  26 N26            2.0378    -3.7104     1.6285 N.am    
  27 C27            2.6237    -2.5746    -0.2652 C.ar    
  28 C28            3.0880    -3.3722     0.7735 C.ar    
  29 C29            3.4806    -2.1142    -1.2393 C.ar    
  30 C30            4.8242    -2.4459    -1.1907 C.ar    
  31 C31            5.3001    -3.2407    -0.1600 C.ar    
  32 C32            4.4404    -3.7030     0.8180 C.ar    
  33 Cl33           5.9087    -1.8684    -2.4171 Cl      
  34 F34            6.6107    -3.5651    -0.1112 F       
  35 C35            1.9641    -6.3250     2.4844 C.ar    
  36 C36            0.7229    -6.7333     2.0189 C.ar    
  37 C37            3.0061    -7.2297     2.5546 C.ar    
  38 C38            2.8125    -8.5406     2.1609 C.ar    
  39 C39            1.5760    -8.9502     1.6964 C.ar    
  40 C40            0.5311    -8.0498     1.6248 C.ar    
  41 H41            1.4273    -9.9749     1.3894 H       
  42 O42           -0.3037    -5.8455     1.9493 O.3     
  43 C43           -1.5535    -6.3360     1.4601 C.3     
  44 C44           -2.5797    -5.2012     1.4543 C.3     
  45 C45           -8.9858    -8.8314    -3.5946 C.3     
  46 O46            1.2382    -0.5105    -2.1349 O.3     
  47 C47            1.2022     0.4333    -3.2072 C.3     
  48 C48            1.7096    -0.2311    -4.4886 C.3     
  49 F49            2.9916    -0.7467    -4.2704 F       
  50 F50            0.8444    -1.2695    -4.8496 F       
  51 S51            2.2138    -4.6524     2.9791 S.o2    
  52 O52            3.5770    -4.5477     3.3665 O.2     
  53 O53            1.1333    -4.3234     3.8413 O.2     
  54 H54            0.6186     1.9660    -1.5485 H       
  55 H55            0.3817    -1.1694     2.2462 H       
  56 H56           -0.1663     1.2078     2.5737 H       
  57 H57           -0.0495     2.7738     0.6788 H       
  58 H58            0.6556    -2.4930    -2.1323 H       
  59 H59            0.5207    -4.0474    -1.2756 H       
  60 H60           -3.6154    -2.3150    -0.7945 H       
  61 H61           -3.7637    -2.2148    -2.5680 H       
  62 H62           -4.0276    -4.7281    -0.8538 H       
  63 H63           -5.3355    -3.8998    -1.7334 H       
  64 H64           -4.1586    -4.3479    -3.8799 H       
  65 H65           -2.2233    -5.8886    -2.0912 H       
  66 H66           -2.2175    -5.9053    -3.8716 H       
  67 H67           -1.7717    -3.4938    -3.9385 H       
  68 H68           -0.5566    -4.2755    -2.8946 H       
  69 H69           -4.8775    -6.3120    -5.1131 H       
  70 H70           -3.4749    -7.1373    -4.3910 H       
  71 H71           -5.1995    -8.7608    -5.1636 H       
  72 H72           -4.9684    -8.8374    -3.4000 H       
  73 H73           -8.0218    -6.9571    -2.6543 H       
  74 H74           -6.6192    -7.7823    -1.9322 H       
  75 H75           -6.2972    -5.3335    -1.8817 H       
  76 H76           -6.5283    -5.2570    -3.6453 H       
  77 H77           -7.5825    -9.5484    -5.0634 H       
  78 H78           -7.1199    -9.8860    -3.3781 H       
  79 H79            3.1052    -1.4954    -2.0409 H       
  80 H80            4.8177    -4.3218     1.6187 H       
  81 H81            3.9727    -6.9123     2.9170 H       
  82 H82            3.6284    -9.2461     2.2158 H       
  83 H83           -0.4346    -8.3703     1.2626 H       
  84 H84           -1.4237    -6.7137     0.4459 H       
  85 H85           -1.9056    -7.1409     2.1053 H       
  86 H86           -2.7095    -4.8235     2.4685 H       
  87 H87           -2.2276    -4.3963     0.8091 H       
  88 H88           -3.5331    -5.5753     1.0811 H       
  89 H89           -8.9633    -8.4318    -2.5807 H       
  90 H90           -9.4259    -8.0941    -4.2660 H       
  91 H91           -9.5842    -9.7423    -3.6128 H       
  92 H92            0.1780     0.7751    -3.3562 H       
  93 H93            1.8375     1.2848    -2.9633 H       
  94 H94            1.7462     0.5065    -5.2904 H       
@<TRIPOS>BOND
   1    1    2 ar
   2    1    6 ar
   3    1   54 1
   4    2    3 ar
   5    2   46 1
   6    3    4 ar
   7    3    7 1
   8    4    5 ar
   9    4   55 1
  10    5    6 ar
  11    5   56 1
  12    6   57 1
  13    7    8 1
  14    7    9 1
  15    7   27 1
  16    8   25 2
  17    8   26 am
  18    9   10 1
  19    9   58 1
  20    9   59 1
  21   10   11 am
  22   10   12 2
  23   11   13 1
  24   11   17 1
  25   13   14 1
  26   13   60 1
  27   13   61 1
  28   14   15 1
  29   14   62 1
  30   14   63 1
  31   15   16 1
  32   15   18 1
  33   15   64 1
  34   16   17 1
  35   16   65 1
  36   16   66 1
  37   17   67 1
  38   17   68 1
  39   18   19 1
  40   18   23 1
  41   19   20 1
  42   19   69 1
  43   19   70 1
  44   20   21 1
  45   20   71 1
  46   20   72 1
  47   21   22 1
  48   21   24 1
  49   22   23 1
  50   22   73 1
  51   22   74 1
  52   23   75 1
  53   23   76 1
  54   24   45 1
  55   24   77 1
  56   24   78 1
  57   26   51 am
  58   26   28 1
  59   27   28 ar
  60   27   29 ar
  61   28   32 ar
  62   29   30 ar
  63   29   79 1
  64   30   31 ar
  65   30   33 1
  66   31   32 ar
  67   31   34 1
  68   32   80 1
  69   35   36 ar
  70   35   37 ar
  71   35   51 1
  72   36   42 1
  73   36   40 ar
  74   37   38 ar
  75   37   81 1
  76   38   39 ar
  77   38   82 1
  78   39   40 ar
  79   39   41 1
  80   40   83 1
  81   42   43 1
  82   43   44 1
  83   43   84 1
  84   43   85 1
  85   44   86 1
  86   44   87 1
  87   44   88 1
  88   45   89 1
  89   45   90 1
  90   45   91 1
  91   46   47 1
  92   47   48 1
  93   47   92 1
  94   47   93 1
  95   48   49 1
  96   48   50 1
  97   48   94 1
  98   51   52 2
  99   51   53 2

#	End of record

