#	Name: ASD02508494
#	Creating user name:	WinNT
#	Creation time:	15. 06. 2019 20:24

#	Modifying user name:	WinNT
#	Modification time:	15. 06. 2019 20:24

#	Program:	/corina/corina34_cracker 3.40 0067  02.08.2006

@<TRIPOS>MOLECULE
ASD02508494
  34   36    0    0    0
SMALL
NO_CHARGES


@<TRIPOS>ATOM
   1 N1            -0.0161     1.3368     0.0094 N.2     
   2 C2             0.0021    -0.0041     0.0020 C.2     
   3 C3             1.2873    -0.4070    -0.0124 C.2     
   4 N4             2.0587     0.7260    -0.0137 N.pl3   
   5 C5             1.2099     1.7859     0.0001 C.2     
   6 C6             3.4573     0.7803    -0.0264 C.2     
   7 S7             1.8659    -2.0713    -0.0264 S.o2    
   8 N8             2.0123    -2.5261    -1.6119 N.am    
   9 C9             2.9487    -1.8952    -2.4366 C.ar    
  10 C10            2.5877    -1.4891    -3.7150 C.ar    
  11 O11            3.1831    -2.0426     0.5061 O.2     
  12 O12            0.8224    -2.8635     0.5237 O.2     
  13 C13            4.2392    -1.6687    -1.9769 C.ar    
  14 C14            5.1627    -1.0452    -2.7935 C.ar    
  15 C15            4.8024    -0.6464    -4.0693 C.ar    
  16 C16            3.5142    -0.8662    -4.5278 C.ar    
  17 C17            3.1251    -0.4313    -5.9172 C.3     
  18 C18            4.1951     1.5179    -0.8682 C.2     
  19 C19            5.5631     1.4082    -0.6888 C.2     
  20 C20            5.9385     0.5869     0.2925 C.2     
  21 S21            4.5170    -0.1029     1.0647 S.3     
  22 F22            5.7071    -0.0364    -4.8660 F       
  23 H23           -0.8640    -0.6493     0.0074 H       
  24 H24            1.5002     2.8262     0.0024 H       
  25 H25            1.4484    -3.2302    -1.9686 H       
  26 H26            1.5834    -1.6606    -4.0731 H       
  27 H27            4.5206    -1.9793    -0.9816 H       
  28 H28            6.1665    -0.8685    -2.4362 H       
  29 H29            3.3183    -1.2425    -6.6193 H       
  30 H30            2.0648    -0.1797    -5.9356 H       
  31 H31            3.7110     0.4427    -6.2018 H       
  32 H32            3.7562     2.1483    -1.6274 H       
  33 H33            6.2735     1.9472    -1.2982 H       
  34 H34            6.9606     0.3803     0.5734 H       
@<TRIPOS>BOND
   1    1    2 1
   2    1    5 2
   3    2    3 2
   4    2   23 1
   5    3    4 1
   6    3    7 1
   7    4    5 1
   8    4    6 1
   9    5   24 1
  10    6   18 2
  11    6   21 1
  12    7    8 am
  13    7   11 2
  14    7   12 2
  15    8    9 1
  16    8   25 1
  17    9   13 ar
  18    9   10 ar
  19   10   16 ar
  20   10   26 1
  21   13   14 ar
  22   13   27 1
  23   14   15 ar
  24   14   28 1
  25   15   16 ar
  26   15   22 1
  27   16   17 1
  28   17   29 1
  29   17   30 1
  30   17   31 1
  31   18   19 1
  32   18   32 1
  33   19   20 2
  34   19   33 1
  35   20   21 1
  36   20   34 1

#	End of record

