#	Name: ASD00241014
#	Creating user name:	WinNT
#	Creation time:	15. 06. 2019 18:33

#	Modifying user name:	WinNT
#	Modification time:	15. 06. 2019 18:33

#	Program:	/corina/corina34_cracker 3.40 0067  02.08.2006

@<TRIPOS>MOLECULE
ASD00241014
  47   49    0    0    0
SMALL
NO_CHARGES


@<TRIPOS>ATOM
   1 C1            -0.2832     1.3774    -0.0969 C.3     
   2 C2            -0.5168    -0.1440    -0.2317 C.3     
   3 C3            -1.3085    -0.5165     1.0414 C.3     
   4 O4            -1.9496     0.7115     1.4498 O.3     
   5 C5            -0.9614     1.7440     1.2418 C.3     
   6 C6            -2.1073    -2.8954     0.7097 C.ar    
   7 C7            -3.3457    -3.4677     0.3743 C.ar    
   8 N8            -1.0624    -3.6909     0.9150 N.ar    
   9 C9            -1.1822    -4.9971     0.8066 C.ar    
  10 N10           -2.3249    -5.5807     0.4934 N.ar    
  11 C11           -3.4236    -4.8672     0.2708 C.ar    
  12 N12           -4.2273    -2.4506     0.2213 N.2     
  13 C13           -3.6234    -1.3180     0.4362 C.2     
  14 N14           -2.3123    -1.5391     0.7367 N.pl3   
  15 C15           -1.6356     3.1137     1.1397 C.3     
  16 N16           -2.3470     3.4038     2.3918 N.3     
  17 C17           -1.4082     3.7925     3.4527 C.3     
  18 C18           -2.1342     3.8430     4.7723 C.2     
  19 C19           -1.6934     3.1452     5.7896 C.2     
  20 O20            1.1153     1.6666    -0.0454 O.3     
  21 F21           -1.2697    -0.4247    -1.3769 F       
  22 N22           -4.6165    -5.4877    -0.0565 N.pl3   
  23 C23           -2.4195     3.1957     7.1092 C.3     
  24 N24           -2.7707     1.8320     7.5273 N.3     
  25 C25           -3.3696     4.4387     2.1886 C.3     
  26 H26           -0.7523     1.9106    -0.9237 H       
  27 H27            0.4345    -0.6755    -0.2592 H       
  28 H28           -0.6315    -0.8683     1.8199 H       
  29 H29           -0.2312     1.7390     2.0510 H       
  30 H30           -0.3135    -5.6149     0.9800 H       
  31 H31           -4.0912    -0.3461     0.3811 H       
  32 H32           -0.8792     3.8789     0.9658 H       
  33 H33           -2.3446     3.1089     0.3118 H       
  34 H34           -0.6014     3.0617     3.5096 H       
  35 H35           -0.9931     4.7752     3.2286 H       
  36 H36           -3.0181     4.4544     4.8793 H       
  37 H37           -0.8095     2.5338     5.6826 H       
  38 H38            1.6014     1.4007    -0.8379 H       
  39 H39           -4.6574    -6.4544    -0.1258 H       
  40 H40           -5.4118    -4.9559    -0.2167 H       
  41 H41           -1.7754     3.6517     7.8611 H       
  42 H42           -3.3281     3.7881     7.0015 H       
  43 H43           -3.2590     1.8389     8.4102 H       
  44 H44           -3.3144     1.3648     6.8171 H       
  45 H45           -4.0325     4.1400     1.3766 H       
  46 H46           -3.9487     4.5618     3.1038 H       
  47 H47           -2.8863     5.3822     1.9348 H       
@<TRIPOS>BOND
   1    1    2 1
   2    1   20 1
   3    1    5 1
   4    1   26 1
   5    2    3 1
   6    2   21 1
   7    2   27 1
   8    3    4 1
   9    3   14 1
  10    3   28 1
  11    4    5 1
  12    5   15 1
  13    5   29 1
  14    6    7 ar
  15    6    8 ar
  16    6   14 1
  17    7   12 1
  18    7   11 ar
  19    8    9 ar
  20    9   10 ar
  21    9   30 1
  22   10   11 ar
  23   11   22 1
  24   12   13 2
  25   13   14 1
  26   13   31 1
  27   15   16 1
  28   15   32 1
  29   15   33 1
  30   16   17 1
  31   16   25 1
  32   17   18 1
  33   17   34 1
  34   17   35 1
  35   18   19 2
  36   18   36 1
  37   19   23 1
  38   19   37 1
  39   20   38 1
  40   22   39 1
  41   22   40 1
  42   23   24 1
  43   23   41 1
  44   23   42 1
  45   24   43 1
  46   24   44 1
  47   25   45 1
  48   25   46 1
  49   25   47 1

#	End of record

