#	Name: ASD01908023
#	Creating user name:	WinNT
#	Creation time:	15. 06. 2019 19:54

#	Modifying user name:	WinNT
#	Modification time:	15. 06. 2019 19:54

#	Program:	/corina/corina34_cracker 3.40 0067  02.08.2006

@<TRIPOS>MOLECULE
ASD01908023
  37   38    0    0    0
SMALL
NO_CHARGES


@<TRIPOS>ATOM
   1 N1             0.0618     1.3819     0.1765 N.pl3   
   2 N2             0.2186     0.1072     0.1932 N.2     
   3 C3             1.4888    -0.2076     0.1931 C.2     
   4 C4             2.2244     0.9796     0.1745 C.2     
   5 C5             1.2829     1.9941     0.1640 C.2     
   6 C6             1.5449     3.4421     0.1430 C.2     
   7 O7             0.6186     4.2266     0.0667 O.2     
   8 N8             2.8112     3.8988     0.2083 N.am    
   9 C9             3.0793     5.3341     0.0889 C.3     
  10 O10            3.8825     2.9913     0.3922 O.3     
  11 C11            4.5290     2.6017    -0.8211 C.3     
  12 C12           -1.2295     2.0737     0.1660 C.3     
  13 C13           -1.7436     2.1991     1.5771 C.ar    
  14 C14           -1.3377     3.2582     2.3679 C.ar    
  15 C15           -1.8075     3.3754     3.6617 C.ar    
  16 C16           -2.6873     2.4294     4.1673 C.ar    
  17 C17           -3.0931     1.3677     3.3718 C.ar    
  18 C18           -2.6248     1.2581     2.0768 C.ar    
  19 O19           -3.1506     2.5423     5.4400 O.3     
  20 C20           -4.0535     1.5319     5.8937 C.3     
  21 H21            1.8960    -1.2078     0.2056 H       
  22 H22            3.2993     1.0839     0.1699 H       
  23 H23            3.0567     5.7914     1.0780 H       
  24 H24            4.0618     5.4842    -0.3585 H       
  25 H25            2.3188     5.7945    -0.5418 H       
  26 H26            5.0155     3.4686    -1.2683 H       
  27 H27            5.2755     1.8371    -0.6058 H       
  28 H28            3.7893     2.2021    -1.5148 H       
  29 H29           -1.1061     3.0670    -0.2653 H       
  30 H30           -1.9419     1.5042    -0.4309 H       
  31 H31           -0.6525     3.9942     1.9739 H       
  32 H32           -1.4899     4.2026     4.2791 H       
  33 H33           -3.7779     0.6300     3.7632 H       
  34 H34           -2.9441     0.4344     1.4555 H       
  35 H35           -4.9396     1.5248     5.2590 H       
  36 H36           -3.5642     0.5591     5.8454 H       
  37 H37           -4.3454     1.7410     6.9229 H       
@<TRIPOS>BOND
   1    1    2 1
   2    1    5 1
   3    1   12 1
   4    2    3 2
   5    3    4 1
   6    3   21 1
   7    4    5 2
   8    4   22 1
   9    5    6 1
  10    6    7 2
  11    6    8 am
  12    8    9 1
  13    8   10 1
  14    9   23 1
  15    9   24 1
  16    9   25 1
  17   10   11 1
  18   11   26 1
  19   11   27 1
  20   11   28 1
  21   12   13 1
  22   12   29 1
  23   12   30 1
  24   13   14 ar
  25   13   18 ar
  26   14   15 ar
  27   14   31 1
  28   15   16 ar
  29   15   32 1
  30   16   17 ar
  31   16   19 1
  32   17   18 ar
  33   17   33 1
  34   18   34 1
  35   19   20 1
  36   20   35 1
  37   20   36 1
  38   20   37 1

#	End of record

