#	Name: ASD01915043
#	Creating user name:	WinNT
#	Creation time:	15. 06. 2019 20:04

#	Modifying user name:	WinNT
#	Modification time:	15. 06. 2019 20:04

#	Program:	/corina/corina34_cracker 3.40 0067  02.08.2006

@<TRIPOS>MOLECULE
ASD01915043
  29   31    0    0    0
SMALL
NO_CHARGES


@<TRIPOS>ATOM
   1 C1            -0.0180     1.4729     0.0101 C.2     
   2 C2             0.0021    -0.0041     0.0020 C.ar    
   3 C3             1.2199    -0.6895    -0.0133 C.ar    
   4 C4             1.2311    -2.0705    -0.0203 C.ar    
   5 C5             0.0409    -2.7749    -0.0127 C.ar    
   6 C6            -1.1694    -2.1019     0.0024 C.ar    
   7 C7            -1.1953    -0.7217     0.0154 C.ar    
   8 O8             1.0263     2.0950     0.0035 O.2     
   9 N9            -1.1942     2.1309     0.0193 N.am    
  10 Cl10          -2.6573    -2.9961     0.0113 Cl      
  11 Cl11           2.7149     0.1928    -0.0240 Cl      
  12 C12           -1.2129     3.5142     0.0269 C.2     
  13 N13           -0.1061     4.3134     0.0260 N.pl3   
  14 C14           -0.5471     5.6256     0.0352 C.ar    
  15 C15           -1.9509     5.5655     0.0416 C.ar    
  16 N16           -2.2945     4.2512     0.0304 N.2     
  17 C17           -2.6898     6.7510     0.0515 C.ar    
  18 C18           -2.0371     7.9635     0.0551 C.ar    
  19 C19           -0.6513     8.0171     0.0488 C.ar    
  20 C20            0.0931     6.8554     0.0393 C.ar    
  21 H21            2.1714    -2.6017    -0.0322 H       
  22 H22            0.0554    -3.8548    -0.0190 H       
  23 H23           -2.1399    -0.1982     0.0314 H       
  24 H24           -2.0276     1.6345     0.0205 H       
  25 H25            0.8175     4.0169     0.0203 H       
  26 H26           -3.7692     6.7167     0.0561 H       
  27 H27           -2.6087     8.8798     0.0624 H       
  28 H28           -0.1515     8.9745     0.0512 H       
  29 H29            1.1720     6.9040     0.0347 H       
@<TRIPOS>BOND
   1    1    2 1
   2    1    8 2
   3    1    9 am
   4    2    3 ar
   5    2    7 ar
   6    3    4 ar
   7    3   11 1
   8    4    5 ar
   9    4   21 1
  10    5    6 ar
  11    5   22 1
  12    6    7 ar
  13    6   10 1
  14    7   23 1
  15    9   12 1
  16    9   24 1
  17   12   13 1
  18   12   16 2
  19   13   14 1
  20   13   25 1
  21   14   15 ar
  22   14   20 ar
  23   15   16 1
  24   15   17 ar
  25   17   18 ar
  26   17   26 1
  27   18   19 ar
  28   18   27 1
  29   19   20 ar
  30   19   28 1
  31   20   29 1

#	End of record

