#	Name: ASD03430877
#	Creating user name:	WinNT
#	Creation time:	15. 06. 2019 20:41

#	Modifying user name:	WinNT
#	Modification time:	15. 06. 2019 20:41

#	Program:	/corina/corina34_cracker 3.40 0067  02.08.2006

@<TRIPOS>MOLECULE
ASD03430877
  80   86    0    0    0
SMALL
NO_CHARGES


@<TRIPOS>ATOM
   1 N1            -1.0671    -2.9428    -3.1827 N.am    
   2 C2            -0.7888    -4.1310    -2.3556 C.3     
   3 C3             0.7300    -4.0607    -2.0588 C.3     
   4 C4             1.2838    -3.5063    -3.3979 C.3     
   5 C5             0.1753    -2.5344    -3.8545 C.3     
   6 C6            -2.2635    -2.3349    -3.3070 C.2     
   7 O7            -3.2285    -2.7643    -2.7062 O.2     
   8 O8            -2.3896    -1.2520    -4.0970 O.3     
   9 O9             1.2589    -5.3595    -1.7843 O.3     
  10 O10            1.9867    -8.6982     1.6762 O.3     
  11 C11            1.2873    -8.9496     2.9098 C.3     
  12 C12            0.8878    -7.5382     3.3612 C.3     
  13 C13            0.8700    -6.7570     2.0747 C.ar    
  14 C14            1.5384    -7.5325     1.1310 C.ar    
  15 C15            1.6613    -7.0532    -0.1693 C.ar    
  16 C16            1.1336    -5.8204    -0.5120 C.ar    
  17 C17            0.4771    -5.0535     0.4405 C.ar    
  18 C18            0.3486    -5.5277     1.7322 C.ar    
  19 N19           -0.2405    -7.0200     5.2806 N.am    
  20 C20           -0.4468    -7.5296     4.0499 C.2     
  21 C21            1.8541    -6.9733     4.3595 C.ar    
  22 C22            3.2078    -6.7238     4.3377 C.ar    
  23 C23            3.8308    -6.1814     5.4480 C.ar    
  24 C24            3.0908    -5.8906     6.5792 C.ar    
  25 C25            1.7339    -6.1391     6.6062 C.ar    
  26 C26            1.0986    -6.6840     5.4935 C.ar    
  27 O27           -1.5033    -7.9067     3.5888 O.2     
  28 C28           -1.2976    -6.8396     6.2787 C.3     
  29 C29           -1.0227    -5.5947     7.0822 C.ar    
  30 C30           -1.1162    -5.6272     8.4610 C.ar    
  31 C31           -0.8640    -4.4852     9.1980 C.ar    
  32 C32           -0.5179    -3.3108     8.5562 C.ar    
  33 C33           -0.4234    -3.2785     7.1775 C.ar    
  34 C34           -0.6714    -4.4216     6.4407 C.ar    
  35 C35           -2.6277    -6.7049     5.5830 C.ar    
  36 C36           -3.6948    -7.4921     5.9736 C.ar    
  37 C37           -4.9148    -7.3687     5.3354 C.ar    
  38 C38           -5.0678    -6.4576     4.3071 C.ar    
  39 C39           -4.0009    -5.6698     3.9171 C.ar    
  40 C40           -2.7821    -5.7902     4.5582 C.ar    
  41 C41           -3.7076    -0.6488    -4.1833 C.3     
  42 C42           -4.1536    -0.1966    -2.7914 C.3     
  43 C43           -3.6550     0.5599    -5.1198 C.3     
  44 C44           -4.7030    -1.6743    -4.7296 C.3     
  45 H45           -1.3590    -4.0892    -1.4276 H       
  46 H46           -1.0258    -5.0409    -2.9069 H       
  47 H47            0.9361    -3.3749    -1.2370 H       
  48 H48            2.2211    -2.9739    -3.2367 H       
  49 H49            1.4150    -4.3096    -4.1230 H       
  50 H50            0.0500    -2.5966    -4.9354 H       
  51 H51            0.4344    -1.5154    -3.5672 H       
  52 H52            0.4043    -9.5645     2.7355 H       
  53 H53            1.9474    -9.4171     3.6404 H       
  54 H54            2.1710    -7.6457    -0.9147 H       
  55 H55            0.0688    -4.0901     0.1734 H       
  56 H56           -0.1618    -4.9333     2.4756 H       
  57 H57            3.7842    -6.9518     3.4533 H       
  58 H58            4.8928    -5.9860     5.4311 H       
  59 H59            3.5772    -5.4674     7.4457 H       
  60 H60            1.1624    -5.9098     7.4935 H       
  61 H61           -1.3210    -7.7032     6.9433 H       
  62 H62           -1.3866    -6.5447     8.9624 H       
  63 H63           -0.9378    -4.5105    10.2752 H       
  64 H64           -0.3215    -2.4185     9.1320 H       
  65 H65           -0.1533    -2.3609     6.6761 H       
  66 H66           -0.5940    -4.3973     5.3638 H       
  67 H67           -3.5752    -8.2039     6.7770 H       
  68 H68           -5.7483    -7.9842     5.6401 H       
  69 H69           -6.0208    -6.3617     3.8080 H       
  70 H70           -4.1204    -4.9583     3.1135 H       
  71 H71           -1.9497    -5.1721     4.2560 H       
  72 H72           -3.4445     0.5340    -2.4022 H       
  73 H73           -5.1430     0.2562    -2.8562 H       
  74 H74           -4.1911    -1.0577    -2.1242 H       
  75 H75           -3.3372     0.2377    -6.1114 H       
  76 H76           -4.6444     1.0127    -5.1846 H       
  77 H77           -2.9459     1.2905    -4.7306 H       
  78 H78           -4.7405    -2.5355    -4.0624 H       
  79 H79           -5.6924    -1.2216    -4.7944 H       
  80 H80           -4.3852    -1.9966    -5.7212 H       
@<TRIPOS>BOND
   1    1    2 1
   2    1    5 1
   3    1    6 am
   4    2    3 1
   5    2   45 1
   6    2   46 1
   7    3    4 1
   8    3    9 1
   9    3   47 1
  10    4    5 1
  11    4   48 1
  12    4   49 1
  13    5   50 1
  14    5   51 1
  15    6    7 2
  16    6    8 1
  17    8   41 1
  18    9   16 1
  19   10   11 1
  20   10   14 1
  21   11   12 1
  22   11   52 1
  23   11   53 1
  24   12   13 1
  25   12   20 1
  26   12   21 1
  27   13   14 ar
  28   13   18 ar
  29   14   15 ar
  30   15   16 ar
  31   15   54 1
  32   16   17 ar
  33   17   18 ar
  34   17   55 1
  35   18   56 1
  36   19   20 am
  37   19   26 1
  38   19   28 1
  39   20   27 2
  40   21   22 ar
  41   21   26 ar
  42   22   23 ar
  43   22   57 1
  44   23   24 ar
  45   23   58 1
  46   24   25 ar
  47   24   59 1
  48   25   26 ar
  49   25   60 1
  50   28   29 1
  51   28   35 1
  52   28   61 1
  53   29   30 ar
  54   29   34 ar
  55   30   31 ar
  56   30   62 1
  57   31   32 ar
  58   31   63 1
  59   32   33 ar
  60   32   64 1
  61   33   34 ar
  62   33   65 1
  63   34   66 1
  64   35   36 ar
  65   35   40 ar
  66   36   37 ar
  67   36   67 1
  68   37   38 ar
  69   37   68 1
  70   38   39 ar
  71   38   69 1
  72   39   40 ar
  73   39   70 1
  74   40   71 1
  75   41   42 1
  76   41   44 1
  77   41   43 1
  78   42   72 1
  79   42   73 1
  80   42   74 1
  81   43   75 1
  82   43   76 1
  83   43   77 1
  84   44   78 1
  85   44   79 1
  86   44   80 1

#	End of record

