#	Name: ASD01880562
#	Creating user name:	WinNT
#	Creation time:	15. 06. 2019 19:40

#	Modifying user name:	WinNT
#	Modification time:	15. 06. 2019 19:40

#	Program:	/corina/corina34_cracker 3.40 0067  02.08.2006

@<TRIPOS>MOLECULE
ASD01880562
  44   46    0    0    0
SMALL
NO_CHARGES


@<TRIPOS>ATOM
   1 N1            -0.0158     1.3146     0.0093 N.ar    
   2 C2             0.0021    -0.0041     0.0020 C.ar    
   3 N3             1.1333    -0.6824    -0.0120 N.ar    
   4 C4             2.2988    -0.0562    -0.0197 C.ar    
   5 C5             2.3200     1.3298    -0.0130 C.ar    
   6 C6             1.1115     2.0078     0.0022 C.ar    
   7 C7             3.6261     2.0814    -0.0214 C.3     
   8 O8             4.7109     1.1512    -0.0362 O.3     
   9 C9             5.9656     1.6681    -0.0454 C.ar    
  10 C10            7.0674     0.8183    -0.0600 C.ar    
  11 C11            8.3361     1.3425    -0.0697 C.ar    
  12 C12            8.5296     2.7279    -0.0649 C.ar    
  13 C13            7.4196     3.5769    -0.0507 C.ar    
  14 C14            6.1490     3.0458    -0.0459 C.ar    
  15 C15            9.7103     0.7207    -0.0858 C.3     
  16 N16           10.6644     1.8356    -0.0897 N.am    
  17 C17            9.9789     2.9916    -0.0776 C.2     
  18 O18           10.4834     4.0979    -0.0776 O.2     
  19 Br19          -1.6369    -0.9472     0.0126 Br      
  20 C20            1.0814     3.5145     0.0096 C.3     
  21 C21            1.0569     4.0312    -1.4303 C.3     
  22 F22           -0.0823     3.5452    -2.0808 F       
  23 F23            1.0289     5.4299    -1.4234 F       
  24 F24            2.2017     3.5909    -2.1032 F       
  25 C25           14.1427     1.5400    -1.5660 C.3     
  26 C26           12.6185     1.6718    -1.5512 C.3     
  27 C27           12.1238     1.7093    -0.1038 C.3     
  28 H28            3.2215    -0.6175    -0.0309 H       
  29 H29            3.6765     2.7124    -0.9087 H       
  30 H30            3.6931     2.7035     0.8712 H       
  31 H31            6.9246    -0.2522    -0.0633 H       
  32 H32            7.5580     4.6480    -0.0465 H       
  33 H33            5.2916     3.7024    -0.0353 H       
  34 H34            9.8545     0.1073     0.8036 H       
  35 H35            9.8373     0.1158    -0.9835 H       
  36 H36            0.1895     3.8575     0.5340 H       
  37 H37            1.9690     3.8931     0.5165 H       
  38 H38           14.4951     1.5133    -2.5971 H       
  39 H39           14.5862     2.3930    -1.0524 H       
  40 H40           14.4327     0.6197    -1.0590 H       
  41 H41           12.3285     2.5921    -2.0582 H       
  42 H42           12.1750     0.8188    -2.0647 H       
  43 H43           12.5673     2.5623     0.4097 H       
  44 H44           12.4139     0.7890     0.4032 H       
@<TRIPOS>BOND
   1    1    2 ar
   2    1    6 ar
   3    2    3 ar
   4    2   19 1
   5    3    4 ar
   6    4    5 ar
   7    4   28 1
   8    5    6 ar
   9    5    7 1
  10    6   20 1
  11    7    8 1
  12    7   29 1
  13    7   30 1
  14    8    9 1
  15    9   10 ar
  16    9   14 ar
  17   10   11 ar
  18   10   31 1
  19   11   12 ar
  20   11   15 1
  21   12   13 ar
  22   12   17 1
  23   13   14 ar
  24   13   32 1
  25   14   33 1
  26   15   16 1
  27   15   34 1
  28   15   35 1
  29   16   17 am
  30   16   27 1
  31   17   18 2
  32   20   21 1
  33   20   36 1
  34   20   37 1
  35   21   22 1
  36   21   23 1
  37   21   24 1
  38   25   26 1
  39   25   38 1
  40   25   39 1
  41   25   40 1
  42   26   27 1
  43   26   41 1
  44   26   42 1
  45   27   43 1
  46   27   44 1

#	End of record

