#	Name: ASD00172015
#	Creating user name:	WinNT
#	Creation time:	15. 06. 2019 18:33

#	Modifying user name:	WinNT
#	Modification time:	15. 06. 2019 18:33

#	Program:	/corina/corina34_cracker 3.40 0067  02.08.2006

@<TRIPOS>MOLECULE
ASD00172015
  45   47    0    0    0
SMALL
NO_CHARGES


@<TRIPOS>ATOM
   1 C1            -0.0216     1.3350    -0.1125 C.2     
   2 C2             0.0098     0.0095    -0.1453 C.2     
   3 C3            -1.3394    -0.5637    -0.0806 C.2     
   4 C4            -2.3274     0.3689     0.0607 C.2     
   5 S5            -1.6658     1.9344     0.0986 S.3     
   6 N6            -3.6735     0.0807     0.1584 N.pl3   
   7 C7            -1.6020    -2.0002    -0.1607 C.2     
   8 C8            -1.7891    -2.6455    -1.4787 C.ar    
   9 O9            -1.6665    -2.6650     0.8574 O.2     
  10 C10           -1.9320    -4.0311    -1.5667 C.ar    
  11 C11           -2.1067    -4.6266    -2.7988 C.ar    
  12 C12           -2.1399    -3.8534    -3.9457 C.ar    
  13 C13           -1.9984    -2.4793    -3.8655 C.ar    
  14 C14           -1.8293    -1.8708    -2.6390 C.ar    
  15 C15            1.1706     2.2631    -0.2469 C.3     
  16 C16            1.5536     2.3315    -1.7283 C.3     
  17 C17            1.7708     0.9063    -2.2468 C.3     
  18 C18            2.9381     0.3578    -1.4511 C.3     
  19 C19            2.5393    -0.1903    -0.0925 C.3     
  20 C20            1.2099    -0.9319    -0.1507 C.3     
  21 C21            0.4267     2.9990    -2.5193 C.3     
  22 C22           -2.3306    -4.5107    -5.2883 C.3     
  23 H23           -3.9830    -0.8324     0.0518 H       
  24 H24           -4.3101     0.7913     0.3337 H       
  25 H25           -1.9055    -4.6357    -0.6722 H       
  26 H26           -2.2174    -5.6986    -2.8682 H       
  27 H27           -2.0249    -1.8815    -4.7645 H       
  28 H28           -1.7190    -0.7982    -2.5776 H       
  29 H29            0.9053     3.2578     0.1112 H       
  30 H30            2.0078     1.8736     0.3323 H       
  31 H31            2.4729     2.9059    -1.8421 H       
  32 H32            0.8799     0.3025    -2.0736 H       
  33 H33            2.0144     0.9248    -3.3090 H       
  34 H34            3.4078    -0.4406    -2.0256 H       
  35 H35            3.6670     1.1551    -1.3058 H       
  36 H36            3.3130    -0.8747     0.2555 H       
  37 H37            2.4545     0.6362     0.6130 H       
  38 H38            1.1397    -1.5965     0.7105 H       
  39 H39            1.1817    -1.5329    -1.0595 H       
  40 H40            0.2649     4.0080    -2.1400 H       
  41 H41            0.7012     3.0466    -3.5731 H       
  42 H42           -0.4888     2.4179    -2.4082 H       
  43 H43           -3.3949    -4.5703    -5.5158 H       
  44 H44           -1.8274    -3.9224    -6.0557 H       
  45 H45           -1.9074    -5.5149    -5.2646 H       
@<TRIPOS>BOND
   1    1    2 2
   2    1   15 1
   3    1    5 1
   4    2    3 1
   5    2   20 1
   6    3    4 2
   7    3    7 1
   8    4    5 1
   9    4    6 1
  10    6   23 1
  11    6   24 1
  12    7    8 1
  13    7    9 2
  14    8   10 ar
  15    8   14 ar
  16   10   11 ar
  17   10   25 1
  18   11   12 ar
  19   11   26 1
  20   12   13 ar
  21   12   22 1
  22   13   14 ar
  23   13   27 1
  24   14   28 1
  25   15   16 1
  26   15   29 1
  27   15   30 1
  28   16   17 1
  29   16   21 1
  30   16   31 1
  31   17   18 1
  32   17   32 1
  33   17   33 1
  34   18   19 1
  35   18   34 1
  36   18   35 1
  37   19   20 1
  38   19   36 1
  39   19   37 1
  40   20   38 1
  41   20   39 1
  42   21   40 1
  43   21   41 1
  44   21   42 1
  45   22   43 1
  46   22   44 1
  47   22   45 1

#	End of record

