#	Name: ASD01885472
#	Creating user name:	WinNT
#	Creation time:	15. 06. 2019 19:49

#	Modifying user name:	WinNT
#	Modification time:	15. 06. 2019 19:49

#	Program:	/corina/corina34_cracker 3.40 0067  02.08.2006

@<TRIPOS>MOLECULE
ASD01885472
  48   51    0    0    0
SMALL
NO_CHARGES


@<TRIPOS>ATOM
   1 C1            -0.3137     1.6158    -0.1338 C.ar    
   2 C2            -0.3575     0.3712    -0.7622 C.ar    
   3 N3            -1.5022    -0.3230    -0.9850 N.2     
   4 C4            -2.6195     0.1619    -1.3885 C.2     
   5 C5            -2.7996     1.6364    -1.6374 C.3     
   6 C6            -2.6025     2.3612    -0.3300 C.2     
   7 N7            -1.4404     2.2903     0.3180 N.am    
   8 C8             0.9170     2.2423     0.0589 C.ar    
   9 C9             2.0898     1.6444    -0.3709 C.ar    
  10 C10            2.0465     0.4054    -1.0029 C.ar    
  11 C11            0.8408    -0.2236    -1.1967 C.ar    
  12 C12           -3.7556    -0.7473    -1.6147 C.ar    
  13 O13           -3.5105     3.0169     0.1354 O.2     
  14 C14           -5.0228    -0.2305    -1.8996 C.ar    
  15 C15           -6.0824    -1.0879    -2.1104 C.ar    
  16 C16           -5.8939    -2.4568    -2.0404 C.ar    
  17 C17           -4.6417    -2.9768    -1.7582 C.ar    
  18 C18           -3.5709    -2.1316    -1.5512 C.ar    
  19 N19            3.3155     2.2849    -0.1705 N.pl3   
  20 C20            4.4581     1.5462    -0.0284 C.2     
  21 N21            5.6356     2.0991    -0.2606 N.2     
  22 N22            4.3817     0.2349     0.3543 N.pl3   
  23 C23            5.5512    -0.4877     0.6118 C.ar    
  24 C24            5.7193     3.4223    -0.5405 C.1     
  25 N25            5.7895     4.5315    -0.7752 N.1     
  26 C26            6.6534     0.1477     1.1690 C.ar    
  27 C27            7.8067    -0.5687     1.4221 C.ar    
  28 C28            7.8648    -1.9172     1.1212 C.ar    
  29 C29            6.7694    -2.5527     0.5660 C.ar    
  30 C30            5.6109    -1.8434     0.3162 C.ar    
  31 Br31          -4.3972    -4.8496    -1.6641 Br      
  32 H32           -2.0623     1.9798    -2.3631 H       
  33 H33           -3.8043     1.8258    -2.0151 H       
  34 H34           -1.3765     2.7427     1.1737 H       
  35 H35            0.9559     3.2043     0.5482 H       
  36 H36            2.9600    -0.0612    -1.3407 H       
  37 H37            0.8127    -1.1852    -1.6875 H       
  38 H38           -5.1719     0.8378    -1.9543 H       
  39 H39           -7.0619    -0.6897    -2.3302 H       
  40 H40           -6.7275    -3.1231    -2.2064 H       
  41 H41           -2.5948    -2.5381    -1.3315 H       
  42 H42            3.3561     3.2533    -0.1322 H       
  43 H43            3.5165    -0.1937     0.4469 H       
  44 H44            6.6087     1.2009     1.4039 H       
  45 H45            8.6642    -0.0751     1.8550 H       
  46 H46            8.7679    -2.4751     1.3201 H       
  47 H47            6.8181    -3.6059     0.3318 H       
  48 H48            4.7557    -2.3403    -0.1176 H       
@<TRIPOS>BOND
   1    1    2 ar
   2    1    8 ar
   3    1    7 1
   4    2    3 1
   5    2   11 ar
   6    3    4 2
   7    4    5 1
   8    4   12 1
   9    5    6 1
  10    5   32 1
  11    5   33 1
  12    6    7 am
  13    6   13 2
  14    7   34 1
  15    8    9 ar
  16    8   35 1
  17    9   10 ar
  18    9   19 1
  19   10   11 ar
  20   10   36 1
  21   11   37 1
  22   12   14 ar
  23   12   18 ar
  24   14   15 ar
  25   14   38 1
  26   15   16 ar
  27   15   39 1
  28   16   17 ar
  29   16   40 1
  30   17   18 ar
  31   17   31 1
  32   18   41 1
  33   19   20 1
  34   19   42 1
  35   20   21 2
  36   20   22 1
  37   21   24 1
  38   22   23 1
  39   22   43 1
  40   23   26 ar
  41   23   30 ar
  42   24   25 3
  43   26   27 ar
  44   26   44 1
  45   27   28 ar
  46   27   45 1
  47   28   29 ar
  48   28   46 1
  49   29   30 ar
  50   29   47 1
  51   30   48 1

#	End of record

