#	Name: ASD04880966
#	Creating user name:	WinNT
#	Creation time:	15. 06. 2019 20:53

#	Modifying user name:	WinNT
#	Modification time:	15. 06. 2019 20:53

#	Program:	/corina/corina34_cracker 3.40 0067  02.08.2006

@<TRIPOS>MOLECULE
ASD04880966
  75   80    0    0    0
SMALL
NO_CHARGES


@<TRIPOS>ATOM
   1 C1             0.0123     1.2072     1.4928 C.2     
   2 C2            -0.0360    -0.2300     1.2063 C.2     
   3 O3             0.8013    -0.9740     1.6825 O.2     
   4 N4            -1.0077    -0.7272     0.4156 N.am    
   5 C5            -0.9955    -2.0817     0.0584 C.ar    
   6 C6            -2.1998    -2.7683    -0.1228 C.ar    
   7 C7            -2.1891    -4.1123    -0.4767 C.ar    
   8 C8            -0.9926    -4.7726    -0.6505 C.ar    
   9 C9             0.2146    -4.0923    -0.4709 C.ar    
  10 C10            0.2068    -2.7389    -0.1205 C.ar    
  11 C11            1.4958    -4.7998    -0.6567 C.2     
  12 O12            2.4151    -4.2514    -1.2334 O.2     
  13 N13            1.6473    -6.0540    -0.1871 N.am    
  14 N14           -3.4115    -2.1049     0.0518 N.3     
  15 C15           -3.6000    -1.7134     1.4557 C.3     
  16 C16           -4.9016    -0.9197     1.5908 C.3     
  17 N17           -6.0250    -1.7425     1.1212 N.3     
  18 C18           -5.8366    -2.1340    -0.2827 C.3     
  19 C19           -4.5349    -2.9277    -0.4178 C.3     
  20 C20           -7.2405    -1.0770     1.2964 C.ar    
  21 C21           -7.7159    -0.8210     2.5765 C.ar    
  22 C22           -8.9176    -0.1625     2.7461 C.ar    
  23 C23           -9.6481     0.2418     1.6435 C.ar    
  24 C24           -9.1779    -0.0114     0.3681 C.ar    
  25 C25           -7.9738    -0.6646     0.1913 C.ar    
  26 C26           -6.9211    -1.2620     3.7785 C.3     
  27 C27            0.9376     1.8392     2.2735 C.2     
  28 C28            0.6045     3.2027     2.2703 C.2     
  29 C29           -0.4954     3.3417     1.4977 C.2     
  30 O30           -0.8461     2.1379     1.0267 O.3     
  31 C31            2.9439    -6.7382    -0.2858 C.3     
  32 C32            3.3536    -7.2198     1.1105 C.3     
  33 C33            2.2290    -8.0568     1.7087 C.3     
  34 C34            0.9452    -7.2433     1.8246 C.3     
  35 C35            0.5204    -6.7598     0.4382 C.3     
  36 C36            1.9849    -9.3113     0.8440 C.3     
  37 C37            2.6418    -8.6055     3.0829 C.3     
  38 O38            2.5784   -10.0407     3.0022 O.3     
  39 C39            2.7814   -10.3949     1.6168 C.3     
  40 H40           -1.7154    -0.1471     0.0939 H       
  41 H41           -3.1210    -4.6403    -0.6153 H       
  42 H42           -0.9877    -5.8170    -0.9255 H       
  43 H43            1.1383    -2.2093     0.0143 H       
  44 H44           -3.6523    -2.6065     2.0784 H       
  45 H45           -2.7619    -1.0947     1.7764 H       
  46 H46           -5.0582    -0.6531     2.6361 H       
  47 H47           -4.8387    -0.0128     0.9894 H       
  48 H48           -6.6747    -2.7527    -0.6033 H       
  49 H49           -5.7842    -1.2409    -0.9054 H       
  50 H50           -4.3784    -3.1943    -1.4631 H       
  51 H51           -4.5978    -3.8346     0.1836 H       
  52 H52           -9.2878     0.0368     3.7410 H       
  53 H53          -10.5881     0.7561     1.7789 H       
  54 H54           -9.7508     0.3057    -0.4908 H       
  55 H55           -7.6049    -0.8581    -0.8052 H       
  56 H56           -6.2992    -0.4369     4.1256 H       
  57 H57           -7.6026    -1.5630     4.5742 H       
  58 H58           -6.2867    -2.1052     3.5052 H       
  59 H59            1.7649     1.3789     2.7932 H       
  60 H60            1.1286     3.9923     2.7883 H       
  61 H61           -1.0052     4.2710     1.2907 H       
  62 H62            2.8561    -7.5931    -0.9562 H       
  63 H63            3.6941    -6.0462    -0.6686 H       
  64 H64            4.2569    -7.8252     1.0356 H       
  65 H65            3.5454    -6.3584     1.7503 H       
  66 H66            0.1581    -7.8653     2.2508 H       
  67 H67            1.1176    -6.3821     2.4701 H       
  68 H68           -0.3280    -6.0821     0.5331 H       
  69 H69            0.2401    -7.6164    -0.1747 H       
  70 H70            0.9241    -9.5592     0.8083 H       
  71 H71            2.3858    -9.1758    -0.1605 H       
  72 H72            3.6588    -8.2915     3.3177 H       
  73 H73            1.9537    -8.2460     3.8480 H       
  74 H74            2.3785   -11.3866     1.4114 H       
  75 H75            3.8398   -10.3490     1.3603 H       
@<TRIPOS>BOND
   1    1    2 1
   2    1   27 2
   3    1   30 1
   4    2    3 2
   5    2    4 am
   6    4    5 1
   7    4   40 1
   8    5    6 ar
   9    5   10 ar
  10    6    7 ar
  11    6   14 1
  12    7    8 ar
  13    7   41 1
  14    8    9 ar
  15    8   42 1
  16    9   10 ar
  17    9   11 1
  18   10   43 1
  19   11   12 2
  20   11   13 am
  21   13   31 1
  22   13   35 1
  23   14   15 1
  24   14   19 1
  25   15   16 1
  26   15   44 1
  27   15   45 1
  28   16   17 1
  29   16   46 1
  30   16   47 1
  31   17   18 1
  32   17   20 1
  33   18   19 1
  34   18   48 1
  35   18   49 1
  36   19   50 1
  37   19   51 1
  38   20   21 ar
  39   20   25 ar
  40   21   22 ar
  41   21   26 1
  42   22   23 ar
  43   22   52 1
  44   23   24 ar
  45   23   53 1
  46   24   25 ar
  47   24   54 1
  48   25   55 1
  49   26   56 1
  50   26   57 1
  51   26   58 1
  52   27   28 1
  53   27   59 1
  54   28   29 2
  55   28   60 1
  56   29   30 1
  57   29   61 1
  58   31   32 1
  59   31   62 1
  60   31   63 1
  61   32   33 1
  62   32   64 1
  63   32   65 1
  64   33   34 1
  65   33   37 1
  66   33   36 1
  67   34   35 1
  68   34   66 1
  69   34   67 1
  70   35   68 1
  71   35   69 1
  72   36   39 1
  73   36   70 1
  74   36   71 1
  75   37   38 1
  76   37   72 1
  77   37   73 1
  78   38   39 1
  79   39   74 1
  80   39   75 1

#	End of record

