#	Name: ASD01811290
#	Creating user name:	WinNT
#	Creation time:	15. 06. 2019 19:26

#	Modifying user name:	WinNT
#	Modification time:	15. 06. 2019 19:26

#	Program:	/corina/corina34_cracker 3.40 0067  02.08.2006

@<TRIPOS>MOLECULE
ASD01811290
  60   63    0    0    0
SMALL
NO_CHARGES


@<TRIPOS>ATOM
   1 N1            -0.3208     1.0667     1.6187 N.am    
   2 C2            -0.5118    -0.1324     1.0337 C.2     
   3 S3             0.4709    -1.4644     1.4709 S.2     
   4 N4            -1.4763    -0.2829     0.1045 N.am    
   5 C5            -1.6125    -1.5001    -0.5717 C.ar    
   6 C6            -2.8778    -1.9880    -0.8767 C.ar    
   7 C7            -3.0176    -3.1899    -1.5445 C.ar    
   8 C8            -1.9018    -3.9139    -1.9131 C.ar    
   9 C9            -0.6268    -3.4327    -1.6115 C.ar    
  10 C10           -0.4855    -2.2168    -0.9425 C.ar    
  11 C11           -4.1013    -1.2040    -0.4774 C.3     
  12 C12            0.5703    -4.2064    -2.0047 C.2     
  13 O13            1.5903    -3.6275    -2.3240 O.2     
  14 N14            0.5305    -5.5536    -2.0092 N.am    
  15 C15           -0.6565    -6.2690    -1.5214 C.3     
  16 C16           -0.2203    -7.2779    -0.4544 C.3     
  17 C17            0.8680    -8.1861    -1.0315 C.3     
  18 C18            2.0832    -7.3429    -1.4244 C.3     
  19 C19            1.6708    -6.3346    -2.5076 C.3     
  20 C20            1.2756    -9.2019     0.0044 C.ar    
  21 C21            1.1272   -10.5521    -0.2593 C.ar    
  22 C22            1.4983   -11.4873     0.6844 C.ar    
  23 C23            2.0250   -11.0687     1.9079 C.ar    
  24 C24            2.1724    -9.7046     2.1673 C.ar    
  25 C25            1.8017    -8.7803     1.2127 C.ar    
  26 C26            2.4119   -12.0339     2.8924 C.1     
  27 N27            2.7188   -12.7996     3.6734 N.1     
  28 C28            0.7767     0.2175     3.6009 C.ar    
  29 C29            0.6285     1.2046     2.6409 C.ar    
  30 C30            1.4419     2.3420     2.7070 C.ar    
  31 C31            2.3693     2.4294     3.7424 C.ar    
  32 C32            2.4528     1.4005     4.6585 C.ar    
  33 N33            1.6698     0.3425     4.5648 N.ar    
  34 N34            1.3270     3.3599     1.7614 N.pl3   
  35 H35           -0.8374     1.8351     1.3297 H       
  36 H36           -2.0762     0.4528    -0.0954 H       
  37 H37           -4.0033    -3.5641    -1.7785 H       
  38 H38           -2.0152    -4.8528    -2.4345 H       
  39 H39            0.4986    -1.8372    -0.7104 H       
  40 H40           -4.3712    -0.5179    -1.2803 H       
  41 H41           -4.9280    -1.8899    -0.2924 H       
  42 H42           -3.8897    -0.6371     0.4292 H       
  43 H43           -1.3587    -5.5578    -1.0864 H       
  44 H44           -1.1319    -6.7952    -2.3492 H       
  45 H45            0.1722    -6.7448     0.4115 H       
  46 H46           -1.0762    -7.8819    -0.1532 H       
  47 H47            0.4827    -8.7002    -1.9120 H       
  48 H48            2.4539    -6.8091    -0.5493 H       
  49 H49            2.8667    -7.9930    -1.8136 H       
  50 H50            1.3814    -6.8660    -3.4142 H       
  51 H51            2.5047    -5.6666    -2.7235 H       
  52 H52            0.7197   -10.8744    -1.2061 H       
  53 H53            1.3813   -12.5408     0.4775 H       
  54 H54            2.5791    -9.3740     3.1116 H       
  55 H55            1.9190    -7.7250     1.4103 H       
  56 H56            0.1518    -0.6625     3.5629 H       
  57 H57            3.0149     3.2910     3.8271 H       
  58 H58            3.1698     1.4621     5.4638 H       
  59 H59            0.6769     3.2856     1.0454 H       
  60 H60            1.8972     4.1425     1.8195 H       
@<TRIPOS>BOND
   1    1    2 am
   2    1   29 1
   3    1   35 1
   4    2    3 2
   5    2    4 am
   6    4    5 1
   7    4   36 1
   8    5    6 ar
   9    5   10 ar
  10    6    7 ar
  11    6   11 1
  12    7    8 ar
  13    7   37 1
  14    8    9 ar
  15    8   38 1
  16    9   10 ar
  17    9   12 1
  18   10   39 1
  19   11   40 1
  20   11   41 1
  21   11   42 1
  22   12   13 2
  23   12   14 am
  24   14   15 1
  25   14   19 1
  26   15   16 1
  27   15   43 1
  28   15   44 1
  29   16   17 1
  30   16   45 1
  31   16   46 1
  32   17   18 1
  33   17   20 1
  34   17   47 1
  35   18   19 1
  36   18   48 1
  37   18   49 1
  38   19   50 1
  39   19   51 1
  40   20   21 ar
  41   20   25 ar
  42   21   22 ar
  43   21   52 1
  44   22   23 ar
  45   22   53 1
  46   23   24 ar
  47   23   26 1
  48   24   25 ar
  49   24   54 1
  50   25   55 1
  51   26   27 3
  52   28   29 ar
  53   28   33 ar
  54   28   56 1
  55   29   30 ar
  56   30   31 ar
  57   30   34 1
  58   31   32 ar
  59   31   57 1
  60   32   33 ar
  61   32   58 1
  62   34   59 1
  63   34   60 1

#	End of record

