#	Name: ASD01912701
#	Creating user name:	WinNT
#	Creation time:	15. 06. 2019 20:00

#	Modifying user name:	WinNT
#	Modification time:	15. 06. 2019 20:00

#	Program:	/corina/corina34_cracker 3.40 0067  02.08.2006

@<TRIPOS>MOLECULE
ASD01912701
  41   44    0    0    0
SMALL
NO_CHARGES


@<TRIPOS>ATOM
   1 C1            -0.0165     1.3669     0.0096 C.2     
   2 N2             0.0021    -0.0041     0.0020 N.pl3   
   3 C3            -1.2025    -0.6923     0.0094 C.2     
   4 C4            -2.3629    -0.0504     0.0235 C.2     
   5 N5            -2.4359     1.3311     0.0317 N.am    
   6 C6            -1.3019     2.0670     0.0309 C.2     
   7 C7             1.3014     1.7837    -0.0008 C.2     
   8 C8             2.0550     0.6110    -0.0143 C.2     
   9 N9             1.2244    -0.4045    -0.0118 N.2     
  10 O10           -1.3487     3.2837     0.0380 O.2     
  11 C11           -3.6750     1.9623     0.0465 C.ar    
  12 C12            3.5594     0.5248    -0.0298 C.3     
  13 O13            4.1120     1.8427    -0.0288 O.3     
  14 C14            5.4672     1.9435    -0.0419 C.ar    
  15 C15            6.0711     3.1924    -0.0417 C.ar    
  16 C16            7.4489     3.2922    -0.0551 C.ar    
  17 C17            8.2259     2.1486    -0.0688 C.ar    
  18 C18            7.6265     0.9027    -0.0694 C.ar    
  19 C19            6.2491     0.7975    -0.0498 C.ar    
  20 N20           -3.7253     3.2851     0.0541 N.ar    
  21 C21           -4.8867     3.9216     0.0678 C.ar    
  22 C22           -5.9726     1.7968     0.0607 C.ar    
  23 N23           -4.7748     1.2252     0.0472 N.ar    
  24 C24           -6.0586     3.1886     0.0742 C.ar    
  25 O25           -7.0959     1.0388     0.0609 O.3     
  26 C26           -6.9215    -0.3794     0.0461 C.3     
  27 H27           -1.1951    -1.7723     0.0031 H       
  28 H28           -3.2784    -0.6234     0.0285 H       
  29 H29            1.6684     2.7994     0.0008 H       
  30 H30            3.9017    -0.0134     0.8540 H       
  31 H31            3.8838    -0.0044    -0.9258 H       
  32 H32            5.4646     4.0860    -0.0314 H       
  33 H33            7.9195     4.2643    -0.0553 H       
  34 H34            9.3029     2.2287    -0.0792 H       
  35 H35            8.2355     0.0109    -0.0808 H       
  36 H36            5.7814    -0.1759    -0.0503 H       
  37 H37           -4.9178     5.0011     0.0742 H       
  38 H38           -7.0189     3.6826     0.0856 H       
  39 H39           -7.8971    -0.8655     0.0480 H       
  40 H40           -6.3731    -0.6688    -0.8504 H       
  41 H41           -6.3612    -0.6858     0.9295 H       
@<TRIPOS>BOND
   1    1    2 1
   2    1    7 2
   3    1    6 1
   4    2    3 1
   5    2    9 1
   6    3    4 2
   7    3   27 1
   8    4    5 1
   9    4   28 1
  10    5    6 am
  11    5   11 1
  12    6   10 2
  13    7    8 1
  14    7   29 1
  15    8    9 2
  16    8   12 1
  17   11   20 ar
  18   11   23 ar
  19   12   13 1
  20   12   30 1
  21   12   31 1
  22   13   14 1
  23   14   15 ar
  24   14   19 ar
  25   15   16 ar
  26   15   32 1
  27   16   17 ar
  28   16   33 1
  29   17   18 ar
  30   17   34 1
  31   18   19 ar
  32   18   35 1
  33   19   36 1
  34   20   21 ar
  35   21   24 ar
  36   21   37 1
  37   22   23 ar
  38   22   25 1
  39   22   24 ar
  40   24   38 1
  41   25   26 1
  42   26   39 1
  43   26   40 1
  44   26   41 1

#	End of record

