#	Name: ASD07930636
#	Creating user name:	WinNT
#	Creation time:	15. 06. 2019 21:12

#	Modifying user name:	WinNT
#	Modification time:	15. 06. 2019 21:12

#	Program:	/corina/corina34_cracker 3.40 0067  02.08.2006

@<TRIPOS>MOLECULE
ASD07930636
  45   47    0    0    0
SMALL
NO_CHARGES


@<TRIPOS>ATOM
   1 C1            -0.0343     1.4581     0.0425 C.3     
   2 N2             0.7953    -0.4133    -2.1301 N.2     
   3 N3            -0.8904    -1.7835    -1.2684 N.pl3   
   4 C4            -0.9150    -2.8271    -0.2382 C.3     
   5 C5            -1.2300    -2.1885     1.1215 C.3     
   6 S6             0.0061    -0.8913     1.4435 S.o2    
   7 N7            -0.0141    -0.0067     0.0315 N.am    
   8 C8            -0.0113    -0.7260    -1.1551 C.2     
   9 C9             0.4500    -3.5153    -0.1755 C.3     
  10 C10           -1.9765    -3.8423    -0.5755 C.ar    
  11 C11           -2.8068    -3.6380    -1.6597 C.ar    
  12 C12           -3.7847    -4.5742    -1.9703 C.ar    
  13 C13           -3.9250    -5.7138    -1.1895 C.ar    
  14 C14           -3.0923    -5.9142    -0.1059 C.ar    
  15 C15           -2.1147    -4.9822     0.1989 C.ar    
  16 O16           -0.4577     0.0117     2.4378 O.2     
  17 O17            1.3140    -1.4440     1.5004 O.2     
  18 N18           -4.6276    -4.3690    -3.0684 N.am    
  19 C19           -5.0471    -5.4193    -3.8014 C.2     
  20 O20           -4.6174    -6.5327    -3.5698 O.2     
  21 C21           -6.0302    -5.2175    -4.8874 C.ar    
  22 C22           -6.4646    -6.3035    -5.6460 C.ar    
  23 F23           -1.3013    -5.1800     1.2593 F       
  24 N24           -7.3430    -6.1217    -6.6154 N.ar    
  25 C25           -7.8113    -4.9071    -6.8668 C.ar    
  26 C26           -7.3762    -3.8190    -6.1077 C.ar    
  27 N27           -6.5056    -3.9985    -5.1382 N.ar    
  28 O28           -8.7124    -4.7216    -7.8614 O.3     
  29 H29            0.9882     1.8357     0.0394 H       
  30 H30           -0.5582     1.8209    -0.8419 H       
  31 H31           -0.5480     1.8077     0.9380 H       
  32 H32            1.4070     0.3331    -2.0331 H       
  33 H33           -1.4883    -1.8387    -2.0302 H       
  34 H34           -2.2270    -1.7484     1.0987 H       
  35 H35           -1.1800    -2.9460     1.9037 H       
  36 H36            1.2165    -2.7804     0.0705 H       
  37 H37            0.4311    -4.2908     0.5903 H       
  38 H38            0.6749    -3.9652    -1.1425 H       
  39 H39           -2.6962    -2.7508    -2.2655 H       
  40 H40           -4.6849    -6.4428    -1.4292 H       
  41 H41           -3.2013    -6.8002     0.5019 H       
  42 H42           -4.9098    -3.4709    -3.3020 H       
  43 H43           -6.0828    -7.2928    -5.4412 H       
  44 H44           -7.7579    -2.8300    -6.3140 H       
  45 H45           -9.6333    -4.8035    -7.5782 H       
@<TRIPOS>BOND
   1    1    7 1
   2    1   29 1
   3    1   30 1
   4    1   31 1
   5    2    8 2
   6    2   32 1
   7    3    4 1
   8    3    8 1
   9    3   33 1
  10    4    5 1
  11    4    9 1
  12    4   10 1
  13    5    6 1
  14    5   34 1
  15    5   35 1
  16    6    7 am
  17    6   16 2
  18    6   17 2
  19    7    8 1
  20    9   36 1
  21    9   37 1
  22    9   38 1
  23   10   11 ar
  24   10   15 ar
  25   11   12 ar
  26   11   39 1
  27   12   13 ar
  28   12   18 1
  29   13   14 ar
  30   13   40 1
  31   14   15 ar
  32   14   41 1
  33   15   23 1
  34   18   19 am
  35   18   42 1
  36   19   20 2
  37   19   21 1
  38   21   22 ar
  39   21   27 ar
  40   22   24 ar
  41   22   43 1
  42   24   25 ar
  43   25   26 ar
  44   25   28 1
  45   26   27 ar
  46   26   44 1
  47   28   45 1

#	End of record

