#	Name: ASD01815974
#	Creating user name:	WinNT
#	Creation time:	15. 06. 2019 19:34

#	Modifying user name:	WinNT
#	Modification time:	15. 06. 2019 19:34

#	Program:	/corina/corina34_cracker 3.40 0067  02.08.2006

@<TRIPOS>MOLECULE
ASD01815974
  52   56    0    0    0
SMALL
NO_CHARGES


@<TRIPOS>ATOM
   1 C1             0.3096     1.6612     0.0784 C.ar    
   2 C2             0.3501     0.2913     0.2817 C.ar    
   3 C3             1.5082    -0.4204     0.0467 C.ar    
   4 C4             2.6504     0.2353    -0.3988 C.ar    
   5 C5             2.6061     1.6244    -0.6040 C.ar    
   6 C6             1.4323     2.3309    -0.3634 C.ar    
   7 N7             3.8158    -0.4729    -0.6361 N.pl3   
   8 C8             4.9485     0.1060    -1.0661 C.2     
   9 C9             5.0249     1.4562    -1.3019 C.2     
  10 C10            3.8293     2.3003    -1.0770 C.2     
  11 C11            6.0610     2.3775    -1.7578 C.2     
  12 N12            5.4919     3.6021    -1.7812 N.am    
  13 N13            4.1590     3.5255    -1.3696 N.2     
  14 C14            6.1450     4.7808    -2.1632 C.ar    
  15 O15            7.2105     2.0978    -2.0571 O.2     
  16 C16            3.8135    -1.9199    -0.4072 C.3     
  17 C17            3.5459    -2.6447    -1.7278 C.3     
  18 C18            3.4310    -4.8280    -2.7729 C.3     
  19 C19            2.0254    -4.5394    -3.3049 C.3     
  20 C20            1.8728    -3.0341    -3.5397 C.3     
  21 C21            2.1438    -2.2910    -2.2286 C.3     
  22 C22            6.2178     5.1328    -3.5043 C.ar    
  23 C23            6.8625     6.2958    -3.8780 C.ar    
  24 C24            7.4361     7.1102    -2.9188 C.ar    
  25 C25            7.3664     6.7643    -1.5819 C.ar    
  26 C26            6.7172     5.6044    -1.1996 C.ar    
  27 F27            6.6486     5.2664     0.1066 F       
  28 N28            3.6407    -4.0950    -1.5179 N.3     
  29 C29            4.9268    -4.4555    -0.9063 C.3     
  30 H30           -0.6047     2.2059     0.2619 H       
  31 H31           -0.5335    -0.2243     0.6280 H       
  32 H32            1.5278    -1.4880     0.2091 H       
  33 H33            1.3997     3.3987    -0.5220 H       
  34 H34            5.8226    -0.5067    -1.2305 H       
  35 H35            4.7825    -2.2271    -0.0140 H       
  36 H36            3.0333    -2.1729     0.3107 H       
  37 H37            4.2843    -2.3358    -2.4677 H       
  38 H38            3.5381    -5.8974    -2.5912 H       
  39 H39            4.1700    -4.5088    -3.5078 H       
  40 H40            1.8756    -5.0713    -4.2445 H       
  41 H41            1.2854    -4.8710    -2.5765 H       
  42 H42            2.5867    -2.7093    -4.2967 H       
  43 H43            0.8591    -2.8190    -3.8776 H       
  44 H44            1.4056    -2.5871    -1.4833 H       
  45 H45            2.0786    -1.2164    -2.3992 H       
  46 H46            5.7710     4.4975    -4.2547 H       
  47 H47            6.9190     6.5694    -4.9213 H       
  48 H48            7.9400     8.0185    -3.2146 H       
  49 H49            7.8158     7.4023    -0.8352 H       
  50 H50            4.9751    -4.0495     0.1041 H       
  51 H51            5.0187    -5.5408    -0.8666 H       
  52 H52            5.7409    -4.0435    -1.5027 H       
@<TRIPOS>BOND
   1    1    2 ar
   2    1    6 ar
   3    1   30 1
   4    2    3 ar
   5    2   31 1
   6    3    4 ar
   7    3   32 1
   8    4    5 ar
   9    4    7 1
  10    5    6 ar
  11    5   10 1
  12    6   33 1
  13    7    8 1
  14    7   16 1
  15    8    9 2
  16    8   34 1
  17    9   10 1
  18    9   11 1
  19   10   13 2
  20   11   12 am
  21   11   15 2
  22   12   13 1
  23   12   14 1
  24   14   22 ar
  25   14   26 ar
  26   16   17 1
  27   16   35 1
  28   16   36 1
  29   17   28 1
  30   17   21 1
  31   17   37 1
  32   18   19 1
  33   18   28 1
  34   18   38 1
  35   18   39 1
  36   19   20 1
  37   19   40 1
  38   19   41 1
  39   20   21 1
  40   20   42 1
  41   20   43 1
  42   21   44 1
  43   21   45 1
  44   22   23 ar
  45   22   46 1
  46   23   24 ar
  47   23   47 1
  48   24   25 ar
  49   24   48 1
  50   25   26 ar
  51   25   49 1
  52   26   27 1
  53   28   29 1
  54   29   50 1
  55   29   51 1
  56   29   52 1

#	End of record

