#	Name: ASD01028616
#	Creating user name:	WinNT
#	Creation time:	15. 06. 2019 18:57

#	Modifying user name:	WinNT
#	Modification time:	15. 06. 2019 18:57

#	Program:	/corina/corina34_cracker 3.40 0067  02.08.2006

@<TRIPOS>MOLECULE
ASD01028616
  43   47    0    0    0
SMALL
NO_CHARGES


@<TRIPOS>ATOM
   1 N1            -0.0157     1.3082     0.0092 N.ar    
   2 C2             0.0021    -0.0041     0.0020 C.ar    
   3 C3             1.1922    -0.7202    -0.0132 C.ar    
   4 C4             2.3997    -0.0447    -0.0211 C.ar    
   5 C5             2.3688     1.3681    -0.0132 C.ar    
   6 C6             3.5518     2.1216    -0.0208 C.ar    
   7 C7             3.4891     3.4809    -0.0134 C.ar    
   8 C8             2.2563     4.1399     0.0018 C.ar    
   9 C9             1.0778     3.4287     0.0101 C.ar    
  10 C10            1.1142     2.0252     0.0023 C.ar    
  11 O11            2.2210     5.4978     0.0089 O.3     
  12 O12            3.5766    -0.7177    -0.0354 O.3     
  13 C13            3.5077    -2.1450    -0.0420 C.3     
  14 C14            6.8452    -3.5099     0.5394 C.2     
  15 C15            7.8592    -3.9250     1.4297 C.2     
  16 C16            7.6465    -3.8393     2.7691 C.2     
  17 C17            6.4127    -3.3356     3.2511 C.2     
  18 C18            5.4467    -2.9402     2.3740 C.2     
  19 N19            5.6581    -3.0253     1.0312 N.pl3   
  20 N20            5.6097    -3.0004    -1.1207 N.2     
  21 N21            6.7589    -3.4677    -0.7798 N.2     
  22 C22            4.9026    -2.7151    -0.0579 C.2     
  23 O23            5.9956    -2.1154     5.4236 O.3     
  24 N24            5.8194    -2.3612     6.5941 N.2     
  25 C25            5.8504    -3.6419     6.8325 C.2     
  26 C26            6.0850    -4.2761     5.5958 C.2     
  27 C27            6.1727    -3.2393     4.7063 C.2     
  28 C28            5.6708    -4.3137     8.1694 C.3     
  29 F29            9.0299    -4.4034     0.9545 F       
  30 H30           -0.9344    -0.5420     0.0084 H       
  31 H31            1.1751    -1.8000    -0.0185 H       
  32 H32            4.5103     1.6241    -0.0322 H       
  33 H33            4.4024     4.0574    -0.0190 H       
  34 H34            0.1306     3.9474     0.0219 H       
  35 H35            2.2023     5.8953    -0.8724 H       
  36 H36            2.9853    -2.4876     0.8512 H       
  37 H37            2.9687    -2.4787    -0.9287 H       
  38 H38            8.4130    -4.1534     3.4621 H       
  39 H39            4.5081    -2.5570     2.7463 H       
  40 H40            6.1750    -5.3337     5.3965 H       
  41 H41            4.6146    -4.5310     8.3280 H       
  42 H42            6.2398    -5.2432     8.1883 H       
  43 H43            6.0283    -3.6528     8.9591 H       
@<TRIPOS>BOND
   1    1    2 ar
   2    1   10 ar
   3    2    3 ar
   4    2   30 1
   5    3    4 ar
   6    3   31 1
   7    4    5 ar
   8    4   12 1
   9    5    6 ar
  10    5   10 ar
  11    6    7 ar
  12    6   32 1
  13    7    8 ar
  14    7   33 1
  15    8    9 ar
  16    8   11 1
  17    9   10 ar
  18    9   34 1
  19   11   35 1
  20   12   13 1
  21   13   22 1
  22   13   36 1
  23   13   37 1
  24   14   15 1
  25   14   19 1
  26   14   21 2
  27   15   16 2
  28   15   29 1
  29   16   17 1
  30   16   38 1
  31   17   18 2
  32   17   27 1
  33   18   19 1
  34   18   39 1
  35   19   22 1
  36   20   21 1
  37   20   22 2
  38   23   24 1
  39   23   27 1
  40   24   25 2
  41   25   26 1
  42   25   28 1
  43   26   27 2
  44   26   40 1
  45   28   41 1
  46   28   42 1
  47   28   43 1

#	End of record

