#	Name: ASD05060110
#	Creating user name:	WinNT
#	Creation time:	15. 06. 2019 20:56

#	Modifying user name:	WinNT
#	Modification time:	15. 06. 2019 20:56

#	Program:	/corina/corina34_cracker 3.40 0067  02.08.2006

@<TRIPOS>MOLECULE
ASD05060110
  44   46    0    0    0
SMALL
NO_CHARGES


@<TRIPOS>ATOM
   1 C1            -0.0167     1.3779     0.0096 C.ar    
   2 C2             0.0021    -0.0041     0.0020 C.ar    
   3 C3             1.2096    -0.6792    -0.0131 C.ar    
   4 C4             2.3977     0.0297    -0.0206 C.ar    
   5 C5             2.3777     1.4116    -0.0130 C.ar    
   6 C6             1.1708     2.0856     0.0021 C.ar    
   7 C7             1.1497     3.5925     0.0098 C.3     
   8 N8             1.1557     4.0738     1.3935 N.pl3   
   9 C9             2.4273     4.3323     2.0736 C.3     
  10 C10           -0.0533     4.2867     2.0657 C.ar    
  11 C11            2.8401     5.7628     1.8401 C.ar    
  12 C12            2.4351     6.7509     2.7180 C.ar    
  13 C13            2.8133     8.0630     2.5043 C.ar    
  14 C14            3.5979     8.3873     1.4119 C.ar    
  15 C15            4.0034     7.3979     0.5340 C.ar    
  16 C16            3.6284     6.0855     0.7513 C.ar    
  17 C17           -1.2600     4.0406     1.4183 C.ar    
  18 C18           -2.4571     4.2481     2.0729 C.ar    
  19 C19           -2.4655     4.7039     3.3826 C.ar    
  20 C20           -1.2543     4.9537     4.0418 C.ar    
  21 C21           -0.0456     4.7360     3.3745 C.ar    
  22 O22           -3.6440     4.9082     4.0243 O.3     
  23 C23           -1.2549     5.4384     5.4339 C.2     
  24 O24           -2.3074     5.6224     6.0127 O.2     
  25 O25           -0.0884     5.6775     6.0646 O.3     
  26 Cl26           1.2340    -2.4150    -0.0221 Cl      
  27 Cl27           4.0730    10.0352     1.1427 Cl      
  28 H28           -0.9593     1.9050     0.0169 H       
  29 H29           -0.9257    -0.5569     0.0082 H       
  30 H30            3.3407    -0.4968    -0.0321 H       
  31 H31            3.3051     1.9651    -0.0189 H       
  32 H32            2.0297     3.9709    -0.5103 H       
  33 H33            0.2499     3.9458    -0.4938 H       
  34 H34            2.3093     4.1582     3.1431 H       
  35 H35            3.1928     3.6642     1.6789 H       
  36 H36            1.8226     6.4975     3.5707 H       
  37 H37            2.4962     8.8349     3.1899 H       
  38 H38            4.6158     7.6505    -0.3190 H       
  39 H39            3.9480     5.3125     0.0681 H       
  40 H40           -1.2599     3.6858     0.3982 H       
  41 H41           -3.3898     4.0552     1.5637 H       
  42 H42            0.8918     4.9221     3.8776 H       
  43 H43           -3.9719     4.1332     4.5007 H       
  44 H44           -0.1394     5.9943     6.9769 H       
@<TRIPOS>BOND
   1    1    2 ar
   2    1    6 ar
   3    1   28 1
   4    2    3 ar
   5    2   29 1
   6    3    4 ar
   7    3   26 1
   8    4    5 ar
   9    4   30 1
  10    5    6 ar
  11    5   31 1
  12    6    7 1
  13    7    8 1
  14    7   32 1
  15    7   33 1
  16    8    9 1
  17    8   10 1
  18    9   11 1
  19    9   34 1
  20    9   35 1
  21   10   17 ar
  22   10   21 ar
  23   11   12 ar
  24   11   16 ar
  25   12   13 ar
  26   12   36 1
  27   13   14 ar
  28   13   37 1
  29   14   15 ar
  30   14   27 1
  31   15   16 ar
  32   15   38 1
  33   16   39 1
  34   17   18 ar
  35   17   40 1
  36   18   19 ar
  37   18   41 1
  38   19   20 ar
  39   19   22 1
  40   20   21 ar
  41   20   23 1
  42   21   42 1
  43   22   43 1
  44   23   24 2
  45   23   25 1
  46   25   44 1

#	End of record

