#	Name: ASD06710021
#	Creating user name:	WinNT
#	Creation time:	15. 06. 2019 21:08

#	Modifying user name:	WinNT
#	Modification time:	15. 06. 2019 21:08

#	Program:	/corina/corina34_cracker 3.40 0067  02.08.2006

@<TRIPOS>MOLECULE
ASD06710021
  39   41    0    0    0
SMALL
NO_CHARGES


@<TRIPOS>ATOM
   1 C1            -0.0165     1.3626     0.0095 C.ar    
   2 C2             0.0021    -0.0041     0.0020 C.ar    
   3 C3             1.2071    -0.6922    -0.0132 C.ar    
   4 C4             2.4060    -0.0109    -0.0210 C.ar    
   5 C5             2.4110     1.3786    -0.0136 C.ar    
   6 C6             1.1866     2.0724     0.0019 C.ar    
   7 N7             3.4182     2.3233    -0.0174 N.pl3   
   8 C8             2.8751     3.5819    -0.0049 C.2     
   9 C9             1.5249     3.4964     0.0063 C.2     
  10 S10            3.7963     5.0839    -0.0033 S.3     
  11 C11            5.5163     4.5078    -0.0212 C.3     
  12 C12            6.4580     5.7136    -0.0216 C.3     
  13 O13            7.8130     5.2598    -0.0357 O.3     
  14 C14            8.7826     6.2120    -0.0379 C.ar    
  15 C15           10.1196     5.8421    -0.0514 C.ar    
  16 C16           11.1034     6.8120    -0.0535 C.ar    
  17 C17           10.7564     8.1503    -0.0422 C.ar    
  18 C18            9.4245     8.5215    -0.0283 C.ar    
  19 C19            8.4370     7.5555    -0.0323 C.ar    
  20 S20            3.9272    -0.8998    -0.0397 S.o2    
  21 O21            4.7385    -0.3281     0.9772 O.2     
  22 O22            3.5858    -2.2787    -0.0782 O.2     
  23 N23            4.6743    -0.5627    -1.4786 N.am    
  24 H24           -0.9579     1.8918     0.0169 H       
  25 H25           -0.9282    -0.5526     0.0083 H       
  26 H26            1.2059    -1.7722    -0.0186 H       
  27 H27            4.3679     2.1258    -0.0270 H       
  28 H28            0.8289     4.3222     0.0171 H       
  29 H29            5.7050     3.8996     0.8634 H       
  30 H30            5.6901     3.9107    -0.9165 H       
  31 H31            6.2693     6.3218    -0.9062 H       
  32 H32            6.2842     6.3106     0.8736 H       
  33 H33           10.3912     4.7969    -0.0599 H       
  34 H34           12.1444     6.5246    -0.0637 H       
  35 H35           11.5269     8.9071    -0.0439 H       
  36 H36            9.1561     9.5676    -0.0187 H       
  37 H37            7.3968     7.8460    -0.0264 H       
  38 H38            5.6426    -0.5663    -1.5349 H       
  39 H39            4.1435    -0.3616    -2.2653 H       
@<TRIPOS>BOND
   1    1    2 ar
   2    1    6 ar
   3    1   24 1
   4    2    3 ar
   5    2   25 1
   6    3    4 ar
   7    3   26 1
   8    4    5 ar
   9    4   20 1
  10    5    7 1
  11    5    6 ar
  12    6    9 1
  13    7    8 1
  14    7   27 1
  15    8    9 2
  16    8   10 1
  17    9   28 1
  18   10   11 1
  19   11   12 1
  20   11   29 1
  21   11   30 1
  22   12   13 1
  23   12   31 1
  24   12   32 1
  25   13   14 1
  26   14   15 ar
  27   14   19 ar
  28   15   16 ar
  29   15   33 1
  30   16   17 ar
  31   16   34 1
  32   17   18 ar
  33   17   35 1
  34   18   19 ar
  35   18   36 1
  36   19   37 1
  37   20   21 2
  38   20   22 2
  39   20   23 am
  40   23   38 1
  41   23   39 1

#	End of record

