#	Name: ASD01148046
#	Creating user name:	WinNT
#	Creation time:	15. 06. 2019 19:01

#	Modifying user name:	WinNT
#	Modification time:	15. 06. 2019 19:01

#	Program:	/corina/corina34_cracker 3.40 0067  02.08.2006

@<TRIPOS>MOLECULE
ASD01148046
  57   59    0    0    0
SMALL
NO_CHARGES


@<TRIPOS>ATOM
   1 C1             7.3479     1.1142     1.7019 C.ar    
   2 C2             7.8903     2.3076     2.1406 C.ar    
   3 C3             7.1817     3.4851     1.9913 C.ar    
   4 C4             5.9309     3.4692     1.4029 C.ar    
   5 C5             5.3889     2.2759     0.9633 C.ar    
   6 C6             6.0969     1.0982     1.1139 C.ar    
   7 C7             4.0249     2.2585     0.3228 C.3     
   8 N8             4.1688     2.3298    -1.1374 N.3     
   9 C9             4.9827     3.4879    -1.5303 C.3     
  10 C10            5.0352     3.5802    -3.0566 C.3     
  11 O11            3.7199     3.8114    -3.5653 O.3     
  12 C12            4.3691     4.7459    -0.9717 C.2     
  13 O13            3.1721     4.8060    -0.7862 O.2     
  14 N14            5.1505     5.8041    -0.6783 N.am    
  15 C15            4.7335     1.0837    -1.6723 C.3     
  16 C16            3.6668     0.0195    -1.6990 C.ar    
  17 C17            2.8535    -0.1162    -2.8086 C.ar    
  18 C18            3.5053    -0.8245    -0.6163 C.ar    
  19 C19            2.5267    -1.8006    -0.6408 C.ar    
  20 C20            1.7095    -1.9324    -1.7478 C.ar    
  21 C21            1.8750    -1.0923    -2.8331 C.ar    
  22 C22            3.6572     3.9143    -4.9892 C.3     
  23 F23            4.4578     4.9794    -5.4155 F       
  24 F24            4.1188     2.7250    -5.5635 F       
  25 C25            4.5540     7.0270    -0.1354 C.3     
  26 C26            5.6346     8.0497     0.1039 C.ar    
  27 C27            5.9786     8.9378    -0.8977 C.ar    
  28 C28            6.9710     9.8774    -0.6787 C.ar    
  29 C29            7.6192     9.9264     0.5460 C.ar    
  30 C30            7.2725     9.0356     1.5469 C.ar    
  31 C31            6.2771     8.1022     1.3270 C.ar    
  32 F32            8.5885    10.8424     0.7619 F       
  33 F33            7.3081    10.7456    -1.6574 F       
  34 H34            7.9034     0.1949     1.8144 H       
  35 H35            8.8674     2.3200     2.6003 H       
  36 H36            7.6051     4.4174     2.3347 H       
  37 H37            5.3770     4.3891     1.2869 H       
  38 H38            5.6736     0.1660     0.7702 H       
  39 H39            3.5087     1.3371     0.5924 H       
  40 H40            3.4480     3.1142     0.6733 H       
  41 H41            5.9932     3.3715    -1.1384 H       
  42 H42            5.6875     4.4032    -3.3486 H       
  43 H43            5.4234     2.6467    -3.4639 H       
  44 H44            6.1079     5.7560    -0.8267 H       
  45 H45            5.1003     1.2559    -2.6842 H       
  46 H46            5.5574     0.7565    -1.0380 H       
  47 H47            2.9825     0.5406    -3.6562 H       
  48 H48            4.1438    -0.7216     0.2486 H       
  49 H49            2.4010    -2.4605     0.2049 H       
  50 H50            0.9452    -2.6953    -1.7671 H       
  51 H51            1.2365    -1.1953    -3.6980 H       
  52 H52            2.6260     4.0895    -5.2958 H       
  53 H53            3.8289     7.4240    -0.8458 H       
  54 H54            4.0535     6.8001     0.8060 H       
  55 H55            5.4732     8.8984    -1.8513 H       
  56 H56            7.7767     9.0727     2.5013 H       
  57 H57            6.0070     7.4074     2.1085 H       
@<TRIPOS>BOND
   1    1    2 ar
   2    1    6 ar
   3    1   34 1
   4    2    3 ar
   5    2   35 1
   6    3    4 ar
   7    3   36 1
   8    4    5 ar
   9    4   37 1
  10    5    6 ar
  11    5    7 1
  12    6   38 1
  13    7    8 1
  14    7   39 1
  15    7   40 1
  16    8    9 1
  17    8   15 1
  18    9   10 1
  19    9   12 1
  20    9   41 1
  21   10   11 1
  22   10   42 1
  23   10   43 1
  24   11   22 1
  25   12   13 2
  26   12   14 am
  27   14   25 1
  28   14   44 1
  29   15   16 1
  30   15   45 1
  31   15   46 1
  32   16   17 ar
  33   16   18 ar
  34   17   21 ar
  35   17   47 1
  36   18   19 ar
  37   18   48 1
  38   19   20 ar
  39   19   49 1
  40   20   21 ar
  41   20   50 1
  42   21   51 1
  43   22   23 1
  44   22   24 1
  45   22   52 1
  46   25   26 1
  47   25   53 1
  48   25   54 1
  49   26   27 ar
  50   26   31 ar
  51   27   28 ar
  52   27   55 1
  53   28   29 ar
  54   28   33 1
  55   29   30 ar
  56   29   32 1
  57   30   31 ar
  58   30   56 1
  59   31   57 1

#	End of record

