#	Name: ASD01911494
#	Creating user name:	WinNT
#	Creation time:	15. 06. 2019 19:57

#	Modifying user name:	WinNT
#	Modification time:	15. 06. 2019 19:57

#	Program:	/corina/corina34_cracker 3.40 0067  02.08.2006

@<TRIPOS>MOLECULE
ASD01911494
  45   46    0    0    0
SMALL
NO_CHARGES


@<TRIPOS>ATOM
   1 C1             1.1497     1.6756    -1.1985 C.2     
   2 C2             1.2654     0.1926    -1.4047 C.3     
   3 C3             1.7275    -0.4789    -0.1091 C.3     
   4 C4             0.8551     0.0367     1.0418 C.3     
   5 C5             1.1615     1.5185     1.2628 C.3     
   6 N6             1.0835     2.2488     0.0038 N.am    
   7 C7             0.9306     3.6323     0.0600 C.ar    
   8 C8            -0.3475     4.1796     0.1202 C.ar    
   9 C9            -0.4919     5.5516     0.1762 C.ar    
  10 C10            0.6641     6.3436     0.1700 C.ar    
  11 C11            1.9102     5.7214     0.1079 C.ar    
  12 N12            2.0036     4.4081     0.0608 N.ar    
  13 O13            1.1197     2.3907    -2.1776 O.2     
  14 C14            0.5669     7.7712     0.2261 C.1     
  15 C15            0.4872     8.9416     0.2721 C.1     
  16 Si16           0.3582    10.8357     0.3466 Si      
  17 C17            2.0676    11.5761     0.3214 C.3     
  18 C18           -0.6067    11.4507    -1.1237 C.3     
  19 C19           -0.5129    11.3377     1.9150 C.3     
  20 C20            1.5739    -1.9962    -0.2321 C.3     
  21 C21            3.1927    -0.1288     0.1584 C.3     
  22 H22            0.2947    -0.2095    -1.6947 H       
  23 H23            1.9894    -0.0077    -2.1945 H       
  24 H24           -0.1974    -0.0849     0.7857 H       
  25 H25            1.0798    -0.5226     1.9500 H       
  26 H26            0.4402     1.9346     1.9660 H       
  27 H27            2.1644     1.6211     1.6772 H       
  28 H28           -1.2165     3.5384     0.1228 H       
  29 H29           -1.4718     6.0032     0.2232 H       
  30 H30            2.8079     6.3219     0.1022 H       
  31 H31            2.5772    11.2824    -0.5963 H       
  32 H32            1.9936    12.6627     0.3641 H       
  33 H33            2.6321    11.2162     1.1816 H       
  34 H34           -1.6068    11.0176    -1.1089 H       
  35 H35           -0.6807    12.5374    -1.0810 H       
  36 H36           -0.0970    11.1571    -2.0414 H       
  37 H37            0.0516    10.9779     2.7752 H       
  38 H38           -0.5869    12.4243     1.9577 H       
  39 H39           -1.5130    10.9045     1.9298 H       
  40 H40            2.1810    -2.3566    -1.0626 H       
  41 H41            1.9037    -2.4709     0.6920 H       
  42 H42            0.5276    -2.2419    -0.4135 H       
  43 H43            3.2963     0.9520     0.2545 H       
  44 H44            3.5182    -0.6085     1.0814 H       
  45 H45            3.8074    -0.4804    -0.6702 H       
@<TRIPOS>BOND
   1    1    2 1
   2    1    6 am
   3    1   13 2
   4    2    3 1
   5    2   22 1
   6    2   23 1
   7    3    4 1
   8    3   20 1
   9    3   21 1
  10    4    5 1
  11    4   24 1
  12    4   25 1
  13    5    6 1
  14    5   26 1
  15    5   27 1
  16    6    7 1
  17    7    8 ar
  18    7   12 ar
  19    8    9 ar
  20    8   28 1
  21    9   10 ar
  22    9   29 1
  23   10   11 ar
  24   10   14 1
  25   11   12 ar
  26   11   30 1
  27   14   15 3
  28   15   16 1
  29   16   17 1
  30   16   18 1
  31   16   19 1
  32   17   31 1
  33   17   32 1
  34   17   33 1
  35   18   34 1
  36   18   35 1
  37   18   36 1
  38   19   37 1
  39   19   38 1
  40   19   39 1
  41   20   40 1
  42   20   41 1
  43   20   42 1
  44   21   43 1
  45   21   44 1
  46   21   45 1

#	End of record

