#	Name: ASD03091336
#	Creating user name:	WinNT
#	Creation time:	15. 06. 2019 20:30

#	Modifying user name:	WinNT
#	Modification time:	15. 06. 2019 20:30

#	Program:	/corina/corina34_cracker 3.40 0067  02.08.2006

@<TRIPOS>MOLECULE
ASD03091336
  49   53    0    0    0
SMALL
NO_CHARGES


@<TRIPOS>ATOM
   1 N1            -0.1819     1.3950     0.0885 N.am    
   2 C2            -0.2733     0.1120     0.5564 C.2     
   3 N3            -1.4073    -0.4469     0.8902 N.2     
   4 C4            -2.5786     0.2146     0.7944 C.ar    
   5 C5            -2.5806     1.5466     0.3208 C.ar    
   6 C6            -1.2931     2.1562    -0.0444 C.2     
   7 C7             0.9682    -0.6793     0.6900 C.ar    
   8 O8            -1.2301     3.2992    -0.4583 O.2     
   9 C9            -3.7884    -0.3885     1.1525 C.ar    
  10 C10           -4.9562     0.3099     1.0427 C.ar    
  11 C11           -4.9635     1.6244     0.5755 C.ar    
  12 C12           -3.7802     2.2464     0.2142 C.ar    
  13 N13           -6.1724     2.3178     0.4718 N.3     
  14 C14            1.1605    -1.4966     1.8062 C.ar    
  15 C15            2.3197    -2.2365     1.9328 C.ar    
  16 C16            3.2958    -2.1742     0.9587 C.ar    
  17 C17            3.1166    -1.3606    -0.1634 C.ar    
  18 C18            1.9467    -0.6158    -0.3001 C.ar    
  19 C19            1.1272     1.9498    -0.2648 C.3     
  20 C20           -6.1449     3.2662    -0.6677 C.3     
  21 C21           -7.3475     2.8508    -1.5706 C.3     
  22 N22           -6.9174     1.5513    -2.1766 N.3     
  23 C23           -6.8490     0.5807    -1.0576 C.3     
  24 C24           -7.3073     1.3799     0.2014 C.3     
  25 C25           -5.6125     1.6852    -2.8378 C.3     
  26 C26           -8.3462     2.3507    -0.4661 C.3     
  27 C27            4.1305    -1.2963    -1.1726 C.1     
  28 N28            4.9348    -1.2452    -1.9732 N.1     
  29 H29           -3.7988    -1.4057     1.5152 H       
  30 H30           -5.8871    -0.1617     1.3210 H       
  31 H31           -3.7875     3.2641    -0.1474 H       
  32 H32            0.4011    -1.5498     2.5722 H       
  33 H33            2.4633    -2.8666     2.7981 H       
  34 H34            4.2001    -2.7552     1.0641 H       
  35 H35            1.8028     0.0143    -1.1653 H       
  36 H36            1.3718     1.6781    -1.2917 H       
  37 H37            1.0985     3.0355    -0.1732 H       
  38 H38            1.8854     1.5484     0.4077 H       
  39 H39           -6.2738     4.2886    -0.3124 H       
  40 H40           -5.2084     3.1708    -1.2171 H       
  41 H41           -7.7121     3.6073    -2.2654 H       
  42 H42           -7.5228    -0.2562    -1.2407 H       
  43 H43           -5.8272     0.2238    -0.9281 H       
  44 H44           -7.6529     0.7875     1.0486 H       
  45 H45           -4.8355     1.8182    -2.0850 H       
  46 H46           -5.4055     0.7863    -3.4186 H       
  47 H47           -5.6281     2.5504    -3.5006 H       
  48 H48           -8.6562     3.1513     0.2055 H       
  49 H49           -9.1986     1.8187    -0.8884 H       
@<TRIPOS>BOND
   1    1    2 1
   2    1   19 1
   3    1    6 am
   4    2    3 2
   5    2    7 1
   6    3    4 1
   7    4    5 ar
   8    4    9 ar
   9    5    6 1
  10    5   12 ar
  11    6    8 2
  12    7   14 ar
  13    7   18 ar
  14    9   10 ar
  15    9   29 1
  16   10   11 ar
  17   10   30 1
  18   11   12 ar
  19   11   13 1
  20   12   31 1
  21   13   20 1
  22   13   24 1
  23   14   15 ar
  24   14   32 1
  25   15   16 ar
  26   15   33 1
  27   16   17 ar
  28   16   34 1
  29   17   18 ar
  30   17   27 1
  31   18   35 1
  32   19   36 1
  33   19   37 1
  34   19   38 1
  35   20   21 1
  36   20   39 1
  37   20   40 1
  38   21   22 1
  39   21   26 1
  40   21   41 1
  41   22   23 1
  42   22   25 1
  43   23   24 1
  44   23   42 1
  45   23   43 1
  46   24   26 1
  47   24   44 1
  48   25   45 1
  49   25   46 1
  50   25   47 1
  51   26   48 1
  52   26   49 1
  53   27   28 3

#	End of record

