#	Name: ASD01208071
#	Creating user name:	WinNT
#	Creation time:	15. 06. 2019 19:09

#	Modifying user name:	WinNT
#	Modification time:	15. 06. 2019 19:09

#	Program:	/corina/corina34_cracker 3.40 0067  02.08.2006

@<TRIPOS>MOLECULE
ASD01208071
  64   68    0    0    0
SMALL
NO_CHARGES


@<TRIPOS>ATOM
   1 C1            -0.5081     1.5464     0.1540 C.ar    
   2 C2            -0.2859     0.1794     0.0741 C.ar    
   3 C3            -1.3573    -0.7031     0.0745 C.ar    
   4 C4            -2.6534    -0.2217     0.1544 C.ar    
   5 C5            -2.8813     1.1530     0.2350 C.ar    
   6 C6            -1.8008     2.0362     0.2400 C.ar    
   7 C7            -4.2624     1.6714     0.3204 C.2     
   8 C8            -4.6178     2.9874     0.4030 C.2     
   9 N9            -5.4035     0.9138     0.3243 N.pl3   
  10 C10           -6.4855     1.7558     0.4153 C.2     
  11 C11           -6.0120     3.0492     0.4651 C.2     
  12 O12            0.5446     2.4060     0.1537 O.3     
  13 C13            0.2421     3.8021     0.1171 C.3     
  14 C14            1.4228     4.5641    -0.4880 C.3     
  15 O15            2.5575     4.4456     0.3724 O.3     
  16 C16           -0.0151     4.3056     1.5388 C.3     
  17 O17           -1.1342    -2.0412    -0.0040 O.3     
  18 C18           -1.5429    -2.6907    -1.1235 C.ar    
  19 C19           -1.4500    -4.0772    -1.1943 C.ar    
  20 C20           -2.0584    -1.9699    -2.1938 C.ar    
  21 C21           -2.4746    -2.6252    -3.3315 C.ar    
  22 C22           -2.3783    -4.0168    -3.4092 C.ar    
  23 C23           -1.8643    -4.7396    -2.3290 C.ar    
  24 C24           -7.8977     1.3495     0.4498 C.2     
  25 N25           -8.3574     0.1177     0.4000 N.2     
  26 N26           -9.6427     0.1428     0.4541 N.2     
  27 C27          -10.0524     1.3774     0.5397 C.2     
  28 O28           -8.9651     2.1695     0.5444 O.3     
  29 C29           -2.8239    -4.7224    -4.6267 C.2     
  30 N30           -3.1645    -4.0206    -5.7257 N.am    
  31 O31           -2.8836    -5.9367    -4.6380 O.2     
  32 C32           -3.5861    -4.3405    -7.0979 C.3     
  33 C33           -2.9942    -2.9937    -7.5359 C.3     
  34 C34           -3.2843    -2.5980    -6.0788 C.3     
  35 Cl35          -0.8108    -4.9732     0.1482 Cl      
  36 C36          -11.4859     1.8346     0.6240 C.3     
  37 C37            3.7211     5.1253    -0.1031 C.3     
  38 H38            0.7235    -0.1993     0.0109 H       
  39 H39           -3.4866    -0.9089     0.1539 H       
  40 H40           -1.9728     3.1006     0.3023 H       
  41 H41           -3.9419     3.8296     0.4181 H       
  42 H42           -5.4414    -0.0540     0.2714 H       
  43 H43           -6.6093     3.9461     0.5383 H       
  44 H44           -0.6466     3.9655    -0.4925 H       
  45 H45            1.6627     4.1457    -1.4655 H       
  46 H46            1.1585     5.6159    -0.5980 H       
  47 H47            0.8735     4.1423     2.1484 H       
  48 H48           -0.2459     5.3706     1.5109 H       
  49 H49           -0.8563     3.7628     1.9699 H       
  50 H50           -2.1331    -0.8941    -2.1333 H       
  51 H51           -2.8755    -2.0639    -4.1626 H       
  52 H52           -1.7880    -5.8154    -2.3855 H       
  53 H53           -3.0681    -5.2008    -7.5217 H       
  54 H54           -4.6681    -4.3985    -7.2171 H       
  55 H55           -1.9349    -3.0324    -7.7895 H       
  56 H56           -3.5962    -2.4587    -8.2705 H       
  57 H57           -4.2854    -2.1931    -5.9300 H       
  58 H58           -2.5072    -1.9757    -5.6350 H       
  59 H59          -11.7894     1.8881     1.6695 H       
  60 H60          -11.5805     2.8198     0.1673 H       
  61 H61          -12.1247     1.1266     0.0960 H       
  62 H62            4.0087     4.7185    -1.0726 H       
  63 H63            3.5045     6.1887    -0.2051 H       
  64 H64            4.5376     4.9872     0.6056 H       
@<TRIPOS>BOND
   1    1    2 ar
   2    1   12 1
   3    1    6 ar
   4    2    3 ar
   5    2   38 1
   6    3    4 ar
   7    3   17 1
   8    4    5 ar
   9    4   39 1
  10    5    6 ar
  11    5    7 1
  12    6   40 1
  13    7    8 2
  14    7    9 1
  15    8   11 1
  16    8   41 1
  17    9   10 1
  18    9   42 1
  19   10   11 2
  20   10   24 1
  21   11   43 1
  22   12   13 1
  23   13   14 1
  24   13   16 1
  25   13   44 1
  26   14   15 1
  27   14   45 1
  28   14   46 1
  29   15   37 1
  30   16   47 1
  31   16   48 1
  32   16   49 1
  33   17   18 1
  34   18   19 ar
  35   18   20 ar
  36   19   35 1
  37   19   23 ar
  38   20   21 ar
  39   20   50 1
  40   21   22 ar
  41   21   51 1
  42   22   23 ar
  43   22   29 1
  44   23   52 1
  45   24   25 2
  46   24   28 1
  47   25   26 1
  48   26   27 2
  49   27   28 1
  50   27   36 1
  51   29   30 am
  52   29   31 2
  53   30   32 1
  54   30   34 1
  55   32   33 1
  56   32   53 1
  57   32   54 1
  58   33   34 1
  59   33   55 1
  60   33   56 1
  61   34   57 1
  62   34   58 1
  63   36   59 1
  64   36   60 1
  65   36   61 1
  66   37   62 1
  67   37   63 1
  68   37   64 1

#	End of record

