#	Name: ASD01420083
#	Creating user name:	WinNT
#	Creation time:	15. 06. 2019 19:20

#	Modifying user name:	WinNT
#	Modification time:	15. 06. 2019 19:20

#	Program:	/corina/corina34_cracker 3.40 0067  02.08.2006

@<TRIPOS>MOLECULE
ASD01420083
  44   46    0    0    0
SMALL
NO_CHARGES


@<TRIPOS>ATOM
   1 C1            -0.0144     1.2120     0.0087 C.2     
   2 O2             0.0252     0.2228    -0.6977 O.2     
   3 C3             1.1674     2.0840     0.1220 C.ar    
   4 C4             2.4449     1.5231     0.2724 C.ar    
   5 C5             3.5500     2.3496     0.3777 C.ar    
   6 C6             3.3933     3.7273     0.3345 C.ar    
   7 C7             2.1272     4.2849     0.1854 C.ar    
   8 C8             1.0215     3.4737     0.0744 C.ar    
   9 O9             4.4792     4.5346     0.4385 O.3     
  10 C10            5.7492     3.8973     0.5900 C.3     
  11 C11            1.9671     5.7827     0.1401 C.3     
  12 C12            1.3361     6.1880    -1.1935 C.3     
  13 C13            1.0640     6.2341     1.2897 C.3     
  14 O14            2.5961     0.1756     0.3149 O.3     
  15 C15           -2.4289     0.8179     0.5887 C.3     
  16 N16           -1.1415     1.5134     0.6835 N.am    
  17 C17           -1.3149     2.5994     1.6534 C.3     
  18 C18           -2.7384     2.5496     2.1478 C.ar    
  19 C19           -3.4150     3.3405     3.0607 C.ar    
  20 C20           -4.7420     3.0861     3.3483 C.ar    
  21 C21           -5.3959     2.0405     2.7234 C.ar    
  22 C22           -4.7214     1.2512     1.8120 C.ar    
  23 C23           -3.3914     1.5054     1.5237 C.ar    
  24 H24            4.5349     1.9218     0.4940 H       
  25 H25            0.0410     3.9102    -0.0457 H       
  26 H26            6.5297     4.6549     0.6614 H       
  27 H27            5.7462     3.2922     1.4966 H       
  28 H28            5.9405     3.2588    -0.2724 H       
  29 H29            2.9442     6.2557     0.2383 H       
  30 H30            0.3590     5.7150    -1.2918 H       
  31 H31            1.2203     7.2713    -1.2263 H       
  32 H32            1.9795     5.8664    -2.0125 H       
  33 H33            1.5135     5.9453     2.2397 H       
  34 H34            0.9482     7.3174     1.2568 H       
  35 H35            0.0869     5.7611     1.1914 H       
  36 H36            2.7359    -0.2320    -0.5508 H       
  37 H37           -2.8039     0.8725    -0.4333 H       
  38 H38           -2.3082    -0.2245     0.8836 H       
  39 H39           -0.6286     2.4616     2.4890 H       
  40 H40           -1.1243     3.5586     1.1720 H       
  41 H41           -2.9045     4.1574     3.5490 H       
  42 H42           -5.2683     3.7035     4.0613 H       
  43 H43           -6.4332     1.8405     2.9479 H       
  44 H44           -5.2322     0.4342     1.3243 H       
@<TRIPOS>BOND
   1    1    2 2
   2    1    3 1
   3    1   16 am
   4    3    4 ar
   5    3    8 ar
   6    4    5 ar
   7    4   14 1
   8    5    6 ar
   9    5   24 1
  10    6    7 ar
  11    6    9 1
  12    7    8 ar
  13    7   11 1
  14    8   25 1
  15    9   10 1
  16   10   26 1
  17   10   27 1
  18   10   28 1
  19   11   12 1
  20   11   13 1
  21   11   29 1
  22   12   30 1
  23   12   31 1
  24   12   32 1
  25   13   33 1
  26   13   34 1
  27   13   35 1
  28   14   36 1
  29   15   16 1
  30   15   23 1
  31   15   37 1
  32   15   38 1
  33   16   17 1
  34   17   18 1
  35   17   39 1
  36   17   40 1
  37   18   19 ar
  38   18   23 ar
  39   19   20 ar
  40   19   41 1
  41   20   21 ar
  42   20   42 1
  43   21   22 ar
  44   21   43 1
  45   22   23 ar
  46   22   44 1

#	End of record

