#	Name: ASD03320161
#	Creating user name:	WinNT
#	Creation time:	15. 06. 2019 20:36

#	Modifying user name:	WinNT
#	Modification time:	15. 06. 2019 20:36

#	Program:	/corina/corina34_cracker 3.40 0067  02.08.2006

@<TRIPOS>MOLECULE
ASD03320161
  40   42    0    0    0
SMALL
NO_CHARGES


@<TRIPOS>ATOM
   1 C1            -0.0077     1.3429    -0.1945 C.ar    
   2 C2             0.0217    -0.0349     0.0274 C.ar    
   3 C3            -1.1549    -0.7561     0.0435 C.ar    
   4 C4            -2.3644    -0.1187    -0.1597 C.ar    
   5 C5            -2.4040     1.2523    -0.3819 C.ar    
   6 C6            -1.2293     1.9865    -0.3942 C.ar    
   7 C7             1.2508     2.1184    -0.2118 C.2     
   8 O8             1.2228     3.3182    -0.4053 O.2     
   9 N9             2.4291     1.4951    -0.0131 N.am    
  10 C10            3.6275     2.2107    -0.1264 C.ar    
  11 N11           -3.6341     1.8939    -0.5883 N.pl3   
  12 C12            3.6875     3.5352     0.2865 C.ar    
  13 C13            4.8695     4.2401     0.1744 C.ar    
  14 C14            5.9970     3.6255    -0.3505 C.ar    
  15 C15            5.9379     2.3024    -0.7632 C.ar    
  16 C16            4.7581     1.5944    -0.6464 C.ar    
  17 O17            7.1604     4.3204    -0.4610 O.3     
  18 C18            8.2817     3.6253    -1.0102 C.3     
  19 F19            7.9754     3.1966    -2.3062 F       
  20 C20           -4.6073     1.5140    -1.4564 C.2     
  21 F21            9.3869     4.4819    -1.0514 F       
  22 F22            8.5804     2.5168    -0.2107 F       
  23 C23           -3.6446    -0.9135    -0.1406 C.3     
  24 C24           -4.0837     3.0196     0.0522 C.2     
  25 C25           -5.3049     3.2904    -0.4463 C.2     
  26 N26           -5.5992     2.3571    -1.3636 N.2     
  27 H27            0.9649    -0.5365     0.1862 H       
  28 H28           -1.1304    -1.8222     0.2150 H       
  29 H29           -1.2583     3.0523    -0.5664 H       
  30 H30            2.4471     0.5509     0.2084 H       
  31 H31            2.8097     4.0139     0.6948 H       
  32 H32            4.9162     5.2703     0.4951 H       
  33 H33            6.8160     1.8245    -1.1717 H       
  34 H34            4.7123     0.5642    -0.9674 H       
  35 H35           -4.5668     0.6579    -2.1136 H       
  36 H36           -4.0382    -0.9440     0.8754 H       
  37 H37           -4.3745    -0.4426    -0.7990 H       
  38 H38           -3.4471    -1.9288    -0.4844 H       
  39 H39           -3.5593     3.5812     0.8111 H       
  40 H40           -5.9392     4.1147    -0.1555 H       
@<TRIPOS>BOND
   1    1    2 ar
   2    1    7 1
   3    1    6 ar
   4    2    3 ar
   5    2   27 1
   6    3    4 ar
   7    3   28 1
   8    4    5 ar
   9    4   23 1
  10    5    6 ar
  11    5   11 1
  12    6   29 1
  13    7    8 2
  14    7    9 am
  15    9   10 1
  16    9   30 1
  17   10   12 ar
  18   10   16 ar
  19   11   24 1
  20   11   20 1
  21   12   13 ar
  22   12   31 1
  23   13   14 ar
  24   13   32 1
  25   14   15 ar
  26   14   17 1
  27   15   16 ar
  28   15   33 1
  29   16   34 1
  30   17   18 1
  31   18   19 1
  32   18   21 1
  33   18   22 1
  34   20   26 2
  35   20   35 1
  36   23   36 1
  37   23   37 1
  38   23   38 1
  39   24   25 2
  40   24   39 1
  41   25   26 1
  42   25   40 1

#	End of record

