#	Name: ASD02198417
#	Creating user name:	WinNT
#	Creation time:	15. 06. 2019 20:19

#	Modifying user name:	WinNT
#	Modification time:	15. 06. 2019 20:19

#	Program:	/corina/corina34_cracker 3.40 0067  02.08.2006

@<TRIPOS>MOLECULE
ASD02198417
  38   40    0    0    0
SMALL
NO_CHARGES


@<TRIPOS>ATOM
   1 C1             1.1190    -1.5264    -4.0543 C.2     
   2 C2             2.0279    -2.5396    -3.9348 C.2     
   3 O3             1.3836    -0.6135    -3.0965 O.3     
   4 C4             2.4348    -1.0200    -2.3734 C.2     
   5 C5             2.8638    -2.2066    -2.8582 C.2     
   6 S6             3.1429    -0.1507    -1.0141 S.o2    
   7 N7             4.4046     0.7428    -1.6074 N.am    
   8 C8             4.1688     1.7397    -2.5532 C.ar    
   9 C9             3.3294     2.8320    -2.2417 C.ar    
  10 C10            3.1081     3.8304    -3.2215 C.ar    
  11 C11            3.7217     3.7201    -4.4796 C.ar    
  12 C12            4.5260     2.6552    -4.7521 C.ar    
  13 C13            4.7576     1.6699    -3.7972 C.ar    
  14 N14            2.7465     2.9334    -1.0444 N.ar    
  15 C15            1.9661     3.9445    -0.7494 C.ar    
  16 C16            1.7056     4.9607    -1.6665 C.ar    
  17 C17            2.2709     4.9186    -2.9089 C.ar    
  18 O18            2.1618     0.7803    -0.5783 O.2     
  19 O19            3.7136    -1.1344    -0.1621 O.2     
  20 C20            5.6535     0.5053    -4.1320 C.3     
  21 C21            0.0492    -1.4427    -5.0512 C.2     
  22 O22           -0.0879    -2.3297    -5.8720 O.2     
  23 O23           -0.7841    -0.3819    -5.0590 O.3     
  24 C24           -1.8211    -0.3656    -6.0752 C.3     
  25 H25            2.0907    -3.4252    -4.5498 H       
  26 H26            3.6939    -2.7890    -2.4866 H       
  27 H27            5.3077     0.5727    -1.2969 H       
  28 H28            3.5558     4.4785    -5.2304 H       
  29 H29            4.9944     2.5767    -5.7221 H       
  30 H30            1.5129     3.9910     0.2298 H       
  31 H31            1.0577     5.7810    -1.3949 H       
  32 H32            2.0802     5.6977    -3.6321 H       
  33 H33            6.6821     0.7503    -3.8672 H       
  34 H34            5.3331    -0.3726    -3.5709 H       
  35 H35            5.5933     0.2958    -5.1999 H       
  36 H36           -1.3616    -0.3844    -7.0635 H       
  37 H37           -2.4610    -1.2399    -5.9554 H       
  38 H38           -2.4191     0.5396    -5.9697 H       
@<TRIPOS>BOND
   1    1    2 2
   2    1    3 1
   3    1   21 1
   4    2    5 1
   5    2   25 1
   6    3    4 1
   7    4    5 2
   8    4    6 1
   9    5   26 1
  10    6    7 am
  11    6   18 2
  12    6   19 2
  13    7    8 1
  14    7   27 1
  15    8    9 ar
  16    8   13 ar
  17    9   10 ar
  18    9   14 ar
  19   10   11 ar
  20   10   17 ar
  21   11   12 ar
  22   11   28 1
  23   12   13 ar
  24   12   29 1
  25   13   20 1
  26   14   15 ar
  27   15   16 ar
  28   15   30 1
  29   16   17 ar
  30   16   31 1
  31   17   32 1
  32   20   33 1
  33   20   34 1
  34   20   35 1
  35   21   22 2
  36   21   23 1
  37   23   24 1
  38   24   36 1
  39   24   37 1
  40   24   38 1

#	End of record

