#	Name: ASD01883049
#	Creating user name:	WinNT
#	Creation time:	15. 06. 2019 19:45

#	Modifying user name:	WinNT
#	Modification time:	15. 06. 2019 19:45

#	Program:	/corina/corina34_cracker 3.40 0067  02.08.2006

@<TRIPOS>MOLECULE
ASD01883049
  44   47    0    0    0
SMALL
NO_CHARGES


@<TRIPOS>ATOM
   1 N1            -0.0162     1.3417     0.0094 N.am    
   2 C2             0.0021    -0.0041     0.0020 C.2     
   3 C3            -1.2158    -0.7273     0.0102 C.2     
   4 C4            -2.4263    -0.0108     0.0261 C.2     
   5 C5            -2.3785     1.3976     0.0332 C.2     
   6 C6            -1.1851     2.0328     0.0299 C.2     
   7 O7             1.0657    -0.5999    -0.0122 O.2     
   8 C8            -1.2148    -2.1593     0.0021 C.1     
   9 N9            -1.2140    -3.2953    -0.0044 N.1     
  10 C10            1.2513     2.0762     0.0013 C.3     
  11 C11           -3.7212    -0.7204     0.0347 C.ar    
  12 C12            1.6788     2.3397    -1.4440 C.3     
  13 C13            2.9240     3.2004    -1.6667 C.3     
  14 C14            2.9795     1.6934    -1.9250 C.3     
  15 C15           -4.4747    -0.7895     1.2092 C.ar    
  16 C16           -5.6821    -1.4517     1.2130 C.ar    
  17 C17           -6.1531    -2.0518     0.0509 C.ar    
  18 C18           -5.4091    -1.9874    -1.1200 C.ar    
  19 C19           -4.2005    -1.3210    -1.1354 C.ar    
  20 F20           -3.4766    -1.2578    -2.2744 F       
  21 O21           -7.3442    -2.7033     0.0607 O.3     
  22 C22           -7.7688    -3.2974    -1.1676 C.3     
  23 C23           -9.1222    -3.9808    -0.9625 C.3     
  24 C24           -9.8056    -4.5786    -2.1940 C.3     
  25 C25           -9.1817    -5.4989    -1.1431 C.3     
  26 H26           -3.2948     1.9692     0.0454 H       
  27 H27           -1.1609     3.1125     0.0354 H       
  28 H28            1.1244     3.0257     0.5214 H       
  29 H29            2.0168     1.4857     0.5046 H       
  30 H30            0.8666     2.4337    -2.1648 H       
  31 H31            2.9311     3.8603    -2.5342 H       
  32 H32            3.4386     3.5790    -0.7835 H       
  33 H33            3.5307     1.0805    -1.2118 H       
  34 H34            3.0232     1.3619    -2.9624 H       
  35 H35           -4.1104    -0.3243     2.1132 H       
  36 H36           -6.2643    -1.5053     2.1211 H       
  37 H37           -5.7785    -2.4557    -2.0204 H       
  38 H38           -7.8637    -2.5251    -1.9310 H       
  39 H39           -7.0336    -4.0359    -1.4873 H       
  40 H40           -9.7607    -3.5393    -0.1973 H       
  41 H41          -10.8937    -4.5307    -2.2388 H       
  42 H42           -9.2910    -4.4850    -3.1503 H       
  43 H43           -8.2565    -6.0108    -1.4080 H       
  44 H44           -9.8592    -6.0565    -0.4964 H       
@<TRIPOS>BOND
   1    1    2 am
   2    1   10 1
   3    1    6 1
   4    2    3 1
   5    2    7 2
   6    3    4 2
   7    3    8 1
   8    4    5 1
   9    4   11 1
  10    5    6 2
  11    5   26 1
  12    6   27 1
  13    8    9 3
  14   10   12 1
  15   10   28 1
  16   10   29 1
  17   11   15 ar
  18   11   19 ar
  19   12   13 1
  20   12   14 1
  21   12   30 1
  22   13   14 1
  23   13   31 1
  24   13   32 1
  25   14   33 1
  26   14   34 1
  27   15   16 ar
  28   15   35 1
  29   16   17 ar
  30   16   36 1
  31   17   18 ar
  32   17   21 1
  33   18   19 ar
  34   18   37 1
  35   19   20 1
  36   21   22 1
  37   22   23 1
  38   22   38 1
  39   22   39 1
  40   23   24 1
  41   23   25 1
  42   23   40 1
  43   24   25 1
  44   24   41 1
  45   24   42 1
  46   25   43 1
  47   25   44 1

#	End of record

