#	Name: ASD09116129
#	Creating user name:	WinNT
#	Creation time:	15. 06. 2019 21:20

#	Modifying user name:	WinNT
#	Modification time:	15. 06. 2019 21:20

#	Program:	/corina/corina34_cracker 3.40 0067  02.08.2006

@<TRIPOS>MOLECULE
ASD09116129
  66   72    0    0    0
SMALL
NO_CHARGES


@<TRIPOS>ATOM
   1 N1            -0.0612     1.6022    -0.5382 N.2     
   2 C2            -0.0896     0.2759    -1.1799 C.3     
   3 C3             1.1889     1.9778    -0.5232 C.2     
   4 N4             2.0153     1.0672    -1.0772 N.2     
   5 C5             1.3684     0.0137    -1.5031 C.2     
   6 N6             1.6191     3.1791     0.0029 N.pl3   
   7 C7             2.9897     3.4575     0.0842 C.ar    
   8 C8             3.4398     4.7668    -0.0231 C.ar    
   9 C9             3.8977     2.4249     0.2777 C.ar    
  10 C10            5.2484     2.6993     0.3587 C.ar    
  11 C11            5.6990     4.0081     0.2461 C.ar    
  12 C12            4.7905     5.0414     0.0574 C.ar    
  13 N13            7.0680     4.2863     0.3287 N.3     
  14 C14            7.3223     5.7265     0.1846 C.3     
  15 C15            8.8183     5.9977     0.3597 C.3     
  16 N16            1.8928    -1.0855    -2.1088 N.pl3   
  17 C17           -0.6183    -0.7646    -0.2265 C.ar    
  18 N18           -0.1971    -0.7594     1.0224 N.ar    
  19 N19           -1.4938    -1.6508    -0.6669 N.ar    
  20 C20           -1.9713    -2.5699     0.1430 C.ar    
  21 C21           -1.5449    -2.5994     1.4668 C.ar    
  22 C22           -0.6367    -1.6582     1.8944 C.ar    
  23 C23           -2.9702    -3.7121    -0.0384 C.3     
  24 C24           -4.2245    -3.2618     0.7761 C.3     
  25 C25           -3.7487    -3.2947     2.2483 C.3     
  26 C26           -2.2603    -3.7594     2.1549 C.3     
  27 C27           -2.3590    -4.7703     0.9529 C.3     
  28 C28            7.8227     3.5186    -0.6716 C.3     
  29 C29            9.3188     3.7898    -0.4965 C.3     
  30 N30            9.5731     5.2300    -0.6405 N.3     
  31 C31           10.9394     5.5077    -0.5582 C.ar    
  32 C32           11.3918     6.8163    -0.6705 C.ar    
  33 C33           11.8485     4.4766    -0.3580 C.ar    
  34 C34           13.1989     4.7547    -0.2771 C.ar    
  35 C35           13.6463     6.0579    -0.3946 C.ar    
  36 C36           12.7435     7.0874    -0.5886 C.ar    
  37 H37           -0.6891     0.3018    -2.0898 H       
  38 H38            0.9724     3.8306     0.3164 H       
  39 H39            2.7332     5.5704    -0.1698 H       
  40 H40            3.5472     1.4071     0.3652 H       
  41 H41            5.9545     1.8961     0.5099 H       
  42 H42            5.1409     6.0592    -0.0304 H       
  43 H43            7.0068     6.0542    -0.8059 H       
  44 H44            6.7624     6.2724     0.9441 H       
  45 H45            9.0134     7.0616     0.2246 H       
  46 H46            9.1281     5.6951     1.3600 H       
  47 H47            2.8483    -1.1432    -2.2658 H       
  48 H48            1.3114    -1.8116    -2.3837 H       
  49 H49           -0.2858    -1.6538     2.9158 H       
  50 H50           -3.1520    -4.0350    -1.0634 H       
  51 H51           -4.5212    -2.2518     0.4931 H       
  52 H52           -5.0484    -3.9593     0.6253 H       
  53 H53           -3.8116    -2.3013     2.6925 H       
  54 H54           -4.3367    -4.0096     2.8239 H       
  55 H55           -1.8104    -4.1236     3.0784 H       
  56 H56           -3.0453    -5.5920     1.1573 H       
  57 H57           -1.3809    -5.1258     0.6286 H       
  58 H58            7.6277     2.4547    -0.5365 H       
  59 H59            7.5129     3.8212    -1.6719 H       
  60 H60            9.6343     3.4620     0.4940 H       
  61 H61            9.8786     3.2439    -1.2559 H       
  62 H62           10.6873     7.6207    -0.8221 H       
  63 H63           11.4997     3.4587    -0.2654 H       
  64 H64           13.9062     3.9536    -0.1215 H       
  65 H65           14.7027     6.2728    -0.3302 H       
  66 H66           13.0962     8.1040    -0.6800 H       
@<TRIPOS>BOND
   1    1    2 1
   2    1    3 2
   3    2   17 1
   4    2    5 1
   5    2   37 1
   6    3    4 1
   7    3    6 1
   8    4    5 2
   9    5   16 1
  10    6    7 1
  11    6   38 1
  12    7    8 ar
  13    7    9 ar
  14    8   12 ar
  15    8   39 1
  16    9   10 ar
  17    9   40 1
  18   10   11 ar
  19   10   41 1
  20   11   12 ar
  21   11   13 1
  22   12   42 1
  23   13   14 1
  24   13   28 1
  25   14   15 1
  26   14   43 1
  27   14   44 1
  28   15   30 1
  29   15   45 1
  30   15   46 1
  31   16   47 1
  32   16   48 1
  33   17   18 ar
  34   17   19 ar
  35   18   22 ar
  36   19   20 ar
  37   20   21 ar
  38   20   23 1
  39   21   22 ar
  40   21   26 1
  41   22   49 1
  42   23   24 1
  43   23   27 1
  44   23   50 1
  45   24   25 1
  46   24   51 1
  47   24   52 1
  48   25   26 1
  49   25   53 1
  50   25   54 1
  51   26   27 1
  52   26   55 1
  53   27   56 1
  54   27   57 1
  55   28   29 1
  56   28   58 1
  57   28   59 1
  58   29   30 1
  59   29   60 1
  60   29   61 1
  61   30   31 1
  62   31   32 ar
  63   31   33 ar
  64   32   36 ar
  65   32   62 1
  66   33   34 ar
  67   33   63 1
  68   34   35 ar
  69   34   64 1
  70   35   36 ar
  71   35   65 1
  72   36   66 1

#	End of record

