#	Name: ASD01913242
#	Creating user name:	WinNT
#	Creation time:	15. 06. 2019 20:01

#	Modifying user name:	WinNT
#	Modification time:	15. 06. 2019 20:01

#	Program:	/corina/corina34_cracker 3.40 0067  02.08.2006

@<TRIPOS>MOLECULE
ASD01913242
  52   56    0    0    0
SMALL
NO_CHARGES


@<TRIPOS>ATOM
   1 C1             0.1603     1.3606     1.5393 C.ar    
   2 C2             0.1769    -0.0217     1.5120 C.ar    
   3 N3             1.2870    -0.6805     1.2495 N.ar    
   4 C4             2.4300    -0.0478     1.0015 C.ar    
   5 C5             2.4839     1.3488     1.0132 C.ar    
   6 C6             1.3316     2.0626     1.2862 C.ar    
   7 C7             3.6141    -0.8027     0.7211 C.1     
   8 C8             4.5849    -1.4216     0.4912 C.1     
   9 C9             5.7691    -2.1764     0.2108 C.ar    
  10 C10            6.9802    -1.5160    -0.0521 C.ar    
  11 C11            8.1263    -2.2501    -0.3231 C.ar    
  12 C12            8.0820    -3.6269    -0.3360 C.ar    
  13 C13            6.8813    -4.2959    -0.0761 C.ar    
  14 C14            5.7252    -3.5692     0.2034 C.ar    
  15 O15            7.0297    -0.1608    -0.0416 O.3     
  16 C16            8.2945     0.4444    -0.3175 C.3     
  17 C17            8.1544     1.9669    -0.2615 C.3     
  18 C18            9.4287     2.7997    -0.4147 C.3     
  19 C19            8.4075     2.7476    -1.5528 C.3     
  20 C20            6.8400    -5.7716    -0.0919 C.2     
  21 O21            5.7750    -6.3510    -0.0003 O.2     
  22 N22            7.9828    -6.4766    -0.2079 N.am    
  23 C23            8.1218    -7.9342    -0.1295 C.3     
  24 C24            9.5807    -8.2664    -0.3159 C.ar    
  25 C25           10.2861    -7.0932    -0.4959 C.ar    
  26 C26            9.3243    -5.9332    -0.4430 C.3     
  27 C27           10.2451    -9.4809    -0.3290 C.ar    
  28 C28           11.6125    -9.5206    -0.5215 C.ar    
  29 C29           12.3188    -8.3459    -0.7018 C.ar    
  30 C30           11.6563    -7.1337    -0.6896 C.ar    
  31 H31           -0.7568     1.8901     1.7514 H       
  32 H32           -0.7330    -0.5690     1.7090 H       
  33 H33            3.4121     1.8629     0.8122 H       
  34 H34            1.3421     3.1424     1.3018 H       
  35 H35            9.0566    -1.7399    -0.5250 H       
  36 H36            8.9777    -4.1920    -0.5480 H       
  37 H37            4.7970    -4.0834     0.4044 H       
  38 H38            9.0227     0.1189     0.4254 H       
  39 H39            8.6307     0.1467    -1.3107 H       
  40 H40            7.3848     2.3437     0.4121 H       
  41 H41            9.4974     3.7246     0.1580 H       
  42 H42           10.3669     2.2629    -0.5553 H       
  43 H43            8.6739     2.1765    -2.4422 H       
  44 H44            7.8043     3.6382    -1.7289 H       
  45 H45            7.7845    -8.2856     0.8456 H       
  46 H46            7.5324    -8.4044    -0.9167 H       
  47 H47            9.3492    -5.3893    -1.3872 H       
  48 H48            9.5946    -5.2663     0.3758 H       
  49 H49            9.6935   -10.3987    -0.1883 H       
  50 H50           12.1295   -10.4688    -0.5308 H       
  51 H51           13.3878    -8.3759    -0.8524 H       
  52 H52           12.2083    -6.2162    -0.8304 H       
@<TRIPOS>BOND
   1    1    2 ar
   2    1    6 ar
   3    1   31 1
   4    2    3 ar
   5    2   32 1
   6    3    4 ar
   7    4    5 ar
   8    4    7 1
   9    5    6 ar
  10    5   33 1
  11    6   34 1
  12    7    8 3
  13    8    9 1
  14    9   10 ar
  15    9   14 ar
  16   10   11 ar
  17   10   15 1
  18   11   12 ar
  19   11   35 1
  20   12   13 ar
  21   12   36 1
  22   13   14 ar
  23   13   20 1
  24   14   37 1
  25   15   16 1
  26   16   17 1
  27   16   38 1
  28   16   39 1
  29   17   18 1
  30   17   19 1
  31   17   40 1
  32   18   19 1
  33   18   41 1
  34   18   42 1
  35   19   43 1
  36   19   44 1
  37   20   21 2
  38   20   22 am
  39   22   23 1
  40   22   26 1
  41   23   24 1
  42   23   45 1
  43   23   46 1
  44   24   25 ar
  45   24   27 ar
  46   25   26 1
  47   25   30 ar
  48   26   47 1
  49   26   48 1
  50   27   28 ar
  51   27   49 1
  52   28   29 ar
  53   28   50 1
  54   29   30 ar
  55   29   51 1
  56   30   52 1

#	End of record

