#	Name: ASD04910434
#	Creating user name:	WinNT
#	Creation time:	15. 06. 2019 20:55

#	Modifying user name:	WinNT
#	Modification time:	15. 06. 2019 20:55

#	Program:	/corina/corina34_cracker 3.40 0067  02.08.2006

@<TRIPOS>MOLECULE
ASD04910434
  55   58    0    0    0
SMALL
NO_CHARGES


@<TRIPOS>ATOM
   1 C1            -0.1264     1.4250    -0.2782 C.ar    
   2 C2            -0.0621     0.0448    -0.2056 C.ar    
   3 C3             1.1540    -0.6047    -0.3234 C.ar    
   4 C4             2.3115     0.1211    -0.5138 C.ar    
   5 C5             2.2539     1.5142    -0.5881 C.ar    
   6 C6             1.0233     2.1631    -0.4688 C.ar    
   7 C7             3.4894     2.2981    -0.7913 C.2     
   8 O8             3.4304     3.6420    -0.8625 O.3     
   9 O9             4.5586     1.7308    -0.8943 O.2     
  10 C10            4.6836     4.3472    -1.0634 C.3     
  11 C11            4.4185     5.8531    -1.1178 C.3     
  12 C12           -1.3223    -0.7548     0.0032 C.3     
  13 C13           -1.7960    -1.3197    -1.3375 C.3     
  14 N14           -1.0533    -1.8572     0.9299 N.pl3   
  15 C15           -1.1473    -1.6495     2.3098 C.ar    
  16 C16           -1.0170    -2.7179     3.1948 C.ar    
  17 C17           -1.1171    -2.4653     4.5516 C.ar    
  18 C18           -1.3427    -1.1647     4.9836 C.ar    
  19 N19           -1.4619    -0.1738     4.1153 N.ar    
  20 C20           -1.3660    -0.3755     2.8158 C.ar    
  21 N21           -1.4455    -0.8992     6.3542 N.pl3   
  22 C22           -1.6655     0.3252     6.9340 C.2     
  23 C23           -1.6937     0.1259     8.2662 C.2     
  24 N24           -1.4971    -1.1808     8.4985 N.2     
  25 C25           -1.3523    -1.8058     7.3617 C.2     
  26 Cl26          -1.9410     1.3487     9.4735 Cl      
  27 C27           -3.0594    -2.1739    -1.1327 C.3     
  28 C28           -2.1911    -0.1688    -2.2858 C.3     
  29 C29           -3.4203    -0.7146    -3.0540 C.3     
  30 C30           -4.1781    -1.5123    -1.9638 C.3     
  31 H31           -1.0794     1.9254    -0.1900 H       
  32 H32            1.1971    -1.6823    -0.2658 H       
  33 H33            3.2601    -0.3870    -0.6049 H       
  34 H34            0.9717     3.2404    -0.5256 H       
  35 H35            5.3608     4.1271    -0.2381 H       
  36 H36            5.1362     4.0239    -2.0008 H       
  37 H37            5.3593     6.3824    -1.2687 H       
  38 H38            3.7414     6.0732    -1.9431 H       
  39 H39            3.9659     6.1764    -0.1804 H       
  40 H40           -2.0965    -0.1106     0.4200 H       
  41 H41           -1.0072    -1.9218    -1.7883 H       
  42 H42           -0.8099    -2.7311     0.5864 H       
  43 H43           -0.8422    -3.7195     2.8303 H       
  44 H44           -1.0215    -3.2697     5.2659 H       
  45 H45           -1.4688     0.4582     2.1370 H       
  46 H46           -1.7917     1.2672     6.4211 H       
  47 H47           -1.1804    -2.8653     7.2424 H       
  48 H48           -2.8840    -3.1904    -1.4850 H       
  49 H49           -3.3350    -2.1860    -0.0782 H       
  50 H50           -2.4614     0.7198    -1.7153 H       
  51 H51           -1.3774     0.0529    -2.9763 H       
  52 H52           -4.0344     0.1031    -3.4313 H       
  53 H53           -3.1080    -1.3712    -3.8661 H       
  54 H54           -4.8145    -2.2711    -2.4193 H       
  55 H55           -4.7694    -0.8407    -1.3413 H       
@<TRIPOS>BOND
   1    1    2 ar
   2    1    6 ar
   3    1   31 1
   4    2    3 ar
   5    2   12 1
   6    3    4 ar
   7    3   32 1
   8    4    5 ar
   9    4   33 1
  10    5    6 ar
  11    5    7 1
  12    6   34 1
  13    7    8 1
  14    7    9 2
  15    8   10 1
  16   10   11 1
  17   10   35 1
  18   10   36 1
  19   11   37 1
  20   11   38 1
  21   11   39 1
  22   12   13 1
  23   12   14 1
  24   12   40 1
  25   13   27 1
  26   13   28 1
  27   13   41 1
  28   14   15 1
  29   14   42 1
  30   15   16 ar
  31   15   20 ar
  32   16   17 ar
  33   16   43 1
  34   17   18 ar
  35   17   44 1
  36   18   19 ar
  37   18   21 1
  38   19   20 ar
  39   20   45 1
  40   21   22 1
  41   21   25 1
  42   22   23 2
  43   22   46 1
  44   23   24 1
  45   23   26 1
  46   24   25 2
  47   25   47 1
  48   27   30 1
  49   27   48 1
  50   27   49 1
  51   28   29 1
  52   28   50 1
  53   28   51 1
  54   29   30 1
  55   29   52 1
  56   29   53 1
  57   30   54 1
  58   30   55 1

#	End of record

