#	Name: ASD01811222
#	Creating user name:	WinNT
#	Creation time:	15. 06. 2019 19:26

#	Modifying user name:	WinNT
#	Modification time:	15. 06. 2019 19:26

#	Program:	/corina/corina34_cracker 3.40 0067  02.08.2006

@<TRIPOS>MOLECULE
ASD01811222
  66   70    0    0    0
SMALL
NO_CHARGES


@<TRIPOS>ATOM
   1 C1            -7.3568     2.2251    -3.9969 C.1     
   2 C2            -6.3758     3.0158    -3.3164 C.ar    
   3 C3            -5.2069     2.4222    -2.8357 C.ar    
   4 C4            -4.2662     3.1898    -2.1811 C.ar    
   5 C5            -4.4789     4.5449    -1.9998 C.ar    
   6 C6            -5.6351     5.1395    -2.4731 C.ar    
   7 C7            -6.5812     4.3851    -3.1355 C.ar    
   8 N8            -8.1350     1.5979    -4.5368 N.1     
   9 N9            -2.4212     7.7924    -0.2279 N.am    
  10 C10           -1.8686     7.3012    -1.4975 C.3     
  11 C11           -2.9422     6.4791    -2.2174 C.3     
  12 C12           -3.4468     5.3769    -1.2832 C.3     
  13 C13           -4.0755     6.0086    -0.0390 C.3     
  14 C14           -3.0146     6.8253     0.7055 C.3     
  15 C15           -2.3796     9.1045     0.0772 C.2     
  16 C16           -3.0220     9.5966     1.3148 C.ar    
  17 C17           -3.9802    10.6109     1.2505 C.ar    
  18 C18           -4.5808    11.0713     2.4051 C.ar    
  19 C19           -4.2389    10.5336     3.6304 C.ar    
  20 C20           -3.2827     9.5193     3.7089 C.ar    
  21 C21           -2.6772     9.0456     2.5471 C.ar    
  22 O22           -1.8139     9.8834    -0.6649 O.2     
  23 C23           -4.3588    11.2042    -0.0820 C.3     
  24 C24           -2.3794     7.5397     6.6184 C.2     
  25 N25           -2.4274     8.7368     7.1379 N.2     
  26 C26           -2.7538     9.6232     6.1903 C.2     
  27 C27           -2.9175     8.9450     5.0223 C.2     
  28 N28           -2.6773     7.6191     5.3034 N.pl3   
  29 C29           -2.0401     6.2749     7.3642 C.3     
  30 C30           -0.6869     6.4397     8.0587 C.3     
  31 C31           -4.8991    11.0432     4.8856 C.3     
  32 C32           -4.6689    12.5426     5.1375 C.3     
  33 C33           -6.1356    12.6107     5.5946 C.3     
  34 C34           -6.3880    11.3825     4.7043 C.3     
  35 H35           -5.0399     1.3644    -2.9759 H       
  36 H36           -3.3616     2.7319    -1.8088 H       
  37 H37           -5.7950     6.1977    -2.3280 H       
  38 H38           -7.4810     4.8514    -3.5087 H       
  39 H39           -1.5769     8.1467    -2.1205 H       
  40 H40           -0.9996     6.6737    -1.2994 H       
  41 H41           -3.7723     7.1286    -2.4953 H       
  42 H42           -2.5157     6.0292    -3.1139 H       
  43 H43           -2.6118     4.7426    -0.9857 H       
  44 H44           -4.8948     6.6625    -0.3375 H       
  45 H45           -4.4555     5.2237     0.6149 H       
  46 H46           -2.2391     6.1590     1.0834 H       
  47 H47           -3.4791     7.3568     1.5361 H       
  48 H48           -5.3211    11.8557     2.3500 H       
  49 H49           -1.9404     8.2579     2.6019 H       
  50 H50           -5.1275    10.5883    -0.5488 H       
  51 H51           -4.7421    12.2138     0.0655 H       
  52 H52           -3.4806    11.2396    -0.7267 H       
  53 H53           -2.8673    10.6883     6.3282 H       
  54 H54           -2.7145     6.8809     4.6753 H       
  55 H55           -2.8095     6.0755     8.1102 H       
  56 H56           -1.9896     5.4420     6.6629 H       
  57 H57           -0.4415     5.5249     8.5981 H       
  58 H58            0.0825     6.6391     7.3127 H       
  59 H59           -0.7375     7.2726     8.7600 H       
  60 H60           -4.6951    10.4180     5.7549 H       
  61 H61           -3.9533    12.7467     5.9340 H       
  62 H62           -4.4674    13.1120     4.2301 H       
  63 H63           -6.2710    12.4142     6.6582 H       
  64 H64           -6.6563    13.5076     5.2592 H       
  65 H65           -6.6566    11.6347     3.6784 H       
  66 H66           -7.0603    10.6501     5.1511 H       
@<TRIPOS>BOND
   1    1    2 1
   2    1    8 3
   3    2    3 ar
   4    2    7 ar
   5    3    4 ar
   6    3   35 1
   7    4    5 ar
   8    4   36 1
   9    5    6 ar
  10    5   12 1
  11    6    7 ar
  12    6   37 1
  13    7   38 1
  14    9   10 1
  15    9   14 1
  16    9   15 am
  17   10   11 1
  18   10   39 1
  19   10   40 1
  20   11   12 1
  21   11   41 1
  22   11   42 1
  23   12   13 1
  24   12   43 1
  25   13   14 1
  26   13   44 1
  27   13   45 1
  28   14   46 1
  29   14   47 1
  30   15   16 1
  31   15   22 2
  32   16   17 ar
  33   16   21 ar
  34   17   18 ar
  35   17   23 1
  36   18   19 ar
  37   18   48 1
  38   19   20 ar
  39   19   31 1
  40   20   21 ar
  41   20   27 1
  42   21   49 1
  43   23   50 1
  44   23   51 1
  45   23   52 1
  46   24   25 2
  47   24   28 1
  48   24   29 1
  49   25   26 1
  50   26   27 2
  51   26   53 1
  52   27   28 1
  53   28   54 1
  54   29   30 1
  55   29   55 1
  56   29   56 1
  57   30   57 1
  58   30   58 1
  59   30   59 1
  60   31   32 1
  61   31   34 1
  62   31   60 1
  63   32   33 1
  64   32   61 1
  65   32   62 1
  66   33   34 1
  67   33   63 1
  68   33   64 1
  69   34   65 1
  70   34   66 1

#	End of record

