#	Name: ASD01512004
#	Creating user name:	WinNT
#	Creation time:	15. 06. 2019 19:21

#	Modifying user name:	WinNT
#	Modification time:	15. 06. 2019 19:21

#	Program:	/corina/corina34_cracker 3.40 0067  02.08.2006

@<TRIPOS>MOLECULE
ASD01512004
  96  101    0    0    0
SMALL
NO_CHARGES


@<TRIPOS>ATOM
   1 C1             0.0746     2.7257    -0.2503 C.ar    
   2 C2            -0.1672     1.4788    -0.8148 C.ar    
   3 C3             0.8988     0.7336    -1.2974 C.ar    
   4 C4             2.1856     1.2354    -1.2130 C.ar    
   5 C5             2.4460     2.4853    -0.6494 C.ar    
   6 C6             1.3534     3.2231    -0.1670 C.ar    
   7 S7             3.7491     0.5773    -1.7151 S.3     
   8 C8             4.6847     1.9758    -1.1621 C.2     
   9 N9             3.7818     2.8469    -0.6385 N.pl3   
  10 C10            4.2104     4.1313    -0.0792 C.3     
  11 C11            6.0580     2.1474    -1.2466 C.2     
  12 C12            7.0041     1.2222    -1.6937 C.2     
  13 N13            8.2697     1.6033    -1.6892 N.am    
  14 C14            8.5575     2.8748    -1.2472 C.2     
  15 S15            6.9935     3.5923    -0.8176 S.3     
  16 O16            6.6761     0.1088    -2.0721 O.2     
  17 C17            9.7806     3.4584    -1.1624 C.2     
  18 C18            9.9353     4.7376    -0.4647 C.ar    
  19 N19           11.0732     5.4219    -0.5800 N.ar    
  20 C20           11.2485     6.5760     0.0335 C.ar    
  21 C21           10.2537     7.1200     0.8213 C.ar    
  22 C22            9.0487     6.4409     0.9703 C.ar    
  23 C23            8.8833     5.2374     0.3158 C.ar    
  24 C24           12.1541     4.8793    -1.4068 C.3     
  25 C25            9.3323     0.7011    -2.1399 C.3     
  26 C26            9.5568     0.8876    -3.6418 C.3     
  27 N27           -1.4736     0.9795    -0.8951 N.am    
  28 C28           -2.5180     1.8298    -0.9464 C.2     
  29 C29           -3.9268     1.2956    -0.9155 C.3     
  30 O30           -2.3241     3.0250    -1.0176 O.2     
  31 C31           -4.9158     2.4609    -0.9856 C.3     
  32 C32           -6.3461     1.9186    -0.9541 C.3     
  33 C33           -7.3350     3.0839    -1.0242 C.3     
  34 C34           -8.7654     2.5416    -0.9927 C.3     
  35 N35           -9.7123     3.6574    -1.0599 N.am    
  36 C36          -11.0385     3.4175    -1.0464 C.2     
  37 O37          -11.4479     2.2779    -0.9787 O.2     
  38 C38          -12.0126     4.5653    -1.1154 C.3     
  39 C39          -13.4429     4.0229    -1.0840 C.3     
  40 C40          -14.4318     5.1882    -1.1541 C.3     
  41 C41          -15.8621     4.6459    -1.1226 C.3     
  42 C42          -16.8511     5.8112    -1.1927 C.3     
  43 S43          -16.7473     6.6572    -2.8224 S.3     
  44 C44          -18.4842     7.2611    -2.7934 C.3     
  45 C45          -19.2288     6.1180    -2.0760 C.3     
  46 C46          -18.3039     5.2970    -1.1692 C.3     
  47 N47          -19.7026     5.1468    -3.0745 N.am    
  48 C48          -19.1582     3.9505    -2.8136 C.2     
  49 N49          -18.3483     3.9443    -1.7461 N.am    
  50 H50          -18.6851     5.2901    -0.1481 H       
  51 H51          -20.0657     6.5151    -1.5015 H       
  52 O52          -19.3788     2.9609    -3.4846 O.2     
  53 H53           -0.7519     3.3122     0.1230 H       
  54 H54            0.7247    -0.2370    -1.7381 H       
  55 H55            1.5197     4.1944     0.2749 H       
  56 H56            4.7824     4.6804    -0.8271 H       
  57 H57            3.3345     4.7131     0.2076 H       
  58 H58            4.8332     3.9559     0.7980 H       
  59 H59           10.6395     2.9797    -1.6092 H       
  60 H60           12.1840     7.1031    -0.0818 H       
  61 H61           10.4101     8.0658     1.3187 H       
  62 H62            8.2577     6.8490     1.5820 H       
  63 H63            7.9603     4.6847     0.4101 H       
  64 H64           11.9901     5.1579    -2.4478 H       
  65 H65           13.1082     5.2834    -1.0685 H       
  66 H66           12.1681     3.7929    -1.3193 H       
  67 H67           10.2537     0.9286    -1.6038 H       
  68 H68            9.0416    -0.3305    -1.9413 H       
  69 H69            8.6354     0.6601    -4.1779 H       
  70 H70            9.8475     1.9191    -3.8404 H       
  71 H71           10.3474     0.2163    -3.9771 H       
  72 H72           -1.6265     0.0218    -0.9137 H       
  73 H73           -4.0835     0.6344    -1.7677 H       
  74 H74           -4.0846     0.7403     0.0091 H       
  75 H75           -4.7591     3.1222    -0.1333 H       
  76 H76           -4.7580     3.0162    -1.9101 H       
  77 H77           -6.5028     1.2573    -1.8063 H       
  78 H78           -6.5039     1.3633    -0.0295 H       
  79 H79           -7.1784     3.7452    -0.1720 H       
  80 H80           -7.1773     3.6392    -1.9488 H       
  81 H81           -8.9220     1.8803    -1.8450 H       
  82 H82           -8.9231     1.9863    -0.0682 H       
  83 H83           -9.3848     4.5688    -1.1140 H       
  84 H84          -11.8559     5.2265    -0.2632 H       
  85 H85          -11.8548     5.1206    -2.0400 H       
  86 H86          -13.5995     3.3617    -1.9362 H       
  87 H87          -13.6006     3.4676    -0.1594 H       
  88 H88          -14.2752     5.8495    -0.3019 H       
  89 H89          -14.2741     5.7435    -2.0787 H       
  90 H90          -16.0188     3.9846    -1.9748 H       
  91 H91          -16.0199     4.0906    -0.1980 H       
  92 H92          -16.6743     6.5155    -0.3798 H       
  93 H93          -18.5614     8.1886    -2.2260 H       
  94 H94          -18.8642     7.3939    -3.8064 H       
  95 H95          -20.3117     5.3411    -3.8040 H       
  96 H96          -17.8684     3.1721    -1.4081 H       
@<TRIPOS>BOND
   1    1    2 ar
   2    1    6 ar
   3    1   53 1
   4    2    3 ar
   5    2   27 1
   6    3    4 ar
   7    3   54 1
   8    4    5 ar
   9    4    7 1
  10    5    6 ar
  11    5    9 1
  12    6   55 1
  13    7    8 1
  14    8    9 1
  15    8   11 2
  16    9   10 1
  17   10   56 1
  18   10   57 1
  19   10   58 1
  20   11   12 1
  21   11   15 1
  22   12   13 am
  23   12   16 2
  24   13   14 1
  25   13   25 1
  26   14   15 1
  27   14   17 2
  28   17   18 1
  29   17   59 1
  30   18   19 ar
  31   18   23 ar
  32   19   20 ar
  33   19   24 1
  34   20   21 ar
  35   20   60 1
  36   21   22 ar
  37   21   61 1
  38   22   23 ar
  39   22   62 1
  40   23   63 1
  41   24   64 1
  42   24   65 1
  43   24   66 1
  44   25   26 1
  45   25   67 1
  46   25   68 1
  47   26   69 1
  48   26   70 1
  49   26   71 1
  50   27   28 am
  51   27   72 1
  52   28   29 1
  53   28   30 2
  54   29   31 1
  55   29   73 1
  56   29   74 1
  57   31   32 1
  58   31   75 1
  59   31   76 1
  60   32   33 1
  61   32   77 1
  62   32   78 1
  63   33   34 1
  64   33   79 1
  65   33   80 1
  66   34   35 1
  67   34   81 1
  68   34   82 1
  69   35   36 am
  70   35   83 1
  71   36   37 2
  72   36   38 1
  73   38   39 1
  74   38   84 1
  75   38   85 1
  76   39   40 1
  77   39   86 1
  78   39   87 1
  79   40   41 1
  80   40   88 1
  81   40   89 1
  82   41   42 1
  83   41   90 1
  84   41   91 1
  85   42   43 1
  86   42   46 1
  87   42   92 1
  88   43   44 1
  89   44   45 1
  90   44   93 1
  91   44   94 1
  92   45   46 1
  93   45   47 1
  94   45   51 1
  95   46   50 1
  96   46   49 1
  97   47   48 am
  98   47   95 1
  99   48   49 am
 100   48   52 2
 101   49   96 1

#	End of record

