#	Name: ASD01917249
#	Creating user name:	WinNT
#	Creation time:	15. 06. 2019 20:08

#	Modifying user name:	WinNT
#	Modification time:	15. 06. 2019 20:08

#	Program:	/corina/corina34_cracker 3.40 0067  02.08.2006

@<TRIPOS>MOLECULE
ASD01917249
  47   50    0    0    0
SMALL
NO_CHARGES


@<TRIPOS>ATOM
   1 C1            -0.0171     1.4080     0.0098 C.ar    
   2 C2             0.0021    -0.0041     0.0020 C.ar    
   3 C3            -1.1910    -0.7239     0.0125 C.ar    
   4 C4            -2.3850    -0.0606     0.0292 C.ar    
   5 C5            -2.4217     1.3389     0.0353 C.ar    
   6 C6            -1.2435     2.0752     0.0308 C.ar    
   7 N7             1.1586     2.0781     0.0022 N.2     
   8 C8             2.3140     1.4684    -0.0136 C.2     
   9 N9             2.4233     0.1127    -0.0275 N.am    
  10 C10            1.3132    -0.6692    -0.0178 C.2     
  11 O11            1.4008    -1.8831    -0.0256 O.2     
  12 C12           -3.7259     2.0396     0.0515 C.2     
  13 N13           -4.8719     1.3303     0.0604 N.am    
  14 O14           -3.7631     3.2543     0.0569 O.2     
  15 N15           -6.1060     1.9933     0.0759 N.am    
  16 C16           -7.2520     1.2840     0.0848 C.2     
  17 C17           -8.5572     1.9852     0.1011 C.ar    
  18 O18           -7.2148     0.0694     0.0794 O.2     
  19 N19           -8.5914     3.3119     0.1068 N.ar    
  20 C20           -9.7284     3.9728     0.1208 C.ar    
  21 C21          -10.9410     3.3025     0.1305 C.ar    
  22 C22          -10.9512     1.9162     0.1250 C.ar    
  23 C23           -9.7382     1.2463     0.1044 C.ar    
  24 C24            3.7016     2.0893    -0.0176 C.3     
  25 C25            4.6402     0.9352     0.3949 C.3     
  26 C26            3.8362    -0.3024    -0.0539 C.3     
  27 C27            5.9736     1.0212    -0.3505 C.3     
  28 C28            4.8616     0.9244     1.9087 C.3     
  29 H29           -1.1717    -1.8037     0.0071 H       
  30 H30           -3.3085    -0.6205     0.0374 H       
  31 H31           -1.2761     3.1547     0.0356 H       
  32 H32           -4.8422     0.3608     0.0562 H       
  33 H33           -6.1357     2.9628     0.0801 H       
  34 H34           -9.7167     5.0527     0.1251 H       
  35 H35          -11.8691     3.8546     0.1427 H       
  36 H36          -11.8833     1.3708     0.1323 H       
  37 H37           -9.7088     0.1667     0.0992 H       
  38 H38            3.9552     2.4483    -1.0151 H       
  39 H39            3.7570     2.9024     0.7062 H       
  40 H40            3.9992    -1.1288     0.6379 H       
  41 H41            4.1247    -0.5932    -1.0640 H       
  42 H42            6.4719     1.9568    -0.0967 H       
  43 H43            6.6064     0.1823    -0.0610 H       
  44 H44            5.7923     0.9859    -1.4247 H       
  45 H45            3.9021     0.8212     2.4155 H       
  46 H46            5.5055     0.0864     2.1758 H       
  47 H47            5.3349     1.8578     2.2134 H       
@<TRIPOS>BOND
   1    1    2 ar
   2    1    7 1
   3    1    6 ar
   4    2    3 ar
   5    2   10 1
   6    3    4 ar
   7    3   29 1
   8    4    5 ar
   9    4   30 1
  10    5    6 ar
  11    5   12 1
  12    6   31 1
  13    7    8 2
  14    8    9 1
  15    8   24 1
  16    9   10 am
  17    9   26 1
  18   10   11 2
  19   12   13 am
  20   12   14 2
  21   13   15 1
  22   13   32 1
  23   15   16 am
  24   15   33 1
  25   16   17 1
  26   16   18 2
  27   17   19 ar
  28   17   23 ar
  29   19   20 ar
  30   20   21 ar
  31   20   34 1
  32   21   22 ar
  33   21   35 1
  34   22   23 ar
  35   22   36 1
  36   23   37 1
  37   24   25 1
  38   24   38 1
  39   24   39 1
  40   25   26 1
  41   25   27 1
  42   25   28 1
  43   26   40 1
  44   26   41 1
  45   27   42 1
  46   27   43 1
  47   27   44 1
  48   28   45 1
  49   28   46 1
  50   28   47 1

#	End of record

