#	Name: ASD00311181
#	Creating user name:	WinNT
#	Creation time:	15. 06. 2019 18:34

#	Modifying user name:	WinNT
#	Modification time:	15. 06. 2019 18:34

#	Program:	/corina/corina34_cracker 3.40 0067  02.08.2006

@<TRIPOS>MOLECULE
ASD00311181
  40   43    0    0    0
SMALL
NO_CHARGES


@<TRIPOS>ATOM
   1 C1            -0.0167     1.3777     0.0096 C.2     
   2 C2             0.0021    -0.0041     0.0020 C.2     
   3 C3             1.2585    -0.6766    -0.0136 C.2     
   4 C4             2.4315     0.0673    -0.0208 C.2     
   5 C5             2.3576     1.4750    -0.0125 C.2     
   6 N6             1.1650     2.0903     0.0022 N.am    
   7 C7            -1.3435    -0.5753     0.0118 C.2     
   8 C8            -2.3231     0.3266     0.0260 C.2     
   9 S9            -1.6792     1.9565     0.0358 S.3     
  10 O10            3.3825     2.1371    -0.0187 O.2     
  11 C11            3.7475    -0.6122    -0.0365 C.ar    
  12 C12            4.5933    -0.4749    -1.1370 C.ar    
  13 C13            5.8183    -1.1099    -1.1455 C.ar    
  14 C14            6.2081    -1.8815    -0.0654 C.ar    
  15 C15            5.3734    -2.0219     1.0289 C.ar    
  16 C16            4.1484    -1.3872     1.0516 C.ar    
  17 C17           -1.5961    -2.0354     0.0064 C.ar    
  18 C18           -1.7274    -2.7211    -1.2059 C.ar    
  19 C19           -1.9634    -4.0850    -1.2031 C.ar    
  20 C20           -2.0695    -4.7682    -0.0051 C.ar    
  21 C21           -1.9402    -4.0935     1.1976 C.ar    
  22 C22           -1.6982    -2.7322     1.2085 C.ar    
  23 O23           -1.6240    -2.0496    -2.3834 O.3     
  24 C24           -1.7689    -2.8149    -3.5815 C.3     
  25 F25           -2.0453    -4.7684     2.3632 F       
  26 O26            1.3083    -2.0292    -0.0209 O.3     
  27 Cl27          -4.0152    -0.0612     0.0401 Cl      
  28 H28            1.1329     3.0597     0.0077 H       
  29 H29            4.2899     0.1270    -1.9809 H       
  30 H30            6.4740    -1.0046    -1.9972 H       
  31 H31            7.1679    -2.3766    -0.0767 H       
  32 H32            5.6831    -2.6259     1.8689 H       
  33 H33            3.4995    -1.4939     1.9083 H       
  34 H34           -2.0651    -4.6165    -2.1377 H       
  35 H35           -2.2544    -5.8322    -0.0076 H       
  36 H36           -1.5933    -2.2090     2.1475 H       
  37 H37           -2.7531    -3.2831    -3.5968 H       
  38 H38           -1.6649    -2.1594    -4.4462 H       
  39 H39           -0.9992    -3.5859    -3.6155 H       
  40 H40            2.2056    -2.3896    -0.0314 H       
@<TRIPOS>BOND
   1    1    2 2
   2    1    6 1
   3    1    9 1
   4    2    3 1
   5    2    7 1
   6    3    4 2
   7    3   26 1
   8    4    5 1
   9    4   11 1
  10    5    6 am
  11    5   10 2
  12    6   28 1
  13    7    8 2
  14    7   17 1
  15    8    9 1
  16    8   27 1
  17   11   12 ar
  18   11   16 ar
  19   12   13 ar
  20   12   29 1
  21   13   14 ar
  22   13   30 1
  23   14   15 ar
  24   14   31 1
  25   15   16 ar
  26   15   32 1
  27   16   33 1
  28   17   18 ar
  29   17   22 ar
  30   18   19 ar
  31   18   23 1
  32   19   20 ar
  33   19   34 1
  34   20   21 ar
  35   20   35 1
  36   21   22 ar
  37   21   25 1
  38   22   36 1
  39   23   24 1
  40   24   37 1
  41   24   38 1
  42   24   39 1
  43   26   40 1

#	End of record

