#	Name: ASD00170442
#	Creating user name:	WinNT
#	Creation time:	15. 06. 2019 18:32

#	Modifying user name:	WinNT
#	Modification time:	15. 06. 2019 18:32

#	Program:	/corina/corina34_cracker 3.40 0067  02.08.2006

@<TRIPOS>MOLECULE
ASD00170442
  63   66    0    0    0
SMALL
NO_CHARGES


@<TRIPOS>ATOM
   1 C1             0.6750     1.3739     0.7019 C.2     
   2 C2             0.5618     0.0166     0.9102 C.2     
   3 C3            -0.7477    -0.4930     0.5796 C.2     
   4 C4            -1.5825     0.4564     0.1390 C.2     
   5 S5            -0.7896     2.0214     0.1193 S.3     
   6 C6            -1.1346    -1.9432     0.7154 C.3     
   7 N7             1.8165     2.1093     0.9383 N.pl3   
   8 C8             1.6529    -0.8194     1.4130 C.2     
   9 C9             2.5348    -1.5330     0.4648 C.ar    
  10 O10            1.8343    -0.9272     2.6123 O.2     
  11 C11            3.5044    -2.4182     0.9399 C.ar    
  12 C12            4.3237    -3.0812     0.0507 C.ar    
  13 C13            4.1862    -2.8705    -1.3114 C.ar    
  14 C14            3.2261    -1.9935    -1.7887 C.ar    
  15 C15            2.3975    -1.3288    -0.9095 C.ar    
  16 Cl16           5.2216    -3.7084    -2.4247 Cl      
  17 C17           -2.9826     0.2194    -0.2700 C.ar    
  18 C18           -4.0119     0.9903     0.2734 C.ar    
  19 C19           -5.3167     0.7638    -0.1128 C.ar    
  20 C20           -5.6064    -0.2248    -1.0364 C.ar    
  21 C21           -4.5911    -0.9928    -1.5786 C.ar    
  22 C22           -3.2813    -0.7726    -1.2058 C.ar    
  23 N23           -1.5026    -2.2232     2.1098 N.3     
  24 C24           -2.7234    -1.4989     2.4877 C.3     
  25 C25           -1.6562    -3.6668     2.3339 C.3     
  26 C26           -2.8665    -1.5004     4.0110 C.3     
  27 C27           -4.1458    -0.7588     4.4038 C.3     
  28 C28           -2.6262    -4.2430     1.3004 C.3     
  29 C29           -2.7862    -5.7466     1.5338 C.3     
  30 C30           -1.4256    -6.4321     1.3940 C.3     
  31 C31           -0.4556    -5.8559     2.4275 C.3     
  32 C32           -0.2956    -4.3524     2.1941 C.3     
  33 H33           -1.9839    -2.1550     0.0659 H       
  34 H34           -0.2920    -2.5724     0.4286 H       
  35 H35            2.5898     1.6874     1.3443 H       
  36 H36            1.8464     3.0488     0.6988 H       
  37 H37            3.6127    -2.5830     2.0017 H       
  38 H38            5.0743    -3.7659     0.4170 H       
  39 H39            3.1238    -1.8329    -2.8518 H       
  40 H40            1.6490    -0.6455    -1.2829 H       
  41 H41           -3.7871     1.7621     0.9947 H       
  42 H42           -6.1139     1.3592     0.3071 H       
  43 H43           -6.6297    -0.3981    -1.3353 H       
  44 H44           -4.8241    -1.7632    -2.2988 H       
  45 H45           -2.4898    -1.3728    -1.6297 H       
  46 H46           -2.6618    -0.4712     2.1296 H       
  47 H47           -3.5891    -1.9880     2.0410 H       
  48 H48           -2.0487    -3.8392     3.3361 H       
  49 H49           -2.9175    -2.5283     4.3701 H       
  50 H50           -2.0059    -1.0020     4.4572 H       
  51 H51           -4.2477    -0.7599     5.4890 H       
  52 H52           -4.0947     0.2691     4.0447 H       
  53 H53           -5.0063    -1.2572     3.9576 H       
  54 H54           -3.5955    -3.7546     1.4000 H       
  55 H55           -2.2338    -4.0707     0.2982 H       
  56 H56           -3.1786    -5.9190     2.5360 H       
  57 H57           -3.4772    -6.1571     0.7975 H       
  58 H58           -1.5396    -7.5033     1.5603 H       
  59 H59           -1.0331    -6.2598     0.3918 H       
  60 H60           -0.8480    -6.0283     3.4297 H       
  61 H61            0.5137    -6.3443     2.3279 H       
  62 H62            0.0968    -4.1800     1.1919 H       
  63 H63            0.3954    -3.9419     2.9304 H       
@<TRIPOS>BOND
   1    1    2 2
   2    1    7 1
   3    1    5 1
   4    2    3 1
   5    2    8 1
   6    3    4 2
   7    3    6 1
   8    4    5 1
   9    4   17 1
  10    6   23 1
  11    6   33 1
  12    6   34 1
  13    7   35 1
  14    7   36 1
  15    8    9 1
  16    8   10 2
  17    9   11 ar
  18    9   15 ar
  19   11   12 ar
  20   11   37 1
  21   12   13 ar
  22   12   38 1
  23   13   14 ar
  24   13   16 1
  25   14   15 ar
  26   14   39 1
  27   15   40 1
  28   17   18 ar
  29   17   22 ar
  30   18   19 ar
  31   18   41 1
  32   19   20 ar
  33   19   42 1
  34   20   21 ar
  35   20   43 1
  36   21   22 ar
  37   21   44 1
  38   22   45 1
  39   23   24 1
  40   23   25 1
  41   24   26 1
  42   24   46 1
  43   24   47 1
  44   25   28 1
  45   25   32 1
  46   25   48 1
  47   26   27 1
  48   26   49 1
  49   26   50 1
  50   27   51 1
  51   27   52 1
  52   27   53 1
  53   28   29 1
  54   28   54 1
  55   28   55 1
  56   29   30 1
  57   29   56 1
  58   29   57 1
  59   30   31 1
  60   30   58 1
  61   30   59 1
  62   31   32 1
  63   31   60 1
  64   31   61 1
  65   32   62 1
  66   32   63 1

#	End of record

