#	Name: ASD01410761
#	Creating user name:	WinNT
#	Creation time:	15. 06. 2019 19:18

#	Modifying user name:	WinNT
#	Modification time:	15. 06. 2019 19:18

#	Program:	/corina/corina34_cracker 3.40 0067  02.08.2006

@<TRIPOS>MOLECULE
ASD01410761
  96  102    0    0    0
SMALL
NO_CHARGES


@<TRIPOS>ATOM
   1 C1             2.2623     1.4378    -0.4737 C.3     
   2 C2             1.6445    -2.2127    -1.4857 C.3     
   3 C3             1.5401    -0.6749    -1.5965 C.3     
   4 N4             2.5637    -0.3287    -2.5970 N.am    
   5 C5             2.5117    -1.3818    -3.6234 C.3     
   6 C6             1.9376    -2.6412    -2.9439 C.3     
   7 O7             2.7199    -2.5864    -0.6221 O.3     
   8 C8             1.6143    -0.9533    -4.7557 C.2     
   9 O9             1.0654     0.1275    -4.7187 O.2     
  10 N10            1.4218    -1.7712    -5.8095 N.am    
  11 C11            0.4808    -1.3941    -6.8671 C.3     
  12 C12           -0.9670    -1.3250    -6.4546 C.2     
  13 N13           -1.3331    -1.7033    -5.2139 N.am    
  14 O14           -1.8028    -0.9289    -7.2391 O.2     
  15 S15           -2.9017    -1.5118    -4.7188 S.o2    
  16 C16           -3.8536    -2.6229    -5.7911 C.3     
  17 C17            0.9642    -0.3938    -7.9191 C.3     
  18 C18            0.7884    -1.8688    -8.2887 C.3     
  19 C19           -5.3780    -2.5932    -5.6636 C.3     
  20 C20           -4.7013    -1.9857    -6.8940 C.3     
  21 O21           -2.9067    -1.9860    -3.3793 O.2     
  22 O22           -3.1999    -0.1547    -5.0167 O.2     
  23 C23           -0.0441     0.5848    -8.4638 C.2     
  24 C24            0.1501     1.8725    -8.3218 C.2     
  25 C25            2.6504    -3.8128    -0.0475 C.ar    
  26 C26            3.6385    -4.2422     0.8692 C.ar    
  27 C27            1.6182    -4.6668    -0.3351 C.ar    
  28 C28            1.5693    -5.9291     0.2721 C.ar    
  29 N29            2.5009    -6.3229     1.1239 N.ar    
  30 C30            3.5284    -5.5312     1.4468 C.ar    
  31 C31            0.4506    -6.8407    -0.0467 C.2     
  32 C32            4.5129    -5.9616     2.3534 C.ar    
  33 C33            5.5606    -5.1249     2.6674 C.ar    
  34 C34            5.6556    -3.8532     2.0952 C.ar    
  35 C35            4.7181    -3.4149     1.2109 C.ar    
  36 Cl36           4.4080    -7.5379     3.0731 Cl      
  37 N37            0.2856    -8.0355     0.4451 N.2     
  38 C38           -0.7700    -8.7041     0.0480 C.2     
  39 C39           -1.5648    -8.0742    -0.8267 C.2     
  40 S40           -0.8780    -6.4828    -1.1470 S.3     
  41 C41           -1.0699   -10.0950     0.5445 C.3     
  42 C42           -2.0347   -10.0165     1.7294 C.3     
  43 C43           -1.7092   -10.9113    -0.5805 C.3     
  44 C44            1.8651    -0.0226    -0.2604 C.3     
  45 C45            3.5560     1.5141    -1.2849 C.3     
  46 C46            3.4046     0.7150    -2.5546 C.2     
  47 C47            3.8533     2.9738    -1.6340 C.3     
  48 C48            2.7021     3.5440    -2.4650 C.3     
  49 C49            4.0035     3.7858    -0.3460 C.3     
  50 O50            4.0449     1.0166    -3.5394 O.2     
  51 O51            6.5125    -5.5401     3.5435 O.3     
  52 C52            7.5741    -4.6271     3.8289 C.3     
  53 H53            1.4671     1.9543    -1.0114 H       
  54 H54            2.4131     1.9168     0.4938 H       
  55 H55            0.7043    -2.6395    -1.1362 H       
  56 H56            0.5498    -0.3834    -1.9463 H       
  57 H57            3.5144    -1.5857    -3.9990 H       
  58 H58            2.6701    -3.4482    -2.9614 H       
  59 H59            1.0179    -2.9527    -3.4391 H       
  60 H60            1.9062    -2.6095    -5.8676 H       
  61 H61           -0.6777    -2.0878    -4.6110 H       
  62 H62           -3.3853    -3.5831    -6.0072 H       
  63 H63            1.9823    -0.0163    -7.8243 H       
  64 H64            1.6911    -2.4615    -8.4372 H       
  65 H65           -0.0563    -2.1309    -8.9257 H       
  66 H66           -5.9126    -3.5338    -5.7962 H       
  67 H67           -5.8089    -1.9060    -4.9354 H       
  68 H68           -4.6869    -0.8988    -6.9753 H       
  69 H69           -4.7906    -2.5266    -7.8360 H       
  70 H70           -0.9267     0.2245    -8.9713 H       
  71 H71           -0.5725     2.5739    -8.7122 H       
  72 H72            1.0327     2.2329    -7.8143 H       
  73 H73            0.8447    -4.3681    -1.0271 H       
  74 H74            6.4849    -3.2120     2.3549 H       
  75 H75            4.8037    -2.4301     0.7759 H       
  76 H76           -2.4715    -8.4714    -1.2586 H       
  77 H77           -0.1441   -10.5753     0.8611 H       
  78 H78           -1.5793    -9.4349     2.5309 H       
  79 H79           -2.9606    -9.5362     1.4128 H       
  80 H80           -2.2517   -11.0225     2.0885 H       
  81 H81           -1.0218   -10.9672    -1.4246 H       
  82 H82           -1.9261   -11.9173    -0.2214 H       
  83 H83           -2.6350   -10.4310    -0.8971 H       
  84 H84            2.6898    -0.5564     0.2117 H       
  85 H85            0.9892    -0.0683     0.3869 H       
  86 H86            4.3782     1.1074    -0.6960 H       
  87 H87            4.7781     3.0289    -2.2083 H       
  88 H88            1.7773     3.4888    -1.8907 H       
  89 H89            2.9139     4.5839    -2.7137 H       
  90 H90            2.5951     2.9655    -3.3826 H       
  91 H91            4.8588     3.4155     0.2193 H       
  92 H92            4.1592     4.8356    -0.5944 H       
  93 H93            3.0997     3.6847     0.2548 H       
  94 H94            8.1070    -4.3903     2.9080 H       
  95 H95            7.1621    -3.7127     4.2557 H       
  96 H96            8.2631    -5.0820     4.5406 H       
@<TRIPOS>BOND
   1    1   44 1
   2    1   45 1
   3    1   53 1
   4    1   54 1
   5    2    3 1
   6    2    7 1
   7    2    6 1
   8    2   55 1
   9    3    4 1
  10    3   44 1
  11    3   56 1
  12    4    5 1
  13    4   46 am
  14    5    6 1
  15    5    8 1
  16    5   57 1
  17    6   58 1
  18    6   59 1
  19    7   25 1
  20    8    9 2
  21    8   10 am
  22   10   11 1
  23   10   60 1
  24   11   12 1
  25   11   17 1
  26   11   18 1
  27   12   13 am
  28   12   14 2
  29   13   15 am
  30   13   61 1
  31   15   16 1
  32   15   21 2
  33   15   22 2
  34   16   19 1
  35   16   20 1
  36   16   62 1
  37   17   18 1
  38   17   23 1
  39   17   63 1
  40   18   64 1
  41   18   65 1
  42   19   20 1
  43   19   66 1
  44   19   67 1
  45   20   68 1
  46   20   69 1
  47   23   24 2
  48   23   70 1
  49   24   71 1
  50   24   72 1
  51   25   26 ar
  52   25   27 ar
  53   26   30 ar
  54   26   35 ar
  55   27   28 ar
  56   27   73 1
  57   28   29 ar
  58   28   31 1
  59   29   30 ar
  60   30   32 ar
  61   31   37 2
  62   31   40 1
  63   32   33 ar
  64   32   36 1
  65   33   34 ar
  66   33   51 1
  67   34   35 ar
  68   34   74 1
  69   35   75 1
  70   37   38 1
  71   38   39 2
  72   38   41 1
  73   39   40 1
  74   39   76 1
  75   41   42 1
  76   41   43 1
  77   41   77 1
  78   42   78 1
  79   42   79 1
  80   42   80 1
  81   43   81 1
  82   43   82 1
  83   43   83 1
  84   44   84 1
  85   44   85 1
  86   45   46 1
  87   45   47 1
  88   45   86 1
  89   46   50 2
  90   47   48 1
  91   47   49 1
  92   47   87 1
  93   48   88 1
  94   48   89 1
  95   48   90 1
  96   49   91 1
  97   49   92 1
  98   49   93 1
  99   51   52 1
 100   52   94 1
 101   52   95 1
 102   52   96 1

#	End of record

