#	Name: ASD03140003
#	Creating user name:	WinNT
#	Creation time:	15. 06. 2019 20:33

#	Modifying user name:	WinNT
#	Modification time:	15. 06. 2019 20:33

#	Program:	/corina/corina34_cracker 3.40 0067  02.08.2006

@<TRIPOS>MOLECULE
ASD03140003
  45   46    0    0    0
SMALL
NO_CHARGES


@<TRIPOS>ATOM
   1 C1            -0.2472     3.5037     3.5605 C.ar    
   2 C2            -0.7590     2.2206     3.6329 C.ar    
   3 C3            -0.1522     1.1840     2.9362 C.ar    
   4 C4             0.9701     1.4310     2.1645 C.ar    
   5 C5             1.4891     2.7265     2.0892 C.ar    
   6 C6             0.8700     3.7634     2.7951 C.ar    
   7 O7            -0.6604    -0.0742     3.0125 O.3     
   8 C8            -1.8198    -0.2573     3.8274 C.3     
   9 C9             2.6820     2.9985     1.2712 C.2     
  10 C10            3.2388     4.3966     1.1924 C.3     
  11 O11            3.2168     2.0976     0.6608 O.2     
  12 C12            4.5612     4.3763     0.4231 C.3     
  13 C13            4.8850     5.7680    -0.0560 C.ar    
  14 C14            5.6788     3.8807     1.3429 C.3     
  15 C15            5.8984     4.8923     2.4695 C.3     
  16 C16            5.2850     2.5286     1.9411 C.3     
  17 N17            6.9158     3.7320     0.5721 N.pl3   
  18 O18            6.9090     3.9162    -0.6319 O.2     
  19 O19            7.9510     3.4241     1.1352 O.2     
  20 C20            5.1291     8.1085     0.3853 C.ar    
  21 C21            4.8321     6.8320     0.8248 C.ar    
  22 C22            5.2406     5.9796    -1.3750 C.ar    
  23 C23            5.5376     7.2562    -1.8145 C.ar    
  24 C24            5.4786     8.3211    -0.9351 C.ar    
  25 H25            4.4728     3.7085    -0.4338 H       
  26 H26           -0.7269     4.3057     4.1018 H       
  27 H27           -1.6343     2.0241     4.2343 H       
  28 H28            1.4433     0.6253     1.6228 H       
  29 H29            1.2667     4.7664     2.7406 H       
  30 H30           -2.6316     0.3640     3.4492 H       
  31 H31           -2.1210    -1.3045     3.8007 H       
  32 H32           -1.5912     0.0289     4.8540 H       
  33 H33            2.5282     5.0422     0.6764 H       
  34 H34            3.4102     4.7768     2.1995 H       
  35 H35            4.9467     5.1072     2.9555 H       
  36 H36            6.5938     4.4779     3.1995 H       
  37 H37            6.3113     5.8125     2.0561 H       
  38 H38            5.1368     1.8057     1.1389 H       
  39 H39            6.0775     2.1795     2.6030 H       
  40 H40            4.3602     2.6375     2.5076 H       
  41 H41            5.0874     8.9399     1.0734 H       
  42 H42            4.5583     6.6661     1.8562 H       
  43 H43            5.2866     5.1476    -2.0621 H       
  44 H44            5.8160     7.4214    -2.8448 H       
  45 H45            5.7107     9.3184    -1.2785 H       
@<TRIPOS>BOND
   1    1    2 ar
   2    1    6 ar
   3    1   26 1
   4    2    3 ar
   5    2   27 1
   6    3    4 ar
   7    3    7 1
   8    4    5 ar
   9    4   28 1
  10    5    6 ar
  11    5    9 1
  12    6   29 1
  13    7    8 1
  14    8   30 1
  15    8   31 1
  16    8   32 1
  17    9   10 1
  18    9   11 2
  19   10   12 1
  20   10   33 1
  21   10   34 1
  22   12   13 1
  23   12   14 1
  24   12   25 1
  25   13   22 ar
  26   13   21 ar
  27   14   15 1
  28   14   16 1
  29   14   17 1
  30   15   35 1
  31   15   36 1
  32   15   37 1
  33   16   38 1
  34   16   39 1
  35   16   40 1
  36   17   18 2
  37   17   19 2
  38   20   21 ar
  39   20   24 ar
  40   20   41 1
  41   21   42 1
  42   22   23 ar
  43   22   43 1
  44   23   24 ar
  45   23   44 1
  46   24   45 1

#	End of record

