#	Name: ASD00960163
#	Creating user name:	WinNT
#	Creation time:	15. 06. 2019 18:53

#	Modifying user name:	WinNT
#	Modification time:	15. 06. 2019 18:53

#	Program:	/corina/corina34_cracker 3.40 0067  02.08.2006

@<TRIPOS>MOLECULE
ASD00960163
  36   38    0    0    0
SMALL
NO_CHARGES


@<TRIPOS>ATOM
   1 C1            -0.0189     1.5409     0.0105 C.3     
   2 C2             0.0021    -0.0041     0.0020 C.3     
   3 C3            -0.6985    -0.3962     1.3218 C.3     
   4 O4            -1.5292     0.7387     1.6500 O.3     
   5 C5            -0.7297     1.8993     1.3344 C.3     
   6 C6            -1.6237     3.1262     1.1437 C.3     
   7 C7            -1.5461    -1.6259     1.1205 C.2     
   8 C8            -2.7459    -1.6627     0.4796 C.2     
   9 N9            -1.2345    -2.8727     1.5426 N.pl3   
  10 C10           -2.2542    -3.7280     1.1716 C.2     
  11 C11           -3.2065    -2.9810     0.5051 C.2     
  12 N12           -0.1394    -3.4049     2.2374 N.2     
  13 C13           -0.1005    -4.6783     2.5185 C.2     
  14 N14           -1.0758    -5.5146     2.1674 N.2     
  15 C15           -2.1448    -5.0961     1.5102 C.2     
  16 N16           -3.1413    -5.9847     1.1589 N.pl3   
  17 F17           -3.3800    -0.6099    -0.0814 F       
  18 C18           -0.7764    -0.5442    -1.1993 C.3     
  19 O19            1.3471    -0.4865    -0.0166 O.3     
  20 *20            2.0811    -0.0947    -1.1549 Du      
  21 O21            1.3126     2.0597     0.0006 O.3     
  22 *22            1.4358     3.3108    -0.6380 Du      
  23 O23           -2.2379     3.4662     2.3884 O.3     
  24 *24           -3.0870     4.5898     2.3209 Du      
  25 H25           -0.5818     1.9199    -0.8424 H       
  26 H26            0.0385    -0.5666     2.1065 H       
  27 H27            0.0026     2.0810     2.1211 H       
  28 H28           -1.0207     3.9646     0.7951 H       
  29 H29           -2.3953     2.9025     0.4070 H       
  30 H30           -4.1315    -3.3468     0.0843 H       
  31 H31            0.7525    -5.0680     3.0542 H       
  32 H32           -3.0601    -6.9223     1.3939 H       
  33 H33           -3.9227    -5.6715     0.6770 H       
  34 H34           -0.3071    -0.2001    -2.1209 H       
  35 H35           -0.7727    -1.6339    -1.1745 H       
  36 H36           -1.8042    -0.1834    -1.1582 H       
@<TRIPOS>BOND
   1    1    2 1
   2    1   21 1
   3    1    5 1
   4    1   25 1
   5    2   18 1
   6    2   19 1
   7    2    3 1
   8    3    4 1
   9    3    7 1
  10    3   26 1
  11    4    5 1
  12    5    6 1
  13    5   27 1
  14    6   23 1
  15    6   28 1
  16    6   29 1
  17    7    8 2
  18    7    9 1
  19    8   17 1
  20    8   11 1
  21    9   10 1
  22    9   12 1
  23   10   11 2
  24   10   15 1
  25   11   30 1
  26   12   13 2
  27   13   14 1
  28   13   31 1
  29   14   15 2
  30   15   16 1
  31   16   32 1
  32   16   33 1
  33   18   34 1
  34   18   35 1
  35   18   36 1
  36   19   20 1
  37   21   22 1
  38   23   24 1

#	End of record

