#	Name: ASD00990102
#	Creating user name:	WinNT
#	Creation time:	15. 06. 2019 18:54

#	Modifying user name:	WinNT
#	Modification time:	15. 06. 2019 18:54

#	Program:	/corina/corina34_cracker 3.40 0067  02.08.2006

@<TRIPOS>MOLECULE
ASD00990102
  50   52    0    0    0
SMALL
NO_CHARGES


@<TRIPOS>ATOM
   1 Cl1            0.0000     0.0000     0.0000 Cl      
   2 H2             0.0000     1.3700     0.0000 H       
   3 N3             7.6131    13.6220     7.6126 N.am    
   4 C4             7.9077    12.3124     7.7341 C.2     
   5 O5             9.0591    11.9611     7.8818 O.2     
   6 C6             6.8065    11.2848     7.6865 C.3     
   7 H7             6.1018    11.4917     8.4920 H       
   8 C8             6.0668    11.4135     6.3358 C.3     
   9 S9             6.8762    10.0765     5.3579 S.3     
  10 C10            7.1010     8.9923     6.8233 C.3     
  11 H11            6.2040     8.4098     7.0334 H       
  12 C12            8.3180     8.0914     6.6154 C.3     
  13 C13            8.6101     7.3865     7.9466 C.3     
  14 C14            9.0538     8.4158     8.9835 C.3     
  15 C15            9.0243     7.7694    10.3848 C.3     
  16 C16           10.4966     7.3278    10.5953 C.3     
  17 C17           11.2680     8.4711     9.8901 C.3     
  18 N18           10.4443     8.8144     8.7169 N.am    
  19 C19           10.8913     9.3974     7.5869 C.2     
  20 O20           10.1019     9.7913     6.7546 O.2     
  21 C21           12.3718     9.5600     7.3577 C.3     
  22 H22           12.8982     8.6634     7.6849 H       
  23 C23           12.8918    10.7873     8.1353 C.3     
  24 C24           13.9294    11.4045     7.1610 C.3     
  25 C25           13.2677    11.1340     5.7868 C.3     
  26 N26           12.6343     9.8017     5.9271 N.3     
  27 C27            8.1696     9.6273     8.9752 C.2     
  28 O28            8.1298    10.3316     9.9617 O.2     
  29 N29            7.3905     9.9615     7.9030 N.am    
  30 H30            8.3219    14.2834     7.6432 H       
  31 H31            6.6927    13.9027     7.4905 H       
  32 H32            5.0000    11.2228     6.4531 H       
  33 H33            6.2415    12.3902     5.8845 H       
  34 H34            8.1024     7.3511     5.8449 H       
  35 H35            9.1772     8.6936     6.3200 H       
  36 H36            7.7085     6.8838     8.2967 H       
  37 H37            9.4023     6.6518     7.8023 H       
  38 H38            8.7287     8.4982    11.1394 H       
  39 H39            8.3575     6.9073    10.3977 H       
  40 H40           10.7441     7.2857    11.6560 H       
  41 H41           10.6901     6.3700    10.1122 H       
  42 H42           11.3610     9.3313    10.5531 H       
  43 H43           12.2527     8.1261     9.5745 H       
  44 H44           12.0823    11.4902     8.3321 H       
  45 H45           13.3712    10.4799     9.0648 H       
  46 H46           14.0417    12.4744     7.3365 H       
  47 H47           14.8897    10.8947     7.2390 H       
  48 H48           12.5150    11.8927     5.5721 H       
  49 H49           14.0218    11.1132     5.0000 H       
  50 H50           13.2205     9.0776     5.5396 H       
@<TRIPOS>BOND
   1    1    2 1
   2    3    4 am
   3    3   30 1
   4    3   31 1
   5    4    5 2
   6    4    6 1
   7    6    7 1
   8    6   29 1
   9    6    8 1
  10    8    9 1
  11    8   32 1
  12    8   33 1
  13    9   10 1
  14   10   11 1
  15   10   29 1
  16   10   12 1
  17   12   13 1
  18   12   34 1
  19   12   35 1
  20   13   14 1
  21   13   36 1
  22   13   37 1
  23   14   18 1
  24   14   15 1
  25   14   27 1
  26   15   16 1
  27   15   38 1
  28   15   39 1
  29   16   17 1
  30   16   40 1
  31   16   41 1
  32   17   18 1
  33   17   42 1
  34   17   43 1
  35   18   19 am
  36   19   20 2
  37   19   21 1
  38   21   22 1
  39   21   26 1
  40   21   23 1
  41   23   24 1
  42   23   44 1
  43   23   45 1
  44   24   25 1
  45   24   46 1
  46   24   47 1
  47   25   26 1
  48   25   48 1
  49   25   49 1
  50   26   50 1
  51   27   28 2
  52   27   29 am

#	End of record

