#	Name: ASD02560352
#	Creating user name:	WinNT
#	Creation time:	15. 06. 2019 20:25

#	Modifying user name:	WinNT
#	Modification time:	15. 06. 2019 20:25

#	Program:	/corina/corina34_cracker 3.40 0067  02.08.2006

@<TRIPOS>MOLECULE
ASD02560352
  42   45    0    0    0
SMALL
NO_CHARGES


@<TRIPOS>ATOM
   1 C1             0.6376     1.5870    -1.9959 C.2     
   2 C2             0.7759     0.2159    -2.2762 C.2     
   3 C3             1.7436    -0.5076    -1.6780 C.2     
   4 N4             2.6035     0.0795    -0.7907 N.pl3   
   5 C5             2.4924     1.4187    -0.4969 C.2     
   6 C6             1.4846     2.1855    -1.1167 C.2     
   7 C7             3.6520    -0.4057    -0.0565 C.2     
   8 C8             4.1516     0.6334     0.6599 C.2     
   9 N9             3.4360     1.7276     0.3789 N.2     
  10 C10            5.3171     0.5652     1.6129 C.3     
  11 N11            4.1206    -1.7245    -0.0464 N.pl3   
  12 C12            3.4174    -2.7095     0.6483 C.ar    
  13 C13            6.4190     1.5154     1.1398 C.3     
  14 C14            3.8139    -4.0264     0.5532 C.ar    
  15 C15            4.8559     0.9758     3.0127 C.3     
  16 C16            2.3197    -2.3496     1.4399 C.ar    
  17 C17            1.6171    -3.2880     2.1275 C.ar    
  18 C18            1.9908    -4.6410     2.0487 C.ar    
  19 C19            3.1041    -5.0141     1.2540 C.ar    
  20 C20            1.2825    -5.6323     2.7490 C.ar    
  21 C21            1.6698    -6.9336     2.6517 C.ar    
  22 C22            2.7610    -7.3011     1.8665 C.ar    
  23 C23            3.4743    -6.3686     1.1783 C.ar    
  24 H24           -0.1362     2.1637    -2.4809 H       
  25 H25            0.1032    -0.2601    -2.9743 H       
  26 H26            1.8404    -1.5599    -1.9009 H       
  27 H27            1.3864     3.2380    -0.8954 H       
  28 H28            5.7035    -0.4536     1.6419 H       
  29 H29            4.9341    -1.9539    -0.5224 H       
  30 H30            6.0325     2.5342     1.1108 H       
  31 H31            7.2619     1.4661     1.8291 H       
  32 H32            6.7475     1.2230     0.1425 H       
  33 H33            4.6638    -4.2961    -0.0562 H       
  34 H34            4.0708     0.2988     3.3498 H       
  35 H35            5.6988     0.9264     3.7020 H       
  36 H36            4.4694     1.9945     2.9837 H       
  37 H37            2.0275    -1.3119     1.5050 H       
  38 H38            0.7730    -2.9947     2.7340 H       
  39 H39            0.4349    -5.3629     3.3618 H       
  40 H40            1.1233    -7.6928     3.1915 H       
  41 H41            3.0474    -8.3407     1.8067 H       
  42 H42            4.3174    -6.6678     0.5733 H       
@<TRIPOS>BOND
   1    1    2 1
   2    1    6 2
   3    1   24 1
   4    2    3 2
   5    2   25 1
   6    3    4 1
   7    3   26 1
   8    4    5 1
   9    4    7 1
  10    5    6 1
  11    5    9 2
  12    6   27 1
  13    7    8 2
  14    7   11 1
  15    8    9 1
  16    8   10 1
  17   10   13 1
  18   10   15 1
  19   10   28 1
  20   11   12 1
  21   11   29 1
  22   12   16 ar
  23   12   14 ar
  24   13   30 1
  25   13   31 1
  26   13   32 1
  27   14   19 ar
  28   14   33 1
  29   15   34 1
  30   15   35 1
  31   15   36 1
  32   16   17 ar
  33   16   37 1
  34   17   18 ar
  35   17   38 1
  36   18   19 ar
  37   18   20 ar
  38   19   23 ar
  39   20   21 ar
  40   20   39 1
  41   21   22 ar
  42   21   40 1
  43   22   23 ar
  44   22   41 1
  45   23   42 1

#	End of record

