#	Name: ASD04910020
#	Creating user name:	WinNT
#	Creation time:	15. 06. 2019 20:55

#	Modifying user name:	WinNT
#	Modification time:	15. 06. 2019 20:55

#	Program:	/corina/corina34_cracker 3.40 0067  02.08.2006

@<TRIPOS>MOLECULE
ASD04910020
  61   63    0    0    0
SMALL
NO_CHARGES


@<TRIPOS>ATOM
   1 C1             0.6363     1.7835     0.2529 C.2     
   2 C2             0.5253     0.2811     0.2911 C.3     
   3 C3             1.8881    -0.3391    -0.0236 C.3     
   4 O4             1.6966     2.3048    -0.0001 O.2     
   5 O5            -0.4441     2.5426     0.4944 O.3     
   6 C6             2.8638    -2.5619    -0.2344 C.2     
   7 C7             2.7549    -4.0358    -0.1970 C.ar    
   8 C8             3.8751    -4.8281    -0.4533 C.ar    
   9 C9             3.7668    -6.2029    -0.4163 C.ar    
  10 C10            2.5512    -6.7966    -0.1263 C.ar    
  11 C11            1.4369    -6.0170     0.1288 C.ar    
  12 C12            1.5329    -4.6411     0.1006 C.ar    
  13 O13            3.9304    -2.0375    -0.4889 O.2     
  14 N14            1.7803    -1.7996     0.0135 N.am    
  15 C15            2.4401    -8.2991    -0.0886 C.3     
  16 C16            2.4840    -8.7774     1.3641 C.3     
  17 C17            2.5459   -10.3058     1.3961 C.3     
  18 C18            2.7324   -10.7785     2.8392 C.3     
  19 O19            1.2052    -8.7005    -0.6851 O.3     
  20 C20            1.1804    -8.8074    -2.0401 C.ar    
  21 C21           -0.0069    -9.1119    -2.6901 C.ar    
  22 C22           -0.0328    -9.2201    -4.0663 C.ar    
  23 C23            1.1296    -9.0242    -4.7997 C.ar    
  24 C24            2.3175    -8.7195    -4.1488 C.ar    
  25 C25            2.3412    -8.6063    -2.7730 C.ar    
  26 N26            1.1040    -9.1345    -6.1980 N.pl3   
  27 N27           -0.0182    -9.4348    -6.9809 N.2     
  28 C28            0.3509    -9.4494    -8.2367 C.2     
  29 C29            1.7182    -9.1592    -8.2945 C.2     
  30 C30            2.1566    -8.9639    -7.0290 C.2     
  31 C31            2.5540    -9.0729    -9.5456 C.3     
  32 F32            1.7505    -9.3290   -10.6618 F       
  33 F33            3.1042    -7.7910    -9.6513 F       
  34 F34            3.5832   -10.0186    -9.4850 F       
  35 C35            1.2437   -10.8808     0.8353 C.3     
  36 H36            0.2030    -0.0343     1.2834 H       
  37 H37           -0.2035    -0.0483    -0.4495 H       
  38 H38            2.2105    -0.0237    -1.0159 H       
  39 H39            2.6169    -0.0096     0.7170 H       
  40 H40           -0.3238     3.5015     0.4587 H       
  41 H41            4.8244    -4.3659    -0.6805 H       
  42 H42            4.6328    -6.8171    -0.6144 H       
  43 H43            0.4910    -6.4867     0.3545 H       
  44 H44            0.6635    -4.0336     0.3042 H       
  45 H45            0.9291    -2.2181     0.2166 H       
  46 H46            3.2705    -8.7388    -0.6411 H       
  47 H47            3.3668    -8.3676     1.8550 H       
  48 H48            1.5885    -8.4390     1.8852 H       
  49 H49            3.3849   -10.6482     0.7903 H       
  50 H50            1.8935   -10.4361     3.4450 H       
  51 H51            2.7765   -11.8674     2.8620 H       
  52 H52            3.6602   -10.3689     3.2387 H       
  53 H53           -0.9110    -9.2647    -2.1194 H       
  54 H54           -0.9570    -9.4575    -4.5721 H       
  55 H55            3.2220    -8.5669    -4.7189 H       
  56 H56            3.2642    -8.3649    -2.2669 H       
  57 H57           -0.2897    -9.6511    -9.0824 H       
  58 H58            3.1667    -8.7187    -6.7356 H       
  59 H59            0.3959   -10.4331     1.3538 H       
  60 H60            1.1771   -10.6582    -0.2296 H       
  61 H61            1.2304   -11.9608     0.9823 H       
@<TRIPOS>BOND
   1    1    2 1
   2    1    4 2
   3    1    5 1
   4    2    3 1
   5    2   36 1
   6    2   37 1
   7    3   14 1
   8    3   38 1
   9    3   39 1
  10    5   40 1
  11    6    7 1
  12    6   13 2
  13    6   14 am
  14    7    8 ar
  15    7   12 ar
  16    8    9 ar
  17    8   41 1
  18    9   10 ar
  19    9   42 1
  20   10   11 ar
  21   10   15 1
  22   11   12 ar
  23   11   43 1
  24   12   44 1
  25   14   45 1
  26   15   16 1
  27   15   19 1
  28   15   46 1
  29   16   17 1
  30   16   47 1
  31   16   48 1
  32   17   18 1
  33   17   35 1
  34   17   49 1
  35   18   50 1
  36   18   51 1
  37   18   52 1
  38   19   20 1
  39   20   21 ar
  40   20   25 ar
  41   21   22 ar
  42   21   53 1
  43   22   23 ar
  44   22   54 1
  45   23   24 ar
  46   23   26 1
  47   24   25 ar
  48   24   55 1
  49   25   56 1
  50   26   27 1
  51   26   30 1
  52   27   28 2
  53   28   29 1
  54   28   57 1
  55   29   30 2
  56   29   31 1
  57   30   58 1
  58   31   32 1
  59   31   33 1
  60   31   34 1
  61   35   59 1
  62   35   60 1
  63   35   61 1

#	End of record

