#	Name: ASD01200393
#	Creating user name:	WinNT
#	Creation time:	15. 06. 2019 19:09

#	Modifying user name:	WinNT
#	Modification time:	15. 06. 2019 19:09

#	Program:	/corina/corina34_cracker 3.40 0067  02.08.2006

@<TRIPOS>MOLECULE
ASD01200393
  73   75    0    0    0
SMALL
NO_CHARGES


@<TRIPOS>ATOM
   1 N1            -0.0178     1.4608     0.0101 N.pl3   
   2 C2             0.0242     0.0158     0.2478 C.3     
   3 C3            -0.9851    -0.3513     1.3375 C.3     
   4 P4            -0.3962    -0.8657    -1.2916 P.3     
   5 C5             1.1730     2.1777    -0.1556 C.ar    
   6 O6            -0.2229    -2.4505    -1.0670 O.3     
   7 O7            -1.7983    -0.5704    -1.6621 O.2     
   8 O8             0.5845    -0.3807    -2.4727 O.3     
   9 C9             0.4420    -0.8099    -3.8282 C.3     
  10 C10            1.5323    -0.1636    -4.6852 C.3     
  11 C11           -0.5761    -3.4199    -2.0556 C.3     
  12 C12           -0.2854    -4.8235    -1.5204 C.3     
  13 C13            2.3813     1.5067    -0.2228 C.ar    
  14 C14            3.5670     2.2258    -0.3887 C.ar    
  15 C15            3.5280     3.6185    -0.4860 C.ar    
  16 C16            2.3206     4.2816    -0.4184 C.ar    
  17 C17            1.1417     3.5685    -0.2589 C.ar    
  18 N18           -2.3311     0.0338     0.9063 N.pl3   
  19 O19           -0.0455     4.2268    -0.1928 O.3     
  20 C20            4.8594     1.5151    -0.4605 C.2     
  21 N21            6.0184     2.0935    -0.6136 N.2     
  22 C22            7.0713     1.3224    -0.6581 C.2     
  23 C23            6.7907    -0.0126    -0.5339 C.2     
  24 S24            5.0467    -0.1801    -0.3474 S.3     
  25 C25            7.7655    -1.1039    -0.5477 C.2     
  26 C26            8.4707     1.8540    -0.8316 C.3     
  27 O27            7.3505    -2.3807    -0.4149 O.3     
  28 O28            8.9499    -0.8598    -0.6788 O.2     
  29 C29            8.3565    -3.3954    -0.4372 C.3     
  30 C30            7.7002    -4.7679    -0.2743 C.3     
  31 C31           -3.4262    -0.2029     1.7405 C.ar    
  32 C32           -4.7032     0.1616     1.3331 C.ar    
  33 C33           -5.7838    -0.0743     2.1601 C.ar    
  34 C34           -5.5956    -0.6726     3.3926 C.ar    
  35 C35           -4.3256    -1.0368     3.8012 C.ar    
  36 C36           -3.2413    -0.8086     2.9768 C.ar    
  37 S37           -6.9769    -0.9712     4.4448 S.o2    
  38 O38           -6.4638    -1.0513     5.7676 O.2     
  39 O39           -7.9843    -0.0472     4.0566 O.2     
  40 N40           -7.5572    -2.4778     4.0764 N.am    
  41 H41           -0.8709     1.9201    -0.0364 H       
  42 H42            1.0257    -0.2707     0.5686 H       
  43 H43           -0.9538    -1.4264     1.5144 H       
  44 H44           -0.7337     0.1757     2.2579 H       
  45 H45            0.5364    -1.8947    -3.8776 H       
  46 H46           -0.5379    -0.5131    -4.2023 H       
  47 H47            1.4235    -0.4910    -5.7192 H       
  48 H48            1.4378     0.9212    -4.6358 H       
  49 H49            2.5121    -0.4604    -4.3112 H       
  50 H50           -1.6375    -3.3321    -2.2877 H       
  51 H51            0.0088    -3.2473    -2.9591 H       
  52 H52            0.7760    -4.9113    -1.2884 H       
  53 H53           -0.8703    -4.9961    -0.6170 H       
  54 H54           -0.5549    -5.5629    -2.2745 H       
  55 H55            2.4075     0.4297    -0.1468 H       
  56 H56            4.4438     4.1765    -0.6139 H       
  57 H57            2.2927     5.3586    -0.4935 H       
  58 H58           -2.4620     0.4531     0.0415 H       
  59 H59           -0.4713     4.3572    -1.0512 H       
  60 H60            8.9063     2.0567     0.1469 H       
  61 H61            9.0781     1.1147    -1.3536 H       
  62 H62            8.4400     2.7752    -1.4134 H       
  63 H63            8.8894    -3.3580    -1.3873 H       
  64 H64            9.0585    -3.2291     0.3799 H       
  65 H65            7.1673    -4.8054     0.6758 H       
  66 H66            6.9982    -4.9342    -1.0915 H       
  67 H67            8.4675    -5.5419    -0.2914 H       
  68 H68           -4.8508     0.6293     0.3709 H       
  69 H69           -6.7768     0.2092     1.8442 H       
  70 H70           -4.1821    -1.5039     4.7643 H       
  71 H71           -2.2503    -1.0972     3.2947 H       
  72 H72           -7.1289    -3.0069     3.3853 H       
  73 H73           -8.3254    -2.8313     4.5516 H       
@<TRIPOS>BOND
   1    1    2 1
   2    1    5 1
   3    1   41 1
   4    2    3 1
   5    2    4 1
   6    2   42 1
   7    3   18 1
   8    3   43 1
   9    3   44 1
  10    4    6 1
  11    4    7 2
  12    4    8 1
  13    5   13 ar
  14    5   17 ar
  15    6   11 1
  16    8    9 1
  17    9   10 1
  18    9   45 1
  19    9   46 1
  20   10   47 1
  21   10   48 1
  22   10   49 1
  23   11   12 1
  24   11   50 1
  25   11   51 1
  26   12   52 1
  27   12   53 1
  28   12   54 1
  29   13   14 ar
  30   13   55 1
  31   14   15 ar
  32   14   20 1
  33   15   16 ar
  34   15   56 1
  35   16   17 ar
  36   16   57 1
  37   17   19 1
  38   18   31 1
  39   18   58 1
  40   19   59 1
  41   20   21 2
  42   20   24 1
  43   21   22 1
  44   22   23 2
  45   22   26 1
  46   23   24 1
  47   23   25 1
  48   25   27 1
  49   25   28 2
  50   26   60 1
  51   26   61 1
  52   26   62 1
  53   27   29 1
  54   29   30 1
  55   29   63 1
  56   29   64 1
  57   30   65 1
  58   30   66 1
  59   30   67 1
  60   31   32 ar
  61   31   36 ar
  62   32   33 ar
  63   32   68 1
  64   33   34 ar
  65   33   69 1
  66   34   35 ar
  67   34   37 1
  68   35   36 ar
  69   35   70 1
  70   36   71 1
  71   37   38 2
  72   37   39 2
  73   37   40 am
  74   40   72 1
  75   40   73 1

#	End of record

