#	Name: ASD01811811
#	Creating user name:	WinNT
#	Creation time:	15. 06. 2019 19:27

#	Modifying user name:	WinNT
#	Modification time:	15. 06. 2019 19:27

#	Program:	/corina/corina34_cracker 3.40 0067  02.08.2006

@<TRIPOS>MOLECULE
ASD01811811
  57   60    0    0    0
SMALL
NO_CHARGES


@<TRIPOS>ATOM
   1 C1            -0.0167     1.3805     0.0096 C.ar    
   2 C2             0.0021    -0.0041     0.0020 C.ar    
   3 C3            -1.1845    -0.7161     0.0090 C.ar    
   4 C4            -2.3942    -0.0535     0.0241 C.ar    
   5 C5            -2.4213     1.3425     0.0323 C.ar    
   6 C6            -1.2177     2.0512     0.0304 C.ar    
   7 C7             1.2777     2.1522     0.0014 C.3     
   8 C8             1.3184    -0.7376    -0.0144 C.3     
   9 C9            -1.1549    -2.2228    -0.0004 C.3     
  10 C10           -1.0078    -2.7311     1.4107 C.ar    
  11 C11           -2.1355    -2.9876     2.1712 C.ar    
  12 C12           -2.0101    -3.4529     3.4633 C.ar    
  13 C13           -0.7414    -3.6660     4.0058 C.ar    
  14 C14            0.3947    -3.4052     3.2329 C.ar    
  15 C15            0.2527    -2.9443     1.9369 C.ar    
  16 F16            1.6267    -3.6078     3.7490 F       
  17 C17           -0.5997    -4.1637     5.3891 C.2     
  18 O18            0.5064    -4.3482     5.8584 O.2     
  19 N19           -1.6968    -4.4135     6.1310 N.am    
  20 C20           -1.5563    -4.9072     7.5032 C.3     
  21 C21           -3.5309     2.3149     0.0477 C.2     
  22 N22           -3.0504     3.5703     0.0501 N.am    
  23 C23           -1.5841     3.5142     0.0402 C.3     
  24 O24           -4.7107     2.0226     0.0563 O.2     
  25 C25           -3.8575     4.7928     0.0640 C.3     
  26 C26           -4.1248     5.2110     1.5113 C.3     
  27 O27           -2.8976     5.6000     2.1393 O.3     
  28 C28           -2.9627     6.9806     2.5305 C.3     
  29 C29           -4.4735     7.2850     2.6903 C.3     
  30 C30           -5.0697     6.4316     1.5378 C.3     
  31 H31           -3.3180    -0.6130     0.0291 H       
  32 H32            1.5800     2.3437    -1.0282 H       
  33 H33            1.1390     3.0999     0.5217 H       
  34 H34            2.0504     1.5710     0.5048 H       
  35 H35            1.6456    -0.9199     1.0092 H       
  36 H36            1.1977    -1.6891    -0.5323 H       
  37 H37            2.0641    -0.1342    -0.5322 H       
  38 H38           -2.0831    -2.6018    -0.4281 H       
  39 H39           -0.3118    -2.5659    -0.5999 H       
  40 H40           -3.1168    -2.8223     1.7515 H       
  41 H41           -2.8917    -3.6518     4.0546 H       
  42 H42            1.1282    -2.7421     1.3377 H       
  43 H43           -2.5794    -4.2663     5.7566 H       
  44 H44           -1.0224    -5.8575     7.4945 H       
  45 H45           -0.9977    -4.1820     8.0949 H       
  46 H46           -2.5443    -5.0496     7.9410 H       
  47 H47           -1.1849     3.9949     0.9333 H       
  48 H48           -1.1966     4.0028    -0.8538 H       
  49 H49           -3.3198     5.5891    -0.4508 H       
  50 H50           -4.8052     4.6083    -0.4418 H       
  51 H51           -4.5737     4.3822     2.0586 H       
  52 H52           -2.4444     7.1303     3.4776 H       
  53 H53           -2.5289     7.6140     1.7567 H       
  54 H54           -4.8418     6.9483     3.6594 H       
  55 H55           -4.6787     8.3450     2.5409 H       
  56 H56           -5.0297     6.9737     0.5930 H       
  57 H57           -6.0905     6.1270     1.7686 H       
@<TRIPOS>BOND
   1    1    2 ar
   2    1    7 1
   3    1    6 ar
   4    2    3 ar
   5    2    8 1
   6    3    4 ar
   7    3    9 1
   8    4    5 ar
   9    4   31 1
  10    5    6 ar
  11    5   21 1
  12    6   23 1
  13    7   32 1
  14    7   33 1
  15    7   34 1
  16    8   35 1
  17    8   36 1
  18    8   37 1
  19    9   10 1
  20    9   38 1
  21    9   39 1
  22   10   11 ar
  23   10   15 ar
  24   11   12 ar
  25   11   40 1
  26   12   13 ar
  27   12   41 1
  28   13   14 ar
  29   13   17 1
  30   14   15 ar
  31   14   16 1
  32   15   42 1
  33   17   18 2
  34   17   19 am
  35   19   20 1
  36   19   43 1
  37   20   44 1
  38   20   45 1
  39   20   46 1
  40   21   22 am
  41   21   24 2
  42   22   23 1
  43   22   25 1
  44   23   47 1
  45   23   48 1
  46   25   26 1
  47   25   49 1
  48   25   50 1
  49   26   27 1
  50   26   30 1
  51   26   51 1
  52   27   28 1
  53   28   29 1
  54   28   52 1
  55   28   53 1
  56   29   30 1
  57   29   54 1
  58   29   55 1
  59   30   56 1
  60   30   57 1

#	End of record

