#	Name: ASD03331252
#	Creating user name:	WinNT
#	Creation time:	15. 06. 2019 20:38

#	Modifying user name:	WinNT
#	Modification time:	15. 06. 2019 20:38

#	Program:	/corina/corina34_cracker 3.40 0067  02.08.2006

@<TRIPOS>MOLECULE
ASD03331252
  68   71    0    0    0
SMALL
NO_CHARGES


@<TRIPOS>ATOM
   1 N1            -0.0459     1.4956     0.5698 N.am    
   2 C2             0.0019     0.1506     1.1632 C.3     
   3 C3             0.5966    -0.8151     0.1327 C.3     
   4 N4             1.8894    -0.2950    -0.3322 N.3     
   5 C5             1.7288     0.9911    -1.0237 C.3     
   6 C6             1.1805     2.0309    -0.0406 C.3     
   7 C7            -1.1849     2.2161     0.5803 C.2     
   8 O8            -2.2139     1.7207     0.9974 O.2     
   9 N9            -1.1831     3.4859     0.1284 N.am    
  10 C10           -2.3851     4.1963     0.0330 C.ar    
  11 C11           -2.4015     5.5681     0.2481 C.ar    
  12 C12           -3.5892     6.2664     0.1527 C.ar    
  13 C13           -4.7613     5.6010    -0.1566 C.ar    
  14 C14           -4.7483     4.2350    -0.3714 C.ar    
  15 C15           -3.5629     3.5318    -0.2826 C.ar    
  16 C16            2.5723    -1.2724    -1.1902 C.3     
  17 C17            3.7648    -0.6215    -1.8425 C.ar    
  18 C18            4.9975    -0.6548    -1.2176 C.ar    
  19 C19            6.0936    -0.0581    -1.8133 C.ar    
  20 C20            5.9592     0.5728    -3.0346 C.ar    
  21 C21            4.7232     0.6072    -3.6641 C.ar    
  22 C22            3.6264     0.0030    -3.0671 C.ar    
  23 O23            4.5882     1.2277    -4.8656 O.3     
  24 C24            5.7611     1.8238    -5.4232 C.3     
  25 C25            5.4157     2.4692    -6.7668 C.3     
  26 C26            6.6715     3.1075    -7.3638 C.3     
  27 N27            6.3399     3.7271    -8.6538 N.3     
  28 C28            7.4532     4.5494    -9.1443 C.3     
  29 C29            5.1022     4.5117    -8.5580 C.3     
  30 C30            4.7104     5.0203    -9.9472 C.3     
  31 C31            5.8431     5.8852   -10.5070 C.3     
  32 C32            7.1315     5.0591   -10.5510 C.3     
  33 H33            0.6285     0.1659     2.0549 H       
  34 H34           -1.0063    -0.1697     1.4260 H       
  35 H35            0.7419    -1.7929     0.5920 H       
  36 H36           -0.0837    -0.9080    -0.7138 H       
  37 H37            2.6951     1.3233    -1.4030 H       
  38 H38            1.0326     0.8731    -1.8541 H       
  39 H39            0.9515     2.9537    -0.5736 H       
  40 H40            1.9203     2.2269     0.7355 H       
  41 H41           -0.3488     3.9073    -0.1307 H       
  42 H42           -1.4865     6.0883     0.4900 H       
  43 H43           -3.6027     7.3332     0.3202 H       
  44 H44           -5.6889     6.1492    -0.2303 H       
  45 H45           -5.6653     3.7181    -0.6128 H       
  46 H46           -3.5526     2.4657    -0.4549 H       
  47 H47            2.9044    -2.1167    -0.5862 H       
  48 H48            1.8845    -1.6240    -1.9592 H       
  49 H49            5.1046    -1.1473    -0.2624 H       
  50 H50            7.0555    -0.0851    -1.3229 H       
  51 H51            6.8154     1.0393    -3.4991 H       
  52 H52            2.6633     0.0284    -3.5551 H       
  53 H53            6.1410     2.5849    -4.7416 H       
  54 H54            6.5219     1.0578    -5.5730 H       
  55 H55            5.0358     1.7082    -7.4484 H       
  56 H56            4.6549     3.2352    -6.6170 H       
  57 H57            7.0514     3.8685    -6.6822 H       
  58 H58            7.4323     2.3415    -7.5136 H       
  59 H59            7.6005     5.3974    -8.4756 H       
  60 H60            8.3624     3.9489    -9.1747 H       
  61 H61            4.3038     3.8837    -8.1626 H       
  62 H62            5.2606     5.3599    -7.8921 H       
  63 H63            4.5384     4.1723   -10.6101 H       
  64 H64            3.8003     5.6156    -9.8734 H       
  65 H65            5.5867     6.2141   -11.5140 H       
  66 H66            5.9892     6.7541    -9.8652 H       
  67 H67            7.9513     5.6822   -10.9086 H       
  68 H68            6.9977     4.2117   -11.2234 H       
@<TRIPOS>BOND
   1    1    2 1
   2    1    6 1
   3    1    7 am
   4    2    3 1
   5    2   33 1
   6    2   34 1
   7    3    4 1
   8    3   35 1
   9    3   36 1
  10    4    5 1
  11    4   16 1
  12    5    6 1
  13    5   37 1
  14    5   38 1
  15    6   39 1
  16    6   40 1
  17    7    8 2
  18    7    9 am
  19    9   10 1
  20    9   41 1
  21   10   11 ar
  22   10   15 ar
  23   11   12 ar
  24   11   42 1
  25   12   13 ar
  26   12   43 1
  27   13   14 ar
  28   13   44 1
  29   14   15 ar
  30   14   45 1
  31   15   46 1
  32   16   17 1
  33   16   47 1
  34   16   48 1
  35   17   18 ar
  36   17   22 ar
  37   18   19 ar
  38   18   49 1
  39   19   20 ar
  40   19   50 1
  41   20   21 ar
  42   20   51 1
  43   21   22 ar
  44   21   23 1
  45   22   52 1
  46   23   24 1
  47   24   25 1
  48   24   53 1
  49   24   54 1
  50   25   26 1
  51   25   55 1
  52   25   56 1
  53   26   27 1
  54   26   57 1
  55   26   58 1
  56   27   28 1
  57   27   29 1
  58   28   32 1
  59   28   59 1
  60   28   60 1
  61   29   30 1
  62   29   61 1
  63   29   62 1
  64   30   31 1
  65   30   63 1
  66   30   64 1
  67   31   32 1
  68   31   65 1
  69   31   66 1
  70   32   67 1
  71   32   68 1

#	End of record

