#	Name: ASD01913474
#	Creating user name:	WinNT
#	Creation time:	15. 06. 2019 20:01

#	Modifying user name:	WinNT
#	Modification time:	15. 06. 2019 20:01

#	Program:	/corina/corina34_cracker 3.40 0067  02.08.2006

@<TRIPOS>MOLECULE
ASD01913474
  36   38    0    0    0
SMALL
NO_CHARGES


@<TRIPOS>ATOM
   1 C1            -0.3950    -0.6971    -2.1125 C.ar    
   2 C2            -0.8375    -0.0249    -0.9777 C.ar    
   3 C3            -0.8095     1.3625    -0.9625 C.ar    
   4 N4            -0.3710     2.0377    -2.0061 N.ar    
   5 C5             0.0553     1.4311    -3.0968 C.ar    
   6 C6             0.0582     0.0519    -3.1867 C.ar    
   7 C7            -1.2745    -2.0744     0.0401 C.ar    
   8 C8            -0.0808    -2.7694     0.1753 C.ar    
   9 N9            -0.0561    -4.0866     0.1232 N.ar    
  10 C10           -1.1518    -4.7962    -0.0573 C.ar    
  11 C11           -2.3861    -4.1746    -0.2011 C.ar    
  12 C12           -2.4536    -2.7855    -0.1518 C.ar    
  13 N13           -3.5446    -4.9344    -0.3932 N.am    
  14 C14           -4.7099    -4.5369     0.1549 C.2     
  15 O15           -1.2913    -0.7169     0.1003 O.3     
  16 C16           -5.9075    -5.3971     0.0502 C.ar    
  17 C17           -5.8332    -6.6223    -0.6164 C.ar    
  18 C18           -6.9510    -7.4270    -0.7157 C.ar    
  19 C19           -8.1488    -7.0275    -0.1577 C.ar    
  20 C20           -8.2374    -5.8044     0.5126 C.ar    
  21 C21           -7.1117    -4.9902     0.6213 C.ar    
  22 O22           -4.7761    -3.4709     0.7354 O.2     
  23 C23           -9.4805    -5.3913     1.0910 C.1     
  24 N24          -10.4667    -5.0636     1.5498 N.1     
  25 H25           -0.4002    -1.7763    -2.1535 H       
  26 H26           -1.1507     1.8944    -0.0867 H       
  27 H27            0.4067     2.0201    -3.9311 H       
  28 H28            0.4094    -0.4364    -4.0837 H       
  29 H29            0.8395    -2.2244     0.3247 H       
  30 H30           -1.0895    -5.8738    -0.0941 H       
  31 H31           -3.3980    -2.2729    -0.2603 H       
  32 H32           -3.5093    -5.7475    -0.9210 H       
  33 H33           -4.8993    -6.9408    -1.0556 H       
  34 H34           -6.8879    -8.3732    -1.2326 H       
  35 H35           -9.0194    -7.6614    -0.2396 H       
  36 H36           -7.1744    -4.0441     1.1385 H       
@<TRIPOS>BOND
   1    1    2 ar
   2    1    6 ar
   3    1   25 1
   4    2    3 ar
   5    2   15 1
   6    3    4 ar
   7    3   26 1
   8    4    5 ar
   9    5    6 ar
  10    5   27 1
  11    6   28 1
  12    7    8 ar
  13    7   12 ar
  14    7   15 1
  15    8    9 ar
  16    8   29 1
  17    9   10 ar
  18   10   11 ar
  19   10   30 1
  20   11   12 ar
  21   11   13 1
  22   12   31 1
  23   13   14 am
  24   13   32 1
  25   14   16 1
  26   14   22 2
  27   16   17 ar
  28   16   21 ar
  29   17   18 ar
  30   17   33 1
  31   18   19 ar
  32   18   34 1
  33   19   20 ar
  34   19   35 1
  35   20   21 ar
  36   20   23 1
  37   21   36 1
  38   23   24 3

#	End of record

