#	Name: ASD02030382
#	Creating user name:	WinNT
#	Creation time:	15. 06. 2019 20:15

#	Modifying user name:	WinNT
#	Modification time:	15. 06. 2019 20:15

#	Program:	/corina/corina34_cracker 3.40 0067  02.08.2006

@<TRIPOS>MOLECULE
ASD02030382
  39   41    0    0    0
SMALL
NO_CHARGES


@<TRIPOS>ATOM
   1 C1            -0.4058     2.3100    -1.1161 C.2     
   2 N2            -0.7305     1.9189    -2.3230 N.2     
   3 C3             0.2276     2.3153    -3.2024 C.ar    
   4 C4             1.2093     3.0012    -2.4635 C.ar    
   5 N5             0.7833     2.9824    -1.1493 N.pl3   
   6 C6             0.3817     2.1683    -4.5791 C.ar    
   7 C7             1.5061     2.7028    -5.2047 C.ar    
   8 C8             2.4734     3.3821    -4.4531 C.ar    
   9 C9             2.3237     3.5283    -3.1036 C.ar    
  10 C10            1.6784     2.5525    -6.6622 C.2     
  11 O11            0.8405     1.9632    -7.3155 O.2     
  12 O12            2.7651     3.0687    -7.2689 O.3     
  13 C13            1.4777     3.5747    -0.0033 C.3     
  14 N14           -1.1556     2.0821     0.0191 N.pl3   
  15 C15           -2.4156     1.4783    -0.0832 C.ar    
  16 C16           -2.5364     0.0970     0.0142 C.ar    
  17 C17           -3.7823    -0.4954    -0.0868 C.ar    
  18 C18           -4.9067     0.2846    -0.2849 C.ar    
  19 C19           -4.7908     1.6590    -0.3824 C.ar    
  20 C20           -3.5490     2.2594    -0.2767 C.ar    
  21 F21           -3.4373     3.6028    -0.3664 F       
  22 F22           -1.4383    -0.6661     0.2069 F       
  23 C23            2.8689     2.8829    -8.7052 C.3     
  24 C24            4.1586     3.5319    -9.2115 C.3     
  25 H25           -0.3646     1.6437    -5.1571 H       
  26 H26            3.3428     3.7937    -4.9442 H       
  27 H27            3.0744     4.0542    -2.5324 H       
  28 H28            2.1538     2.8388     0.4319 H       
  29 H29            2.0489     4.4424    -0.3334 H       
  30 H30            0.7470     3.8837     0.7442 H       
  31 H31           -0.8104     2.3399     0.8881 H       
  32 H32           -3.8770    -1.5686    -0.0112 H       
  33 H33           -5.8780    -0.1809    -0.3641 H       
  34 H34           -5.6712     2.2649    -0.5375 H       
  35 H35            2.8846     1.8171    -8.9335 H       
  36 H36            2.0124     3.3466    -9.1944 H       
  37 H37            4.1429     4.5976    -8.9833 H       
  38 H38            5.0151     3.0681    -8.7223 H       
  39 H39            4.2365     3.3924   -10.2898 H       
@<TRIPOS>BOND
   1    1    2 2
   2    1    5 1
   3    1   14 1
   4    2    3 1
   5    3    4 ar
   6    3    6 ar
   7    4    5 1
   8    4    9 ar
   9    5   13 1
  10    6    7 ar
  11    6   25 1
  12    7    8 ar
  13    7   10 1
  14    8    9 ar
  15    8   26 1
  16    9   27 1
  17   10   11 2
  18   10   12 1
  19   12   23 1
  20   13   28 1
  21   13   29 1
  22   13   30 1
  23   14   15 1
  24   14   31 1
  25   15   16 ar
  26   15   20 ar
  27   16   17 ar
  28   16   22 1
  29   17   18 ar
  30   17   32 1
  31   18   19 ar
  32   18   33 1
  33   19   20 ar
  34   19   34 1
  35   20   21 1
  36   23   24 1
  37   23   35 1
  38   23   36 1
  39   24   37 1
  40   24   38 1
  41   24   39 1

#	End of record

