#	Name: ASD00490003
#	Creating user name:	WinNT
#	Creation time:	15. 06. 2019 18:36

#	Modifying user name:	WinNT
#	Modification time:	15. 06. 2019 18:36

#	Program:	/corina/corina34_cracker 3.40 0067  02.08.2006

@<TRIPOS>MOLECULE
ASD00490003
  21   20    0    0    0
SMALL
NO_CHARGES


@<TRIPOS>ATOM
   1 C1            -0.0178     1.4648     0.0101 C.3     
   2 N2             0.0021    -0.0041     0.0020 N.3     
   3 C3             1.4175     1.9944    -0.0008 C.3     
   4 C4             2.1195     1.5919     1.2978 C.3     
   5 C5             3.5548     2.1215     1.2869 C.3     
   6 N6             4.2288     1.7351     2.5337 N.3     
   7 C7            -0.7467     1.9640    -1.2108 C.2     
   8 O8            -0.8847     1.2416    -2.1695 O.2     
   9 O9            -1.2426     3.2111    -1.2332 O.3     
  10 H10           -0.5280     1.8163     0.9069 H       
  11 H11            0.4701    -0.3548    -0.8202 H       
  12 H12            0.4286    -0.3645     0.8424 H       
  13 H13            1.9544     1.5716    -0.8500 H       
  14 H14            1.4033     3.0811    -0.0844 H       
  15 H15            1.5826     2.0146     2.1471 H       
  16 H16            2.1337     0.5052     1.3814 H       
  17 H17            4.0917     1.6988     0.4377 H       
  18 H18            3.5406     3.2082     1.2033 H       
  19 H19            4.1984     0.7353     2.6664 H       
  20 H20            5.1792     2.0734     2.5509 H       
  21 H21           -1.7022     3.4864    -2.0383 H       
@<TRIPOS>BOND
   1    1    2 1
   2    1    3 1
   3    1    7 1
   4    1   10 1
   5    2   11 1
   6    2   12 1
   7    3    4 1
   8    3   13 1
   9    3   14 1
  10    4    5 1
  11    4   15 1
  12    4   16 1
  13    5    6 1
  14    5   17 1
  15    5   18 1
  16    6   19 1
  17    6   20 1
  18    7    8 2
  19    7    9 1
  20    9   21 1

#	End of record

