#	Name: ASD06170003
#	Creating user name:	WinNT
#	Creation time:	15. 06. 2019 21:05

#	Modifying user name:	WinNT
#	Modification time:	15. 06. 2019 21:05

#	Program:	/corina/corina34_cracker 3.40 0067  02.08.2006

@<TRIPOS>MOLECULE
ASD06170003
  75   79    0    0    0
SMALL
NO_CHARGES


@<TRIPOS>ATOM
   1 N1            -0.4447     1.0797    -1.0929 N.pl3   
   2 N2            -0.5565    -0.2872    -0.8216 N.am    
   3 C3             0.6492    -0.7470    -0.4275 C.2     
   4 C4             1.5653     0.4042    -0.4559 C.2     
   5 C5             0.8196     1.4888    -0.8744 C.2     
   6 C6             2.9914     0.4006    -0.1079 C.2     
   7 O7             3.6367     1.4301    -0.1752 O.2     
   8 N8             3.5859    -0.7430     0.2861 N.am    
   9 C9            -1.7229    -1.0501    -0.9385 C.ar    
  10 C10           -1.6932    -2.2697    -1.6024 C.ar    
  11 C11           -2.8466    -3.0208    -1.7157 C.ar    
  12 C12           -4.0302    -2.5598    -1.1690 C.ar    
  13 C13           -4.0633    -1.3458    -0.5078 C.ar    
  14 C14           -2.9121    -0.5925    -0.3860 C.ar    
  15 O15            0.9248    -1.8891    -0.1106 O.2     
  16 C16           -1.5390     1.9382    -1.5528 C.3     
  17 C17            1.3342     2.8935    -1.0564 C.3     
  18 N18            0.6806     3.7838    -0.0878 N.3     
  19 C19            1.2036     3.5623     1.2670 C.3     
  20 C20            0.8257     5.1907    -0.4847 C.3     
  21 C21           -0.0682     6.0643     0.3978 C.3     
  22 C22            4.9205    -0.7282     0.7100 C.ar    
  23 C23            5.4212     0.3746     1.3898 C.ar    
  24 C24            6.7386     0.3883     1.8078 C.ar    
  25 C25            7.5609    -0.7015     1.5475 C.ar    
  26 C26            7.0601    -1.8016     0.8684 C.ar    
  27 C27            5.7418    -1.8183     0.4559 C.ar    
  28 F28            7.2268     1.4607     2.4687 F       
  29 O29            8.8572    -0.6885     1.9585 O.3     
  30 N30            9.6464    -1.8316     5.8420 N.ar    
  31 C31            8.4070    -1.7353     5.4212 C.ar    
  32 C32            8.1025    -1.3533     4.1208 C.ar    
  33 C33            9.1244    -1.0634     3.2338 C.ar    
  34 C34           10.4548    -1.1705     3.6978 C.ar    
  35 C35           11.5432    -0.8925     2.8575 C.ar    
  36 C36           12.8151    -1.0059     3.3396 C.ar    
  37 C37           13.0446    -1.3975     4.6663 C.ar    
  38 C38           12.0037    -1.6743     5.5051 C.ar    
  39 C39           10.6832    -1.5662     5.0383 C.ar    
  40 O40           14.3200    -1.5032     5.1232 O.3     
  41 C41           14.4905    -1.9062     6.4835 C.3     
  42 O42           13.8702    -0.7370     2.5251 O.3     
  43 C43           13.5710    -0.3434     1.1844 C.3     
  44 H44            3.0894    -1.5762     0.2761 H       
  45 H45           -0.7692    -2.6301    -2.0299 H       
  46 H46           -2.8243    -3.9690    -2.2322 H       
  47 H47           -4.9308    -3.1491    -1.2590 H       
  48 H48           -4.9893    -0.9884    -0.0822 H       
  49 H49           -2.9376     0.3535     0.1345 H       
  50 H50           -2.4236     1.3299    -1.7409 H       
  51 H51           -1.7647     2.6806    -0.7873 H       
  52 H52           -1.2429     2.4430    -2.4724 H       
  53 H53            2.4121     2.9094    -0.8947 H       
  54 H54            1.1136     3.2330    -2.0684 H       
  55 H55            2.2525     3.8563     1.3041 H       
  56 H56            0.6335     4.1595     1.9786 H       
  57 H57            1.1128     2.5069     1.5235 H       
  58 H58            1.8650     5.4967    -0.3648 H       
  59 H59            0.5308     5.3062    -1.5276 H       
  60 H60            0.2267     5.9487     1.4408 H       
  61 H61            0.0394     7.1082     0.1033 H       
  62 H62           -1.1074     5.7582     0.2780 H       
  63 H63            4.7816     1.2212     1.5914 H       
  64 H64            7.6998    -2.6479     0.6658 H       
  65 H65            5.3511    -2.6779    -0.0685 H       
  66 H66            7.6015    -1.9592     6.1049 H       
  67 H67            7.0727    -1.2836     3.8032 H       
  68 H68           11.3756    -0.5907     1.8342 H       
  69 H69           12.1948    -1.9748     6.5246 H       
  70 H70           14.0446    -2.8900     6.6296 H       
  71 H71           15.5539    -1.9507     6.7186 H       
  72 H72           14.0032    -1.1853     7.1399 H       
  73 H73           13.0132    -1.1378     0.6885 H       
  74 H74           12.9720     0.5672     1.1981 H       
  75 H75           14.4995    -0.1594     0.6439 H       
@<TRIPOS>BOND
   1    1    2 1
   2    1    5 1
   3    1   16 1
   4    2    3 am
   5    2    9 1
   6    3    4 1
   7    3   15 2
   8    4    5 2
   9    4    6 1
  10    5   17 1
  11    6    7 2
  12    6    8 am
  13    8   22 1
  14    8   44 1
  15    9   10 ar
  16    9   14 ar
  17   10   11 ar
  18   10   45 1
  19   11   12 ar
  20   11   46 1
  21   12   13 ar
  22   12   47 1
  23   13   14 ar
  24   13   48 1
  25   14   49 1
  26   16   50 1
  27   16   51 1
  28   16   52 1
  29   17   18 1
  30   17   53 1
  31   17   54 1
  32   18   19 1
  33   18   20 1
  34   19   55 1
  35   19   56 1
  36   19   57 1
  37   20   21 1
  38   20   58 1
  39   20   59 1
  40   21   60 1
  41   21   61 1
  42   21   62 1
  43   22   23 ar
  44   22   27 ar
  45   23   24 ar
  46   23   63 1
  47   24   25 ar
  48   24   28 1
  49   25   26 ar
  50   25   29 1
  51   26   27 ar
  52   26   64 1
  53   27   65 1
  54   29   33 1
  55   30   31 ar
  56   30   39 ar
  57   31   32 ar
  58   31   66 1
  59   32   33 ar
  60   32   67 1
  61   33   34 ar
  62   34   35 ar
  63   34   39 ar
  64   35   36 ar
  65   35   68 1
  66   36   37 ar
  67   36   42 1
  68   37   38 ar
  69   37   40 1
  70   38   39 ar
  71   38   69 1
  72   40   41 1
  73   41   70 1
  74   41   71 1
  75   41   72 1
  76   42   43 1
  77   43   73 1
  78   43   74 1
  79   43   75 1

#	End of record

