#	Name: ASD09080051
#	Creating user name:	WinNT
#	Creation time:	15. 06. 2019 21:20

#	Modifying user name:	WinNT
#	Modification time:	15. 06. 2019 21:20

#	Program:	/corina/corina34_cracker 3.40 0067  02.08.2006

@<TRIPOS>MOLECULE
ASD09080051
  69   70    0    0    0
SMALL
NO_CHARGES


@<TRIPOS>ATOM
   1 C1            -0.0166     1.3760     0.0096 C.ar    
   2 C2             0.0021    -0.0041     0.0020 C.ar    
   3 C3             1.2195    -0.6816    -0.0133 C.ar    
   4 C4             2.4120     0.0390    -0.0209 C.ar    
   5 C5             2.3816     1.4188    -0.0132 C.ar    
   6 C6             1.1702     2.0863     0.0021 C.ar    
   7 C7             1.1434     3.5931     0.0104 C.3     
   8 C8             1.1204     4.1107    -1.4291 C.3     
   9 C9             0.9676     5.6330    -1.4213 C.3     
  10 N10            2.3726     3.7491    -2.0982 N.am    
  11 C11            0.9446     6.1507    -2.8609 C.3     
  12 O12           -0.0827     5.4786    -3.5924 O.3     
  13 O13           -0.2538     5.9858    -0.7688 O.3     
  14 C14            2.4097     3.6303    -3.4402 C.2     
  15 C15            3.6977     3.2583    -4.1284 C.3     
  16 O16            1.4065     3.8229    -4.0940 O.2     
  17 C17            1.2459    -2.1653    -0.0210 C.ar    
  18 C18            2.4634    -2.8426    -0.0363 C.ar    
  19 C19            2.4827    -4.2239    -0.0435 C.ar    
  20 C20            1.2952    -4.9350    -0.0355 C.ar    
  21 C21            0.0832    -4.2667    -0.0203 C.ar    
  22 C22            0.0534    -2.8856    -0.0072 C.ar    
  23 Cl23           3.9989    -5.0692    -0.0632 Cl      
  24 Cl24          -1.4019    -5.1656    -0.0104 Cl      
  25 C25            0.6714     7.6327    -2.8575 C.2     
  26 O26           -0.3483     8.0602    -3.3447 O.2     
  27 O27            1.5609     8.4779    -2.3133 O.3     
  28 C28            2.3557    10.6921    -1.6841 C.3     
  29 C29            1.2319     9.8918    -2.3455 C.3     
  30 N30            3.4774     3.1941    -5.5753 N.am    
  31 O31            4.2938     2.8180    -7.7284 O.3     
  32 C32            5.4363     2.4705    -8.5543 C.3     
  33 C33            5.9520     1.0864    -8.1552 C.3     
  34 C34            5.0159     2.4534   -10.0253 C.3     
  35 C35            6.5450     3.5054    -8.3528 C.3     
  36 C36            4.4963     2.8771    -6.3986 C.2     
  37 O37            5.5976     2.6445    -5.9408 O.2     
  38 H38           -0.9597     1.9022     0.0169 H       
  39 H39           -0.9252    -0.5577     0.0083 H       
  40 H40            3.3584    -0.4812    -0.0324 H       
  41 H41            3.3053     1.9784    -0.0190 H       
  42 H42            0.2521     3.9377     0.5347 H       
  43 H43            2.0317     3.9695     0.5178 H       
  44 H44            0.2813     3.6640    -1.9625 H       
  45 H45            1.8066     6.0797    -0.8879 H       
  46 H46            3.1749     3.5951    -1.5753 H       
  47 H47            1.9094     5.9602    -3.3310 H       
  48 H48           -0.9702     5.6043    -3.2298 H       
  49 H49           -1.0443     5.6218    -1.1903 H       
  50 H50            4.4567     4.0094    -3.9094 H       
  51 H51            4.0342     2.2860    -3.7686 H       
  52 H52            3.3904    -2.2886    -0.0429 H       
  53 H53            1.3145    -6.0148    -0.0416 H       
  54 H54           -0.8928    -2.3651     0.0046 H       
  55 H55            2.1088    11.7535    -1.7083 H       
  56 H56            2.4712    10.3694    -0.6494 H       
  57 H57            3.2878    10.5236    -2.2235 H       
  58 H58            1.1164    10.2145    -3.3802 H       
  59 H59            0.2998    10.0603    -1.8062 H       
  60 H60            2.5983     3.3798    -5.9407 H       
  61 H61            5.1621     0.3491    -8.2987 H       
  62 H62            6.8097     0.8255    -8.7752 H       
  63 H63            6.2515     1.0986    -7.1072 H       
  64 H64            4.6485     3.4394   -10.3097 H       
  65 H65            5.8735     2.1924   -10.6453 H       
  66 H66            4.2260     1.7160   -10.1689 H       
  67 H67            6.8446     3.5176    -7.3049 H       
  68 H68            7.4027     3.2445    -8.9728 H       
  69 H69            6.1777     4.4915    -8.6372 H       
@<TRIPOS>BOND
   1    1    2 ar
   2    1    6 ar
   3    1   38 1
   4    2    3 ar
   5    2   39 1
   6    3    4 ar
   7    3   17 1
   8    4    5 ar
   9    4   40 1
  10    5    6 ar
  11    5   41 1
  12    6    7 1
  13    7    8 1
  14    7   42 1
  15    7   43 1
  16    8    9 1
  17    8   10 1
  18    8   44 1
  19    9   11 1
  20    9   13 1
  21    9   45 1
  22   10   14 am
  23   10   46 1
  24   11   12 1
  25   11   25 1
  26   11   47 1
  27   12   48 1
  28   13   49 1
  29   14   15 1
  30   14   16 2
  31   15   30 1
  32   15   50 1
  33   15   51 1
  34   17   18 ar
  35   17   22 ar
  36   18   19 ar
  37   18   52 1
  38   19   20 ar
  39   19   23 1
  40   20   21 ar
  41   20   53 1
  42   21   22 ar
  43   21   24 1
  44   22   54 1
  45   25   26 2
  46   25   27 1
  47   27   29 1
  48   28   29 1
  49   28   55 1
  50   28   56 1
  51   28   57 1
  52   29   58 1
  53   29   59 1
  54   30   36 am
  55   30   60 1
  56   31   32 1
  57   31   36 1
  58   32   33 1
  59   32   34 1
  60   32   35 1
  61   33   61 1
  62   33   62 1
  63   33   63 1
  64   34   64 1
  65   34   65 1
  66   34   66 1
  67   35   67 1
  68   35   68 1
  69   35   69 1
  70   36   37 2

#	End of record

