#	Name: ASD03320086
#	Creating user name:	WinNT
#	Creation time:	15. 06. 2019 20:36

#	Modifying user name:	WinNT
#	Modification time:	15. 06. 2019 20:36

#	Program:	/corina/corina34_cracker 3.40 0067  02.08.2006

@<TRIPOS>MOLECULE
ASD03320086
  36   38    0    0    0
SMALL
NO_CHARGES


@<TRIPOS>ATOM
   1 C1            -0.0182     1.4732     0.0148 C.2     
   2 C2             0.0014    -0.0045     0.0118 C.ar    
   3 C3             1.2161    -0.6979     0.0013 C.ar    
   4 C4             1.1786    -2.0931    -0.0012 C.ar    
   5 C5            -0.0619    -2.7381     0.0068 C.ar    
   6 N6            -1.1841    -2.0458     0.0161 N.ar    
   7 C7            -1.1921    -0.7285     0.0251 C.ar    
   8 O8             1.0265     2.0950     0.0082 O.2     
   9 N9            -1.1942     2.1315     0.0193 N.am    
  10 C10           -1.2149     3.5271     0.1327 C.ar    
  11 C11           -2.1833     4.2641    -0.5363 C.ar    
  12 C12           -2.2031     5.6402    -0.4240 C.ar    
  13 C13           -1.2559     6.2865     0.3568 C.ar    
  14 C14           -0.2882     5.5509     1.0254 C.ar    
  15 C15           -0.2706     4.1743     0.9187 C.ar    
  16 O16           -1.2757     7.6416     0.4665 O.3     
  17 C17           -0.2708     8.2409     1.2869 C.3     
  18 F18            0.9944     7.9231     0.7815 F       
  19 F19           -0.4371     9.6300     1.2883 F       
  20 F20           -0.3860     7.7562     2.5942 F       
  21 N21            3.3738    -2.9167     0.9755 N.pl3   
  22 N22            4.3947    -3.7806     0.5601 N.2     
  23 C23            4.0942    -4.2484    -0.6247 C.2     
  24 C24            2.8697    -3.7069    -1.0219 C.2     
  25 C25            2.4326    -2.8777    -0.0126 C.2     
  26 F26            2.2296    -3.9518    -2.1861 F       
  27 Cl27          -0.1254    -4.4729     0.0038 Cl      
  28 H28            2.1573    -0.1682    -0.0050 H       
  29 H29           -2.1348    -0.2016     0.0377 H       
  30 H30           -2.0262     1.6386    -0.0560 H       
  31 H31           -2.9205     3.7611    -1.1445 H       
  32 H32           -2.9559     6.2136    -0.9445 H       
  33 H33            0.4488     6.0548     1.6331 H       
  34 H34            0.4800     3.6015     1.4428 H       
  35 H35            3.3395    -2.4352     1.8169 H       
  36 H36            4.6936    -4.9386    -1.1998 H       
@<TRIPOS>BOND
   1    1    2 1
   2    1    8 2
   3    1    9 am
   4    2    3 ar
   5    2    7 ar
   6    3    4 ar
   7    3   28 1
   8    4    5 ar
   9    4   25 1
  10    5    6 ar
  11    5   27 1
  12    6    7 ar
  13    7   29 1
  14    9   10 1
  15    9   30 1
  16   10   11 ar
  17   10   15 ar
  18   11   12 ar
  19   11   31 1
  20   12   13 ar
  21   12   32 1
  22   13   14 ar
  23   13   16 1
  24   14   15 ar
  25   14   33 1
  26   15   34 1
  27   16   17 1
  28   17   18 1
  29   17   19 1
  30   17   20 1
  31   21   22 1
  32   21   25 1
  33   21   35 1
  34   22   23 2
  35   23   24 1
  36   23   36 1
  37   24   25 2
  38   24   26 1

#	End of record

