#	Name: ASD01884953
#	Creating user name:	WinNT
#	Creation time:	15. 06. 2019 19:49

#	Modifying user name:	WinNT
#	Modification time:	15. 06. 2019 19:49

#	Program:	/corina/corina34_cracker 3.40 0067  02.08.2006

@<TRIPOS>MOLECULE
ASD01884953
  50   54    0    0    0
SMALL
NO_CHARGES


@<TRIPOS>ATOM
   1 C1             0.0393     1.4367    -0.2845 C.ar    
   2 C2             0.1454     0.1521    -0.7777 C.ar    
   3 C3            -0.9338    -0.4279    -1.4454 C.ar    
   4 C4            -2.1160     0.2927    -1.6120 C.ar    
   5 C5            -2.2161     1.5761    -1.1168 C.ar    
   6 C6            -1.1438     2.1498    -0.4483 C.ar    
   7 C7            -0.8237    -1.8065    -1.9768 C.2     
   8 C8            -1.6142    -2.8175    -1.4634 C.2     
   9 C9             0.0884    -2.1001    -3.0197 C.2     
  10 C10            0.1866    -3.3533    -3.5013 C.2     
  11 N11           -0.5862    -4.3592    -2.9965 N.pl3   
  12 C12           -1.4870    -4.1149    -1.9879 C.2     
  13 C13           -0.6978    -5.6862    -3.2808 C.2     
  14 N14           -1.6051    -6.1855    -2.4819 N.2     
  15 N15           -2.0788    -5.2676    -1.7146 N.2     
  16 C16            0.0817    -6.4419    -4.3260 C.3     
  17 O17           -1.2462     3.4144     0.0386 O.3     
  18 C18           -2.4481     4.0379    -0.0554 C.ar    
  19 F19            1.0830     1.9998     0.3627 F       
  20 C20           -3.4000     3.9098     0.9533 C.ar    
  21 C21           -4.6097     4.5600     0.8205 C.ar    
  22 N22           -4.8692     5.2946    -0.2446 N.ar    
  23 C23           -3.9933     5.4401    -1.2209 C.ar    
  24 C24           -2.7588     4.8270    -1.1604 C.ar    
  25 C25           -4.3439     6.2909    -2.4144 C.3     
  26 C26           -5.6477     4.4292     1.9051 C.3     
  27 C27            0.9533    -7.6068    -3.8523 C.3     
  28 C28           -0.3418    -7.8826    -4.6189 C.3     
  29 C29           -2.5974    -2.5328    -0.3574 C.3     
  30 F30           -3.8594    -2.2845    -0.9078 F       
  31 F31           -2.6707    -3.6379     0.4974 F       
  32 F32           -2.1750    -1.4117     0.3649 F       
  33 H33            1.0625    -0.4032    -0.6474 H       
  34 H34           -2.9527    -0.1538    -2.1287 H       
  35 H35           -3.1317     2.1341    -1.2463 H       
  36 H36            0.7070    -1.3158    -3.4302 H       
  37 H37            0.8850    -3.5655    -4.2973 H       
  38 H38            0.4493    -5.8454    -5.1609 H       
  39 H39           -3.1942     3.3096     1.8272 H       
  40 H40           -2.0465     4.9502    -1.9629 H       
  41 H41           -4.0380     7.3205    -2.2290 H       
  42 H42           -3.8268     5.9113    -3.2957 H       
  43 H43           -5.4204     6.2562    -2.5817 H       
  44 H44           -5.5071     5.2217     2.6401 H       
  45 H45           -6.6427     4.5117     1.4676 H       
  46 H46           -5.5442     3.4595     2.3920 H       
  47 H47            1.8940    -7.7769    -4.3760 H       
  48 H48            0.9628    -7.8266    -2.7848 H       
  49 H49           -1.1843    -8.2839    -4.0556 H       
  50 H50           -0.2531    -8.2342    -5.6468 H       
@<TRIPOS>BOND
   1    1    2 ar
   2    1   19 1
   3    1    6 ar
   4    2    3 ar
   5    2   33 1
   6    3    4 ar
   7    3    7 1
   8    4    5 ar
   9    4   34 1
  10    5    6 ar
  11    5   35 1
  12    6   17 1
  13    7    8 2
  14    7    9 1
  15    8   29 1
  16    8   12 1
  17    9   10 2
  18    9   36 1
  19   10   11 1
  20   10   37 1
  21   11   12 1
  22   11   13 1
  23   12   15 2
  24   13   14 2
  25   13   16 1
  26   14   15 1
  27   16   27 1
  28   16   28 1
  29   16   38 1
  30   17   18 1
  31   18   20 ar
  32   18   24 ar
  33   20   21 ar
  34   20   39 1
  35   21   22 ar
  36   21   26 1
  37   22   23 ar
  38   23   24 ar
  39   23   25 1
  40   24   40 1
  41   25   41 1
  42   25   42 1
  43   25   43 1
  44   26   44 1
  45   26   45 1
  46   26   46 1
  47   27   28 1
  48   27   47 1
  49   27   48 1
  50   28   49 1
  51   28   50 1
  52   29   30 1
  53   29   31 1
  54   29   32 1

#	End of record

