#	Name: ASD01412092
#	Creating user name:	WinNT
#	Creation time:	15. 06. 2019 19:20

#	Modifying user name:	WinNT
#	Modification time:	15. 06. 2019 19:20

#	Program:	/corina/corina34_cracker 3.40 0067  02.08.2006

@<TRIPOS>MOLECULE
ASD01412092
  90   96    0    0    0
SMALL
NO_CHARGES


@<TRIPOS>ATOM
   1 C1             0.5282     2.9194    -1.4388 C.2     
   2 O2             1.0319     3.5475    -0.5317 O.2     
   3 N3            -0.6440     3.3224    -1.9679 N.am    
   4 N4             0.2204     0.7047    -2.4024 N.am    
   5 C5            -1.3158     4.4163    -1.4227 C.ar    
   6 C6            -0.6710     0.2222    -1.5141 C.2     
   7 C7            -1.6085    -0.8447    -1.9148 C.ar    
   8 O8            -0.7027     0.6660    -0.3825 O.2     
   9 C9            -3.3826    -2.3381    -1.4019 C.ar    
  10 C10           -3.3586     7.7431     0.2352 C.2     
  11 C11           -3.3217    -2.8282    -2.7316 C.ar    
  12 N12           -4.3731    -3.0266    -0.7543 N.pl3   
  13 C13           -4.5871     8.0760    -0.2179 C.2     
  14 C14           -4.3457    -3.8490    -2.8302 C.2     
  15 C15           -4.9452    -3.9255    -1.6236 C.2     
  16 C16           -4.6777    -4.6704    -4.0493 C.3     
  17 C17           -4.9294    -3.7403    -5.2378 C.3     
  18 C18           -3.5077    -5.6027    -4.3702 C.3     
  19 C19           -5.2665    -4.5741    -6.4755 C.3     
  20 C20           -3.8448    -6.4365    -5.6080 C.3     
  21 C21           -4.0965    -5.5064    -6.7964 C.3     
  22 H22           -1.0204     2.8516    -2.7279 H       
  23 H23            0.2027     0.3981    -3.3225 H       
  24 C24           -1.5544    -1.3407    -3.2219 C.ar    
  25 C25           -2.3960    -2.3292    -3.6572 C.ar    
  26 C26           -2.5221    -1.3349    -0.9745 C.ar    
  27 C27           -1.9886     5.3036    -2.2575 C.ar    
  28 C28           -2.6529     6.3843    -1.7241 C.ar    
  29 C29           -2.6512     6.5904    -0.3392 C.ar    
  30 C30           -1.9729     5.6951     0.4968 C.ar    
  31 C31           -1.3162     4.6140    -0.0451 C.ar    
  32 C32           -6.0777    -4.8459    -1.2701 C.3     
  33 C33           -6.0508    -5.1504     0.2365 C.3     
  34 C34           -6.8753    -4.1288     0.9929 C.3     
  35 C35           -6.2831    -2.7328     0.7785 C.3     
  36 C36           -4.7627    -2.8422     0.6501 C.3     
  37 C37           -5.9052    -6.2328    -1.9265 C.3     
  38 C38           -6.7976    -7.1307    -1.0269 C.3     
  39 C39           -6.5817    -6.5786     0.4008 C.3     
  40 C40            1.2162     1.6920    -1.9783 C.3     
  41 C41            2.1195     2.0725    -3.1644 C.3     
  42 C42            3.5581     1.6839    -2.7653 C.3     
  43 C43            3.3702     0.5833    -1.6917 C.3     
  44 C44            2.1364     1.0846    -0.8993 C.3     
  45 C45           -5.3389     7.1446    -0.9777 C.2     
  46 O46           -4.9159     6.0169    -1.1488 O.2     
  47 O47           -6.5236     7.5089    -1.5111 O.3     
  48 H48           -2.8965     8.3243     1.0195 H       
  49 H49           -4.9965     9.0517    -0.0013 H       
  50 H50           -5.5719    -5.2628    -3.8558 H       
  51 H51           -5.7629    -3.0761    -5.0091 H       
  52 H52           -4.0352    -3.1478    -5.4313 H       
  53 H53           -2.6135    -5.0102    -4.5638 H       
  54 H54           -3.3284    -6.2653    -3.5236 H       
  55 H55           -6.1607    -5.1666    -6.2820 H       
  56 H56           -5.4458    -3.9115    -7.3222 H       
  57 H57           -3.0113    -7.1007    -5.8366 H       
  58 H58           -4.7390    -7.0290    -5.4145 H       
  59 H59           -4.3366    -6.1004    -7.6782 H       
  60 H60           -3.2023    -4.9139    -6.9900 H       
  61 H61           -0.8276    -0.9314    -3.9080 H       
  62 H62           -2.3481    -2.7072    -4.6677 H       
  63 H63           -2.5558    -0.9522     0.0349 H       
  64 H64           -1.9891     5.1440    -3.3257 H       
  65 H65           -3.1744     7.0725    -2.3727 H       
  66 H66           -1.9690     5.8502     1.5656 H       
  67 H67           -0.7928     3.9228     0.5989 H       
  68 H68           -7.0311    -4.3977    -1.5498 H       
  69 H69           -5.0208    -5.1160     0.5917 H       
  70 H70           -7.9019    -4.1479     0.6270 H       
  71 H71           -6.8644    -4.3686     2.0561 H       
  72 H72           -6.6949    -2.2990    -0.1327 H       
  73 H73           -6.5316    -2.0978     1.6289 H       
  74 H74           -4.4132    -3.6933     1.2345 H       
  75 H75           -4.3034    -1.9311     1.0336 H       
  76 H76           -6.2707    -6.2254    -2.9534 H       
  77 H77           -4.8647    -6.5550    -1.8877 H       
  78 H78           -7.8445    -7.0391    -1.3164 H       
  79 H79           -6.4746    -8.1700    -1.0863 H       
  80 H80           -5.8523    -7.1901     0.9320 H       
  81 H81           -7.5266    -6.5663     0.9440 H       
  82 H82            1.8176     1.5220    -4.0554 H       
  83 H83            2.0603     3.1450    -3.3498 H       
  84 H84            4.0992     1.2894    -3.6253 H       
  85 H85            4.0822     2.5419    -2.3443 H       
  86 H86            3.1637    -0.3800    -2.1580 H       
  87 H87            4.2454     0.5210    -1.0451 H       
  88 H88            2.4305     1.8460    -0.1769 H       
  89 H89            1.6412     0.2529    -0.3981 H       
  90 H90           -6.9620     6.8072    -2.0116 H       
@<TRIPOS>BOND
   1    1   40 1
   2    1    2 2
   3    1    3 am
   4    3    5 1
   5    3   22 1
   6    4   23 1
   7    4   40 1
   8    4    6 am
   9    5   27 ar
  10    5   31 ar
  11    6    7 1
  12    6    8 2
  13    7   24 ar
  14    7   26 ar
  15    9   26 ar
  16    9   11 ar
  17    9   12 1
  18   10   13 2
  19   10   29 1
  20   10   48 1
  21   11   14 1
  22   11   25 ar
  23   12   15 1
  24   12   36 1
  25   13   45 1
  26   13   49 1
  27   14   16 1
  28   14   15 2
  29   15   32 1
  30   16   17 1
  31   16   18 1
  32   16   50 1
  33   17   19 1
  34   17   51 1
  35   17   52 1
  36   18   20 1
  37   18   53 1
  38   18   54 1
  39   19   21 1
  40   19   55 1
  41   19   56 1
  42   20   21 1
  43   20   57 1
  44   20   58 1
  45   21   59 1
  46   21   60 1
  47   24   25 ar
  48   24   61 1
  49   25   62 1
  50   26   63 1
  51   27   28 ar
  52   27   64 1
  53   28   29 ar
  54   28   65 1
  55   29   30 ar
  56   30   31 ar
  57   30   66 1
  58   31   67 1
  59   32   33 1
  60   32   37 1
  61   32   68 1
  62   33   34 1
  63   33   39 1
  64   33   69 1
  65   34   35 1
  66   34   70 1
  67   34   71 1
  68   35   36 1
  69   35   72 1
  70   35   73 1
  71   36   74 1
  72   36   75 1
  73   37   38 1
  74   37   76 1
  75   37   77 1
  76   38   39 1
  77   38   78 1
  78   38   79 1
  79   39   80 1
  80   39   81 1
  81   40   41 1
  82   40   44 1
  83   41   42 1
  84   41   82 1
  85   41   83 1
  86   42   43 1
  87   42   84 1
  88   42   85 1
  89   43   44 1
  90   43   86 1
  91   43   87 1
  92   44   88 1
  93   44   89 1
  94   45   46 2
  95   45   47 1
  96   47   90 1

#	End of record

