#	Name: ASD03430059
#	Creating user name:	WinNT
#	Creation time:	15. 06. 2019 20:40

#	Modifying user name:	WinNT
#	Modification time:	15. 06. 2019 20:40

#	Program:	/corina/corina34_cracker 3.40 0067  02.08.2006

@<TRIPOS>MOLECULE
ASD03430059
  52   57    0    0    0
SMALL
NO_CHARGES


@<TRIPOS>ATOM
   1 C1            -0.1060     1.4253     0.1455 C.ar    
   2 C2            -0.0791     0.0397     0.1067 C.ar    
   3 C3             1.1247    -0.6298     0.0440 C.ar    
   4 C4             2.3261     0.0725     0.0289 C.ar    
   5 C5             2.2952     1.4629     0.0634 C.ar    
   6 C6             1.0875     2.1376     0.1225 C.ar    
   7 O7             3.3937    -0.7755    -0.0068 O.3     
   8 C8             1.4805    -2.0904    -0.0311 C.3     
   9 C9             2.9556    -2.0725    -0.4548 C.3     
  10 C10            0.3956    -3.8334     1.0178 C.ar    
  11 C11            1.2818    -2.7943     1.2780 C.ar    
  12 C12            0.6266    -2.8352    -1.0166 C.2     
  13 N13            0.0312    -3.8317    -0.3315 N.am    
  14 O14            0.4974    -2.5881    -2.1970 O.2     
  15 C15            1.7818    -2.5980     2.5601 C.ar    
  16 C16            1.3911    -3.4513     3.5951 C.ar    
  17 C17            0.5119    -4.4824     3.3351 C.ar    
  18 C18            0.0163    -4.6762     2.0609 C.ar    
  19 C19           -0.8894    -4.8006    -0.9314 C.3     
  20 O20           -1.3038     2.0706     0.2000 O.3     
  21 C21           -1.2774     3.4433     0.6063 C.3     
  22 C22           -0.1495     4.1487    -0.1590 C.3     
  23 O23            1.0850     3.4987     0.1612 O.3     
  24 C24            2.7242    -1.4904     2.8274 C.2     
  25 N25            3.9035    -1.7396     3.4304 N.am    
  26 O26            2.4353    -0.3550     2.5033 O.2     
  27 C27            4.8372    -0.6422     3.6953 C.3     
  28 C28            5.7967    -0.9185     4.8648 C.3     
  29 C29            6.8941    -0.2513     4.0191 C.3     
  30 C30            6.0739    -0.6515     2.7814 C.3     
  31 H31           -1.0043    -0.5172     0.1261 H       
  32 H32            3.2202     2.0202     0.0448 H       
  33 H33            3.0484    -2.1597    -1.5373 H       
  34 H34            3.5122    -2.8638     0.0474 H       
  35 H35            1.7756    -3.3047     4.5936 H       
  36 H36            0.2093    -5.1431     4.1340 H       
  37 H37           -0.6712    -5.4873     1.8713 H       
  38 H38           -1.9093    -4.4216    -0.8657 H       
  39 H39           -0.6252    -4.9531    -1.9779 H       
  40 H40           -0.8187    -5.7480    -0.3971 H       
  41 H41           -2.2318     3.9146     0.3715 H       
  42 H42           -1.0896     3.5059     1.6781 H       
  43 H43           -0.3334     4.0793    -1.2311 H       
  44 H44           -0.1019     5.1960     0.1393 H       
  45 H45            4.1340    -2.6456     3.6890 H       
  46 H46            4.3440     0.3280     3.7549 H       
  47 H47            5.5491    -0.3675     5.7721 H       
  48 H48            5.9696    -1.9792     5.0464 H       
  49 H49            6.9644     0.8264     4.1665 H       
  50 H50            7.8601    -0.7522     4.0834 H       
  51 H51            6.3227    -1.6393     2.3934 H       
  52 H52            6.0502     0.1149     2.0067 H       
@<TRIPOS>BOND
   1    1    2 ar
   2    1    6 ar
   3    1   20 1
   4    2    3 ar
   5    2   31 1
   6    3    4 ar
   7    3    8 1
   8    4    5 ar
   9    4    7 1
  10    5    6 ar
  11    5   32 1
  12    6   23 1
  13    7    9 1
  14    8    9 1
  15    8   11 1
  16    8   12 1
  17    9   33 1
  18    9   34 1
  19   10   11 ar
  20   10   13 1
  21   10   18 ar
  22   11   15 ar
  23   12   13 am
  24   12   14 2
  25   13   19 1
  26   15   16 ar
  27   15   24 1
  28   16   17 ar
  29   16   35 1
  30   17   18 ar
  31   17   36 1
  32   18   37 1
  33   19   38 1
  34   19   39 1
  35   19   40 1
  36   20   21 1
  37   21   22 1
  38   21   41 1
  39   21   42 1
  40   22   23 1
  41   22   43 1
  42   22   44 1
  43   24   25 am
  44   24   26 2
  45   25   27 1
  46   25   45 1
  47   27   28 1
  48   27   30 1
  49   27   46 1
  50   28   29 1
  51   28   47 1
  52   28   48 1
  53   29   30 1
  54   29   49 1
  55   29   50 1
  56   30   51 1
  57   30   52 1

#	End of record

