#	Name: ASD02398054
#	Creating user name:	WinNT
#	Creation time:	15. 06. 2019 20:20

#	Modifying user name:	WinNT
#	Modification time:	15. 06. 2019 20:20

#	Program:	/corina/corina34_cracker 3.40 0067  02.08.2006

@<TRIPOS>MOLECULE
ASD02398054
  57   60    0    0    0
SMALL
NO_CHARGES


@<TRIPOS>ATOM
   1 C1            -0.0169     1.3915     0.0097 C.ar    
   2 C2             0.0021    -0.0041     0.0020 C.ar    
   3 C3            -1.1979    -0.7113     0.0102 C.ar    
   4 C4            -2.3983    -0.0298     0.0258 C.ar    
   5 C5            -2.4124     1.3533     0.0329 C.ar    
   6 C6            -1.2252     2.0626     0.0306 C.ar    
   7 C7            -3.6967    -0.7947     0.0346 C.3     
   8 C8            -4.1154    -1.0573     1.4582 C.2     
   9 O9            -3.4298    -0.6637     2.3720 O.2     
  10 O10           -5.2500    -1.7284     1.7112 O.3     
  11 C11            1.2951    -0.7313    -0.0152 C.ar    
  12 C12            2.1657    -0.6360     1.0689 C.ar    
  13 C13            1.6410    -1.5167    -1.1128 C.ar    
  14 C14            2.8451    -2.1916    -1.1234 C.ar    
  15 C15            3.7074    -2.0895    -0.0469 C.ar    
  16 C16            3.3669    -1.3149     1.0477 C.ar    
  17 C17            1.7962     0.2074     2.2619 C.3     
  18 N18            0.8678    -0.5395     3.1209 N.3     
  19 C19            0.4848     0.2534     4.2967 C.3     
  20 F20            1.1428     2.0846     0.0023 F       
  21 O21           -0.4415    -1.9154     4.9530 O.3     
  22 C22            0.0618    -0.6755     5.4545 C.3     
  23 C23           -1.0596     0.1359     6.1374 C.3     
  24 C24           -1.6275     1.0208     5.0485 C.ar    
  25 C25           -0.7402     1.0883     3.9910 C.ar    
  26 C26           -2.8263     1.7119     4.9877 C.ar    
  27 C27           -3.1371     2.4676     3.8744 C.ar    
  28 C28           -2.2495     2.5352     2.8166 C.ar    
  29 C29           -1.0533     1.8476     2.8758 C.ar    
  30 C30           -5.5908    -1.9448     3.1059 C.3     
  31 C31            5.0201    -2.8295    -0.0637 C.3     
  32 F32            5.1380    -3.5427    -1.2615 F       
  33 F33            6.0728    -1.9139     0.0394 F       
  34 F34            5.0681    -3.7187     1.0152 F       
  35 H35           -1.1893    -1.7912     0.0039 H       
  36 H36           -3.3544     1.8814     0.0447 H       
  37 H37           -1.2423     3.1425     0.0365 H       
  38 H38           -4.4665    -0.2095    -0.4685 H       
  39 H39           -3.5632    -1.7431    -0.4857 H       
  40 H40            0.9681    -1.5977    -1.9537 H       
  41 H41            3.1142    -2.8007    -1.9736 H       
  42 H42            4.0441    -1.2385     1.8855 H       
  43 H43            2.6960     0.4526     2.8262 H       
  44 H44            1.3182     1.1265     1.9230 H       
  45 H45            0.0536    -0.8344     2.6029 H       
  46 H46            1.3118     0.8921     4.6071 H       
  47 H47           -0.7207    -2.5339     5.6419 H       
  48 H48            0.8932    -0.8451     6.1387 H       
  49 H49           -1.8299    -0.5327     6.5216 H       
  50 H50           -0.6492     0.7442     6.9434 H       
  51 H51           -3.5203     1.6593     5.8135 H       
  52 H52           -4.0729     3.0050     3.8301 H       
  53 H53           -2.4909     3.1259     1.9453 H       
  54 H54           -0.3604     1.9009     2.0491 H       
  55 H55           -6.5281    -2.4976     3.1694 H       
  56 H56           -4.7985    -2.5165     3.5891 H       
  57 H57           -5.7018    -0.9829     3.6064 H       
@<TRIPOS>BOND
   1    1    2 ar
   2    1   20 1
   3    1    6 ar
   4    2    3 ar
   5    2   11 1
   6    3    4 ar
   7    3   35 1
   8    4    5 ar
   9    4    7 1
  10    5    6 ar
  11    5   36 1
  12    6   37 1
  13    7    8 1
  14    7   38 1
  15    7   39 1
  16    8    9 2
  17    8   10 1
  18   10   30 1
  19   11   12 ar
  20   11   13 ar
  21   12   17 1
  22   12   16 ar
  23   13   14 ar
  24   13   40 1
  25   14   15 ar
  26   14   41 1
  27   15   16 ar
  28   15   31 1
  29   16   42 1
  30   17   18 1
  31   17   43 1
  32   17   44 1
  33   18   19 1
  34   18   45 1
  35   19   22 1
  36   19   25 1
  37   19   46 1
  38   21   22 1
  39   21   47 1
  40   22   23 1
  41   22   48 1
  42   23   24 1
  43   23   49 1
  44   23   50 1
  45   24   25 ar
  46   24   26 ar
  47   25   29 ar
  48   26   27 ar
  49   26   51 1
  50   27   28 ar
  51   27   52 1
  52   28   29 ar
  53   28   53 1
  54   29   54 1
  55   30   55 1
  56   30   56 1
  57   30   57 1
  58   31   32 1
  59   31   33 1
  60   31   34 1

#	End of record

