#	Name: ASD01915376
#	Creating user name:	WinNT
#	Creation time:	15. 06. 2019 20:05

#	Modifying user name:	WinNT
#	Modification time:	15. 06. 2019 20:05

#	Program:	/corina/corina34_cracker 3.40 0067  02.08.2006

@<TRIPOS>MOLECULE
ASD01915376
  46   49    0    0    0
SMALL
NO_CHARGES


@<TRIPOS>ATOM
   1 C1            -0.2648     1.3107     1.1515 C.ar    
   2 C2            -0.2547    -0.0226     1.5544 C.ar    
   3 N3             0.8458    -0.7544     1.4364 N.ar    
   4 C4             1.9581    -0.2535     0.9394 C.ar    
   5 C5             2.0189     1.0630     0.5201 C.ar    
   6 C6             0.8904     1.8632     0.6254 C.ar    
   7 C7             3.2985     1.6229    -0.0456 C.3     
   8 N8             4.4319     0.7708     0.3427 N.am    
   9 C9             5.0542     0.2266    -0.8780 C.3     
  10 C10            4.6777     1.2303    -1.9963 C.3     
  11 C11            3.2340     1.6250    -1.5875 C.3     
  12 C12            4.8356     0.5280     1.6054 C.2     
  13 O13            4.3251     1.1260     2.5323 O.2     
  14 C14            5.8993    -0.4658     1.8631 C.ar    
  15 C15           -1.4843    -0.6294     2.1206 C.ar    
  16 C16           -1.4833    -1.9622     2.5262 C.ar    
  17 C17           -2.6312    -2.5218     3.0532 C.ar    
  18 C18           -3.7804    -1.7603     3.1782 C.ar    
  19 C19           -3.7860    -0.4368     2.7763 C.ar    
  20 C20           -2.6431     0.1336     2.2540 C.ar    
  21 Cl21          -2.6327    -4.1825     3.5588 Cl      
  22 C22            0.9218     3.3020     0.1780 C.3     
  23 C23            6.4891    -0.5769     3.1274 C.ar    
  24 N24            7.4366    -1.4791     3.3135 N.ar    
  25 C25            7.8267    -2.2663     2.3301 C.ar    
  26 N26            7.2981    -2.1953     1.1241 N.ar    
  27 C27            6.3409    -1.3259     0.8513 C.ar    
  28 H28           -1.1626     1.9039     1.2440 H       
  29 H29            2.8346    -0.8793     0.8585 H       
  30 H30            3.4539     2.6370     0.3225 H       
  31 H31            6.1369     0.1766    -0.7619 H       
  32 H32            4.6499    -0.7604    -1.1023 H       
  33 H33            5.3386     2.0971    -1.9820 H       
  34 H34            4.6891     0.7484    -2.9739 H       
  35 H35            2.5165     0.8861    -1.9445 H       
  36 H36            2.9850     2.6180    -1.9618 H       
  37 H37           -0.5870    -2.5569     2.4285 H       
  38 H38           -4.6758    -2.2013     3.5906 H       
  39 H39           -4.6856     0.1527     2.8754 H       
  40 H40           -2.6491     1.1671     1.9406 H       
  41 H41            0.6380     3.3620    -0.8727 H       
  42 H42            0.2218     3.8842     0.7773 H       
  43 H43            1.9283     3.7003     0.3058 H       
  44 H44            6.1753     0.0644     3.9377 H       
  45 H45            8.6041    -2.9920     2.5183 H       
  46 H46            5.9126    -1.2739    -0.1388 H       
@<TRIPOS>BOND
   1    1    2 ar
   2    1    6 ar
   3    1   28 1
   4    2    3 ar
   5    2   15 1
   6    3    4 ar
   7    4    5 ar
   8    4   29 1
   9    5    6 ar
  10    5    7 1
  11    6   22 1
  12    7    8 1
  13    7   11 1
  14    7   30 1
  15    8    9 1
  16    8   12 am
  17    9   10 1
  18    9   31 1
  19    9   32 1
  20   10   11 1
  21   10   33 1
  22   10   34 1
  23   11   35 1
  24   11   36 1
  25   12   13 2
  26   12   14 1
  27   14   23 ar
  28   14   27 ar
  29   15   16 ar
  30   15   20 ar
  31   16   17 ar
  32   16   37 1
  33   17   18 ar
  34   17   21 1
  35   18   19 ar
  36   18   38 1
  37   19   20 ar
  38   19   39 1
  39   20   40 1
  40   22   41 1
  41   22   42 1
  42   22   43 1
  43   23   24 ar
  44   23   44 1
  45   24   25 ar
  46   25   26 ar
  47   25   45 1
  48   26   27 ar
  49   27   46 1

#	End of record

