#	Name: ASD05430334
#	Creating user name:	WinNT
#	Creation time:	15. 06. 2019 21:00

#	Modifying user name:	WinNT
#	Modification time:	15. 06. 2019 21:00

#	Program:	/corina/corina34_cracker 3.40 0067  02.08.2006

@<TRIPOS>MOLECULE
ASD05430334
  30   31    0    0    0
SMALL
NO_CHARGES


@<TRIPOS>ATOM
   1 N1            -0.0159     1.3187     0.0093 N.ar    
   2 C2             0.0021    -0.0041     0.0020 C.ar    
   3 C3             1.2071    -0.6955    -0.0132 C.ar    
   4 C4             2.3929     0.0183    -0.0207 C.ar    
   5 C5             2.3309     1.4049    -0.0127 C.ar    
   6 C6             1.0975     2.0261     0.0025 C.ar    
   7 C7             3.5960     2.2239    -0.0198 C.3     
   8 C8             3.6207     3.1132    -1.2646 C.3     
   9 C9             3.6436     3.0997     1.2338 C.3     
  10 N10           -1.2031    -0.7131     0.0102 N.pl3   
  11 C11           -1.3469    -2.0617     0.1001 C.2     
  12 N12           -2.6201    -2.3460     0.0760 N.2     
  13 C13           -3.3277    -1.2110    -0.0283 C.2     
  14 C14           -2.4643    -0.1788    -0.0651 C.2     
  15 C15           -4.8300    -1.1088    -0.0876 C.3     
  16 H16            1.2184    -1.7754    -0.0188 H       
  17 H17            3.3447    -0.4919    -0.0322 H       
  18 H18            1.0438     3.1048     0.0084 H       
  19 H19            4.4593     1.5586    -0.0313 H       
  20 H20            2.7573     3.7784    -1.2531 H       
  21 H21            4.5357     3.7055    -1.2698 H       
  22 H22            3.5868     2.4892    -2.1577 H       
  23 H23            2.7802     3.7649     1.2453 H       
  24 H24            3.6260     2.4661     2.1205 H       
  25 H25            4.5586     3.6920     1.2286 H       
  26 H26           -0.5423    -2.7778     0.1783 H       
  27 H27           -2.7161     0.8684    -0.1453 H       
  28 H28           -5.2277    -1.0116     0.9227 H       
  29 H29           -5.1119    -0.2347    -0.6746 H       
  30 H30           -5.2372    -2.0061    -0.5535 H       
@<TRIPOS>BOND
   1    1    2 ar
   2    1    6 ar
   3    2    3 ar
   4    2   10 1
   5    3    4 ar
   6    3   16 1
   7    4    5 ar
   8    4   17 1
   9    5    6 ar
  10    5    7 1
  11    6   18 1
  12    7    8 1
  13    7    9 1
  14    7   19 1
  15    8   20 1
  16    8   21 1
  17    8   22 1
  18    9   23 1
  19    9   24 1
  20    9   25 1
  21   10   11 1
  22   10   14 1
  23   11   12 2
  24   11   26 1
  25   12   13 1
  26   13   14 2
  27   13   15 1
  28   14   27 1
  29   15   28 1
  30   15   29 1
  31   15   30 1

#	End of record

