#	Name: ASD04122026
#	Creating user name:	WinNT
#	Creation time:	15. 06. 2019 20:48

#	Modifying user name:	WinNT
#	Modification time:	15. 06. 2019 20:48

#	Program:	/corina/corina34_cracker 3.40 0067  02.08.2006

@<TRIPOS>MOLECULE
ASD04122026
  57   61    0    0    0
SMALL
NO_CHARGES


@<TRIPOS>ATOM
   1 C1             0.0210     2.2275     0.0258 C.ar    
   2 C2             0.4446     0.9189     0.2786 C.ar    
   3 N3            -0.4577    -0.1328     0.4974 N.pl3   
   4 C4            -1.7124    -0.3300    -0.0213 C.2     
   5 C5            -2.5076     0.5408    -0.8037 C.2     
   6 C6            -2.0642     1.9264    -1.1023 C.3     
   7 O7            -1.2921     2.4863    -0.0694 O.3     
   8 C8            -0.1542    -1.2001     1.2946 C.2     
   9 C9            -1.1609    -2.1025     1.2319 C.2     
  10 C10           -2.1510    -1.5811     0.4023 C.2     
  11 C11            0.9561     3.2346    -0.1505 C.ar    
  12 C12            2.3067     2.9505    -0.0922 C.ar    
  13 C13            2.7301     1.6550     0.1426 C.ar    
  14 C14            1.8074     0.6460     0.3268 C.ar    
  15 C15           -1.2464     1.9136    -2.3680 C.ar    
  16 C16           -0.5145     3.0293    -2.7294 C.ar    
  17 C17            0.2356     3.0175    -3.8904 C.ar    
  18 C18            0.2542     1.8900    -4.6899 C.ar    
  19 C19           -0.4769     0.7740    -4.3281 C.ar    
  20 C20           -1.2236     0.7842    -3.1648 C.ar    
  21 O21           -3.5711     0.1480    -1.2390 O.2     
  22 C22           -3.3004     2.8004    -1.3234 C.3     
  23 C23           -4.1224     2.8568    -0.0342 C.3     
  24 C24            1.0712     1.8775    -5.9562 C.3     
  25 S25            2.7431     1.2757    -5.5912 S.3     
  26 C26            3.5362     1.3305    -7.1636 C.ar    
  27 C27            4.2078     2.4797    -7.5659 C.ar    
  28 C28            4.8289     2.5184    -8.7997 C.ar    
  29 C29            4.7824     1.4163    -9.6336 C.ar    
  30 C30            4.1148     0.2719    -9.2366 C.ar    
  31 C31            3.4970     0.2235    -8.0024 C.ar    
  32 Cl32           4.2655     3.8640    -6.5198 Cl      
  33 C33            2.7704    -1.0243    -7.5711 C.3     
  34 H34            0.7462    -1.3069     1.8814 H       
  35 H35           -1.1914    -3.0572     1.7358 H       
  36 H36           -3.0835    -2.0576     0.1380 H       
  37 H37            0.6274     4.2468    -0.3346 H       
  38 H38            3.0313     3.7393    -0.2304 H       
  39 H39            3.7862     1.4325     0.1816 H       
  40 H40            2.1458    -0.3631     0.5097 H       
  41 H41           -0.5291     3.9102    -2.1048 H       
  42 H42            0.8068     3.8894    -4.1731 H       
  43 H43           -0.4626    -0.1068    -4.9529 H       
  44 H44           -1.7948    -0.0877    -2.8821 H       
  45 H45           -2.9886     3.8076    -1.5998 H       
  46 H46           -3.9074     2.3756    -2.1230 H       
  47 H47           -4.4342     1.8496     0.2423 H       
  48 H48           -3.5154     3.2815     0.7654 H       
  49 H49           -5.0031     3.4794    -0.1917 H       
  50 H50            0.5997     1.2198    -6.6863 H       
  51 H51            1.1291     2.8878    -6.3612 H       
  52 H52            5.3508     3.4105    -9.1132 H       
  53 H53            5.2683     1.4493   -10.5976 H       
  54 H54            4.0801    -0.5866    -9.8909 H       
  55 H55            3.4617    -1.6846    -7.0474 H       
  56 H56            1.9502    -0.7554    -6.9055 H       
  57 H57            2.3738    -1.5354    -8.4483 H       
@<TRIPOS>BOND
   1    1    2 ar
   2    1   11 ar
   3    1    7 1
   4    2    3 1
   5    2   14 ar
   6    3    8 1
   7    3    4 1
   8    4    5 1
   9    4   10 2
  10    5   21 2
  11    5    6 1
  12    6    7 1
  13    6   15 1
  14    6   22 1
  15    8    9 2
  16    8   34 1
  17    9   10 1
  18    9   35 1
  19   10   36 1
  20   11   12 ar
  21   11   37 1
  22   12   13 ar
  23   12   38 1
  24   13   14 ar
  25   13   39 1
  26   14   40 1
  27   15   16 ar
  28   15   20 ar
  29   16   17 ar
  30   16   41 1
  31   17   18 ar
  32   17   42 1
  33   18   19 ar
  34   18   24 1
  35   19   20 ar
  36   19   43 1
  37   20   44 1
  38   22   23 1
  39   22   45 1
  40   22   46 1
  41   23   47 1
  42   23   48 1
  43   23   49 1
  44   24   25 1
  45   24   50 1
  46   24   51 1
  47   25   26 1
  48   26   27 ar
  49   26   31 ar
  50   27   28 ar
  51   27   32 1
  52   28   29 ar
  53   28   52 1
  54   29   30 ar
  55   29   53 1
  56   30   31 ar
  57   30   54 1
  58   31   33 1
  59   33   55 1
  60   33   56 1
  61   33   57 1

#	End of record

