#	Name: ASD02039471
#	Creating user name:	WinNT
#	Creation time:	15. 06. 2019 20:18

#	Modifying user name:	WinNT
#	Modification time:	15. 06. 2019 20:18

#	Program:	/corina/corina34_cracker 3.40 0067  02.08.2006

@<TRIPOS>MOLECULE
ASD02039471
  47   49    0    0    0
SMALL
NO_CHARGES


@<TRIPOS>ATOM
   1 C1            -0.3135     1.5203    -0.5368 C.ar    
   2 C2            -0.5010     0.1646    -0.7656 C.ar    
   3 C3             1.0609     2.0715    -0.2573 C.3     
   4 N4             1.7301     2.3801    -1.5234 N.am    
   5 C5             1.5133     3.5644    -2.1291 C.2     
   6 C6             2.2713     3.9218    -3.3408 C.2     
   7 C7             2.1506     5.0773    -4.0559 C.2     
   8 N8             3.2213     3.1638    -3.9457 N.2     
   9 C9             3.6703     3.8035    -4.9867 C.2     
  10 N10            3.0266     4.9958    -5.0848 N.pl3   
  11 O11            0.6918     4.3381    -1.6754 O.2     
  12 C12            3.2413     6.0109    -6.1191 C.3     
  13 C13            2.6350     1.4014    -2.1312 C.3     
  14 C14           -1.7745    -0.3105    -1.0198 C.ar    
  15 C15           -2.6700     1.8099    -0.8440 C.ar    
  16 C16           -1.4164     2.3559    -0.5768 C.ar    
  17 C17           -3.8616     2.6918    -0.8904 C.ar    
  18 C18           -5.1194     2.1537    -1.1570 C.ar    
  19 C19           -6.2250     2.9777    -1.1992 C.ar    
  20 C20           -6.0864     4.3384    -0.9770 C.ar    
  21 C21           -4.8379     4.8776    -0.7116 C.ar    
  22 C22           -3.7277     4.0603    -0.6618 C.ar    
  23 N23           -2.8081     0.5060    -1.0472 N.ar    
  24 C24            2.9782     0.3186    -1.1061 C.3     
  25 F25           -7.1718     5.1418    -1.0197 F       
  26 F26            1.6801     1.7436    -4.2982 F       
  27 F27            2.8006    -0.2062    -3.8957 F       
  28 C28            1.9539     0.7600    -3.3418 C.3     
  29 F29            0.7582     0.1561    -2.9385 F       
  30 H30            0.3397    -0.5130    -0.7456 H       
  31 H31            0.9737     2.9801     0.3385 H       
  32 H32            1.6443     1.3320     0.2913 H       
  33 H33            1.4837     5.8995    -3.8423 H       
  34 H34            4.4335     3.4454    -5.6617 H       
  35 H35            2.5701     5.8233    -6.9572 H       
  36 H36            3.0392     6.9990    -5.7058 H       
  37 H37            4.2744     5.9656    -6.4638 H       
  38 H38            3.5492     1.9014    -2.4512 H       
  39 H39           -1.9238    -1.3651    -1.1986 H       
  40 H40           -1.3054     3.4174    -0.4113 H       
  41 H41           -5.2283     1.0934    -1.3306 H       
  42 H42           -7.2000     2.5617    -1.4061 H       
  43 H43           -4.7344     5.9388    -0.5394 H       
  44 H44           -2.7550     4.4813    -0.4545 H       
  45 H45            2.0585    -0.1251    -0.7247 H       
  46 H46            3.5839    -0.4529    -1.5814 H       
  47 H47            3.5365     0.7625    -0.2818 H       
@<TRIPOS>BOND
   1    1    2 ar
   2    1    3 1
   3    1   16 ar
   4    2   14 ar
   5    2   30 1
   6    3    4 1
   7    3   31 1
   8    3   32 1
   9    4    5 am
  10    4   13 1
  11    5    6 1
  12    5   11 2
  13    6    7 2
  14    6    8 1
  15    7   10 1
  16    7   33 1
  17    8    9 2
  18    9   10 1
  19    9   34 1
  20   10   12 1
  21   12   35 1
  22   12   36 1
  23   12   37 1
  24   13   24 1
  25   13   28 1
  26   13   38 1
  27   14   23 ar
  28   14   39 1
  29   15   16 ar
  30   15   17 1
  31   15   23 ar
  32   16   40 1
  33   17   18 ar
  34   17   22 ar
  35   18   19 ar
  36   18   41 1
  37   19   20 ar
  38   19   42 1
  39   20   21 ar
  40   20   25 1
  41   21   22 ar
  42   21   43 1
  43   22   44 1
  44   24   45 1
  45   24   46 1
  46   24   47 1
  47   26   28 1
  48   27   28 1
  49   28   29 1

#	End of record

