#	Name: ASD07030036
#	Creating user name:	WinNT
#	Creation time:	15. 06. 2019 21:08

#	Modifying user name:	WinNT
#	Modification time:	15. 06. 2019 21:08

#	Program:	/corina/corina34_cracker 3.40 0067  02.08.2006

@<TRIPOS>MOLECULE
ASD07030036
  35   37    0    0    0
SMALL
NO_CHARGES


@<TRIPOS>ATOM
   1 C1            -0.0187     1.5258     0.0104 C.3     
   2 C2             0.0021    -0.0041     0.0020 C.3     
   3 C3             1.3165     0.7789    -0.0063 C.3     
   4 N4            -0.4313     2.2053    -1.2248 N.3     
   5 C5            -0.3780    -0.7121     1.2769 C.ar    
   6 C6            -1.4567    -1.5770     1.2908 C.ar    
   7 C7            -1.8071    -2.2272     2.4581 C.ar    
   8 C8            -1.0757    -2.0119     3.6171 C.ar    
   9 C9             0.0062    -1.1437     3.6006 C.ar    
  10 C10            0.3560    -0.5002     2.4293 C.ar    
  11 O11           -1.4187    -2.6501     4.7669 O.3     
  12 C12           -0.6209    -2.3805     5.9214 C.3     
  13 C13           -1.1471    -3.1711     7.0914 C.ar    
  14 C14           -0.6642    -4.4424     7.3398 C.ar    
  15 C15           -1.1470    -5.1676     8.4130 C.ar    
  16 C16           -2.1122    -4.6215     9.2382 C.ar    
  17 C17           -2.5945    -3.3499     8.9904 C.ar    
  18 C18           -2.1086    -2.6230     7.9197 C.ar    
  19 H19           -0.3072     2.0201     0.9381 H       
  20 H20           -0.2904    -0.5063    -0.9201 H       
  21 H21            1.8888     0.7918    -0.9339 H       
  22 H22            1.9064     0.7818     0.9103 H       
  23 H23           -0.4095     3.2076    -1.1107 H       
  24 H24            0.1412     1.9176    -2.0043 H       
  25 H25           -2.0260    -1.7440     0.3883 H       
  26 H26           -2.6500    -2.9024     2.4686 H       
  27 H27            0.5772    -0.9744     4.5015 H       
  28 H28            1.2011     0.1722     2.4147 H       
  29 H29            0.4121    -2.6672     5.7242 H       
  30 H30           -0.6647    -1.3163     6.1528 H       
  31 H31            0.0899    -4.8691     6.6951 H       
  32 H32           -0.7702    -6.1611     8.6067 H       
  33 H33           -2.4899    -5.1884    10.0763 H       
  34 H34           -3.3489    -2.9234     9.6348 H       
  35 H35           -2.4827    -1.6281     7.7282 H       
@<TRIPOS>BOND
   1    1    2 1
   2    1    3 1
   3    1    4 1
   4    1   19 1
   5    2    3 1
   6    2    5 1
   7    2   20 1
   8    3   21 1
   9    3   22 1
  10    4   23 1
  11    4   24 1
  12    5    6 ar
  13    5   10 ar
  14    6    7 ar
  15    6   25 1
  16    7    8 ar
  17    7   26 1
  18    8    9 ar
  19    8   11 1
  20    9   10 ar
  21    9   27 1
  22   10   28 1
  23   11   12 1
  24   12   13 1
  25   12   29 1
  26   12   30 1
  27   13   14 ar
  28   13   18 ar
  29   14   15 ar
  30   14   31 1
  31   15   16 ar
  32   15   32 1
  33   16   17 ar
  34   16   33 1
  35   17   18 ar
  36   17   34 1
  37   18   35 1

#	End of record

