#	Name: ASD01320010
#	Creating user name:	WinNT
#	Creation time:	15. 06. 2019 19:15

#	Modifying user name:	WinNT
#	Modification time:	15. 06. 2019 19:15

#	Program:	/corina/corina34_cracker 3.40 0067  02.08.2006

@<TRIPOS>MOLECULE
ASD01320010
  54   57    0    0    0
SMALL
NO_CHARGES


@<TRIPOS>ATOM
   1 C1            -0.1354     1.7621    -0.3549 C.ar    
   2 C2            -0.0556     0.3764    -0.4298 C.ar    
   3 C3            -1.1955    -0.3951    -0.3907 C.ar    
   4 C4            -2.4410     0.2153    -0.2747 C.ar    
   5 C5            -2.5197     1.6198    -0.1985 C.ar    
   6 C6            -1.3457     2.3831    -0.2351 C.ar    
   7 N7            -3.7254    -0.2722    -0.2110 N.pl3   
   8 C8            -4.5996     0.7913    -0.0972 C.2     
   9 C9            -3.8918     1.9510    -0.0874 C.2     
  10 C10           -6.0633     0.6852    -0.0019 C.2     
  11 N11           -6.6539    -0.5261    -0.0224 N.am    
  12 C12           -8.1120    -0.6318     0.0726 C.3     
  13 C13           -8.7267    -0.4712    -1.3193 C.3     
  14 C14           -8.4728     0.9266    -1.8223 C.ar    
  15 C15           -7.3293     1.2022    -2.5486 C.ar    
  16 C16           -7.0957     2.4835    -3.0107 C.ar    
  17 C17           -8.0075     3.4913    -2.7460 C.ar    
  18 C18           -9.1524     3.2141    -2.0185 C.ar    
  19 C19           -9.3865     1.9309    -1.5619 C.ar    
  20 C20           -8.4824    -1.9809     0.6326 C.2     
  21 O21           -7.6940    -2.9005     0.5707 O.2     
  22 N22           -9.6898    -2.1656     1.2024 N.am    
  23 C23          -10.1101    -3.5005     1.6498 C.3     
  24 C24          -11.4660    -3.8284     1.0168 C.3     
  25 C25          -12.4611    -2.7131     1.3456 C.3     
  26 C26          -11.9608    -1.3914     0.7583 C.3     
  27 C27          -10.6082    -1.0349     1.3935 C.3     
  28 O28           -6.7410     1.6907     0.0954 O.2     
  29 F29           -7.7799     4.7444    -3.1969 F       
  30 O30          -13.7358    -3.0315     0.7839 O.3     
  31 Cl31           1.3171     2.7114    -0.4070 Cl      
  32 H32            0.9096    -0.0996    -0.5199 H       
  33 H33           -1.1234    -1.4711    -0.4503 H       
  34 H34           -1.3983     3.4603    -0.1771 H       
  35 H35           -3.9762    -1.2087    -0.2410 H       
  36 H36           -4.3021     2.9469    -0.0084 H       
  37 H37           -6.1135    -1.3279    -0.1000 H       
  38 H38           -8.4910     0.1509     0.7297 H       
  39 H39           -8.2740    -1.1906    -2.0016 H       
  40 H40           -9.8008    -0.6482    -1.2647 H       
  41 H41           -6.6181     0.4160    -2.7546 H       
  42 H42           -6.2021     2.6987    -3.5778 H       
  43 H43           -9.8643     3.9994    -1.8115 H       
  44 H44          -10.2795     1.7143    -0.9944 H       
  45 H45           -9.3725    -4.2397     1.3371 H       
  46 H46          -10.2020    -3.5098     2.7358 H       
  47 H47          -11.3531    -3.9081    -0.0644 H       
  48 H48          -11.8344    -4.7737     1.4152 H       
  49 H49          -12.5548    -2.6174     2.4274 H       
  50 H50          -11.8432    -1.4940    -0.3204 H       
  51 H51          -12.6814    -0.6021     0.9728 H       
  52 H52          -10.7436    -0.8430     2.4579 H       
  53 H53          -10.1996    -0.1479     0.9092 H       
  54 H54          -14.4174    -2.3668     0.9533 H       
@<TRIPOS>BOND
   1    1    2 ar
   2    1   31 1
   3    1    6 ar
   4    2    3 ar
   5    2   32 1
   6    3    4 ar
   7    3   33 1
   8    4    5 ar
   9    4    7 1
  10    5    6 ar
  11    5    9 1
  12    6   34 1
  13    7    8 1
  14    7   35 1
  15    8    9 2
  16    8   10 1
  17    9   36 1
  18   10   11 am
  19   10   28 2
  20   11   12 1
  21   11   37 1
  22   12   20 1
  23   12   13 1
  24   12   38 1
  25   13   14 1
  26   13   39 1
  27   13   40 1
  28   14   15 ar
  29   14   19 ar
  30   15   16 ar
  31   15   41 1
  32   16   17 ar
  33   16   42 1
  34   17   18 ar
  35   17   29 1
  36   18   19 ar
  37   18   43 1
  38   19   44 1
  39   20   21 2
  40   20   22 am
  41   22   23 1
  42   22   27 1
  43   23   24 1
  44   23   45 1
  45   23   46 1
  46   24   25 1
  47   24   47 1
  48   24   48 1
  49   25   26 1
  50   25   30 1
  51   25   49 1
  52   26   27 1
  53   26   50 1
  54   26   51 1
  55   27   52 1
  56   27   53 1
  57   30   54 1

#	End of record

