#	Name: ASD08710128
#	Creating user name:	WinNT
#	Creation time:	15. 06. 2019 21:19

#	Modifying user name:	WinNT
#	Modification time:	15. 06. 2019 21:19

#	Program:	/corina/corina34_cracker 3.40 0067  02.08.2006

@<TRIPOS>MOLECULE
ASD08710128
  50   51    0    0    0
SMALL
NO_CHARGES


@<TRIPOS>ATOM
   1 N1            -0.0179     1.4654     0.0101 N.am    
   2 C2             0.0021    -0.0041     0.0020 C.3     
   3 C3             0.8261    -0.4764    -1.2022 C.3     
   4 N4             2.1040     0.2493    -1.2105 N.am    
   5 C5             2.0841     1.7188    -1.2024 C.3     
   6 C6             1.2601     2.1912     0.0018 C.3     
   7 C7            -1.1872     2.1355     0.0193 C.2     
   8 O8            -2.2375     1.5246     0.0210 O.2     
   9 O9            -1.1915     3.4819     0.0266 O.3     
  10 C10            0.6414    -0.5160     1.2943 C.3     
  11 S11            3.5407    -0.5740    -1.2281 S.o2    
  12 O12            4.5153     0.3081    -0.6883 O.2     
  13 O13            3.2726    -1.8605    -0.6876 O.2     
  14 C14            3.9775    -0.8248    -2.9166 C.ar    
  15 C15            3.1884    -1.6238    -3.7232 C.ar    
  16 C16            3.5305    -1.8208    -5.0476 C.ar    
  17 C17            4.6626    -1.2181    -5.5664 C.ar    
  18 C18            5.4514    -0.4186    -4.7592 C.ar    
  19 C19            5.1057    -0.2182    -3.4358 C.ar    
  20 C20            1.9552    -2.2802    -3.1580 C.3     
  21 Br21           5.1317    -1.4878    -7.3783 Br      
  22 C22           -2.4873     4.1369     0.0364 C.3     
  23 C23           -3.2619     3.7165     1.2870 C.3     
  24 C24           -2.2917     5.6543     0.0437 C.3     
  25 C25           -3.2738     3.7300    -1.2114 C.3     
  26 H26           -1.0165    -0.3833    -0.0803 H       
  27 H27            1.0139    -1.5469    -1.1197 H       
  28 H28            0.2810    -0.2679    -2.1228 H       
  29 H29            3.1027     2.0980    -1.1201 H       
  30 H30            1.6286     2.0836    -2.1231 H       
  31 H31            1.0723     3.2617    -0.0807 H       
  32 H32            1.8051     1.9827     0.9224 H       
  33 H33            0.0627    -0.1665     2.1493 H       
  34 H34            0.6551    -1.6059     1.2859 H       
  35 H35            1.6620    -0.1405     1.3683 H       
  36 H36            2.9144    -2.4454    -5.6774 H       
  37 H37            6.3353     0.0521    -5.1638 H       
  38 H38            5.7195     0.4091    -2.8065 H       
  39 H39            1.0992    -1.6181    -3.2878 H       
  40 H40            1.7711    -3.2187    -3.6809 H       
  41 H41            2.1034    -2.4787    -2.0965 H       
  42 H42           -2.7016     4.0063     2.1759 H       
  43 H43           -4.2347     4.2082     1.2943 H       
  44 H44           -3.4013     2.6354     1.2818 H       
  45 H45           -1.7399     5.9538    -0.8473 H       
  46 H46           -3.2645     6.1460     0.0510 H       
  47 H47           -1.7314     5.9441     0.9326 H       
  48 H48           -3.4131     2.6490    -1.2166 H       
  49 H49           -4.2466     4.2218    -1.2041 H       
  50 H50           -2.7220     4.0295    -2.1024 H       
@<TRIPOS>BOND
   1    1    2 1
   2    1    6 1
   3    1    7 am
   4    2    3 1
   5    2   10 1
   6    2   26 1
   7    3    4 1
   8    3   27 1
   9    3   28 1
  10    4    5 1
  11    4   11 am
  12    5    6 1
  13    5   29 1
  14    5   30 1
  15    6   31 1
  16    6   32 1
  17    7    8 2
  18    7    9 1
  19    9   22 1
  20   10   33 1
  21   10   34 1
  22   10   35 1
  23   11   12 2
  24   11   13 2
  25   11   14 1
  26   14   15 ar
  27   14   19 ar
  28   15   16 ar
  29   15   20 1
  30   16   17 ar
  31   16   36 1
  32   17   18 ar
  33   17   21 1
  34   18   19 ar
  35   18   37 1
  36   19   38 1
  37   20   39 1
  38   20   40 1
  39   20   41 1
  40   22   23 1
  41   22   24 1
  42   22   25 1
  43   23   42 1
  44   23   43 1
  45   23   44 1
  46   24   45 1
  47   24   46 1
  48   24   47 1
  49   25   48 1
  50   25   49 1
  51   25   50 1

#	End of record

