#	Name: ASD01816687
#	Creating user name:	WinNT
#	Creation time:	15. 06. 2019 19:35

#	Modifying user name:	WinNT
#	Modification time:	15. 06. 2019 19:35

#	Program:	/corina/corina34_cracker 3.40 0067  02.08.2006

@<TRIPOS>MOLECULE
ASD01816687
  60   64    0    0    0
SMALL
NO_CHARGES


@<TRIPOS>ATOM
   1 C1            -0.0167     1.3960     0.0150 C.2     
   2 C2             0.0025    -0.0052    -0.0029 C.2     
   3 C3             1.1989    -0.6602    -0.0250 C.2     
   4 C4             2.3921     0.0815    -0.0293 C.2     
   5 N5             2.3439     1.4491    -0.0111 N.am    
   6 C6             1.1421     2.0927     0.0105 C.2     
   7 C7             3.6230    -0.5886    -0.0518 C.2     
   8 C8             4.7879     0.1231    -0.0563 C.2     
   9 C9             4.7340     1.5284    -0.0380 C.2     
  10 C10            3.4813     2.1731    -0.0152 C.2     
  11 C11            3.6604    -2.0950    -0.0707 C.3     
  12 O12            3.4256     3.3913     0.0007 O.2     
  13 C13            5.9710     2.3159    -0.0418 C.2     
  14 N14            7.1647     1.6963     0.0459 N.am    
  15 O15            5.9198     3.5292    -0.1241 O.2     
  16 N16            3.7772    -2.5646    -1.4577 N.3     
  17 C17            4.0539    -4.0061    -1.5038 C.3     
  18 C18            4.3128    -4.4312    -2.9509 C.3     
  19 C19            3.0837    -4.1011    -3.8023 C.3     
  20 C20            2.7882    -2.6022    -3.6985 C.3     
  21 C21            2.5736    -2.2301    -2.2296 C.3     
  22 C22            3.3551    -4.4624    -5.2400 C.ar    
  23 N23            4.5928    -4.6935    -5.6313 N.ar    
  24 C24            1.9256    -4.8659    -3.3117 C.1     
  25 N25            1.0319    -5.4561    -2.9331 N.1     
  26 C26            4.8776    -5.0128    -6.8789 C.ar    
  27 C27            3.8783    -5.1164    -7.8276 C.ar    
  28 C28            2.5640    -4.8805    -7.4534 C.ar    
  29 C29            2.3029    -4.5533    -6.1318 C.ar    
  30 C30            8.4025     2.4710    -0.0711 C.3     
  31 C31            9.6076     1.8154     0.6237 C.3     
  32 C32           10.4488     2.2679    -0.5815 C.3     
  33 C33            9.1461     2.2474    -1.3985 C.3     
  34 H34           -0.9603     1.9212     0.0281 H       
  35 H35           -0.9228    -0.5622     0.0011 H       
  36 H36            1.2286    -1.7397    -0.0386 H       
  37 H37            1.1154     3.1723     0.0246 H       
  38 H38            5.7397    -0.3869    -0.0733 H       
  39 H39            4.5178    -2.4444     0.5046 H       
  40 H40            2.7435    -2.4868     0.3696 H       
  41 H41            7.2041     0.7373     0.1865 H       
  42 H42            4.9327    -4.2267    -0.8977 H       
  43 H43            3.1963    -4.5532    -1.1123 H       
  44 H44            5.1787    -3.8945    -3.3385 H       
  45 H45            4.5028    -5.5039    -2.9867 H       
  46 H46            3.6302    -2.0368    -4.0978 H       
  47 H47            1.8889    -2.3683    -4.2683 H       
  48 H48            1.7229    -2.7856    -1.8348 H       
  49 H49            2.3771    -1.1609    -2.1508 H       
  50 H50            5.9037    -5.1949    -7.1623 H       
  51 H51            4.1179    -5.3775    -8.8479 H       
  52 H52            1.7625    -4.9538    -8.1735 H       
  53 H53            1.2912    -4.3634    -5.8051 H       
  54 H54            8.2698     3.5222     0.1848 H       
  55 H55            9.8890     2.2994     1.5589 H       
  56 H56            9.5229     0.7325     0.7151 H       
  57 H57           10.8763     3.2639    -0.4663 H       
  58 H58           11.1797     1.5275    -0.9065 H       
  59 H59            8.9352     1.2826    -1.8599 H       
  60 H60            9.0548     3.0801    -2.0958 H       
@<TRIPOS>BOND
   1    1    2 1
   2    1    6 2
   3    1   34 1
   4    2    3 2
   5    2   35 1
   6    3    4 1
   7    3   36 1
   8    4    5 1
   9    4    7 2
  10    5    6 1
  11    5   10 am
  12    6   37 1
  13    7    8 1
  14    7   11 1
  15    8    9 2
  16    8   38 1
  17    9   10 1
  18    9   13 1
  19   10   12 2
  20   11   16 1
  21   11   39 1
  22   11   40 1
  23   13   14 am
  24   13   15 2
  25   14   30 1
  26   14   41 1
  27   16   17 1
  28   16   21 1
  29   17   18 1
  30   17   42 1
  31   17   43 1
  32   18   19 1
  33   18   44 1
  34   18   45 1
  35   19   20 1
  36   19   22 1
  37   19   24 1
  38   20   21 1
  39   20   46 1
  40   20   47 1
  41   21   48 1
  42   21   49 1
  43   22   23 ar
  44   22   29 ar
  45   23   26 ar
  46   24   25 3
  47   26   27 ar
  48   26   50 1
  49   27   28 ar
  50   27   51 1
  51   28   29 ar
  52   28   52 1
  53   29   53 1
  54   30   31 1
  55   30   33 1
  56   30   54 1
  57   31   32 1
  58   31   55 1
  59   31   56 1
  60   32   33 1
  61   32   57 1
  62   32   58 1
  63   33   59 1
  64   33   60 1

#	End of record

