#	Name: ASD04550001
#	Creating user name:	WinNT
#	Creation time:	15. 06. 2019 20:49

#	Modifying user name:	WinNT
#	Modification time:	15. 06. 2019 20:49

#	Program:	/corina/corina34_cracker 3.40 0067  02.08.2006

@<TRIPOS>MOLECULE
ASD04550001
  39   39    0    0    0
SMALL
NO_CHARGES


@<TRIPOS>ATOM
   1 C1            -0.0167     1.3781     0.0096 C.ar    
   2 C2             0.0021    -0.0041     0.0020 C.ar    
   3 C3             1.2084    -0.6789    -0.0132 C.ar    
   4 C4             2.3960     0.0285    -0.0212 C.ar    
   5 C5             2.3773     1.4107    -0.0145 C.ar    
   6 C6             1.1710     2.0855     0.0021 C.ar    
   7 C7            -1.2926    -0.7753     0.0108 C.3     
   8 C8            -1.7452    -1.0285    -1.4286 C.3     
   9 C9            -2.9909    -1.9168    -1.4228 C.3     
  10 C10           -2.0732     0.3055    -2.1023 C.3     
  11 C11            3.6720     2.1819    -0.0228 C.3     
  12 C12            3.7514     3.0435     1.2111 C.2     
  13 C13            3.7296     3.0684    -1.2685 C.3     
  14 N14            4.8287     3.8264     1.4181 N.pl3   
  15 O15            2.8458     3.0324     2.0177 O.2     
  16 S16            4.9160     4.7732     2.7740 S.o2    
  17 C17            6.5078     5.6303     2.6259 C.3     
  18 O18            3.8403     5.6906     2.6305 O.2     
  19 O19            4.9480     3.8441     3.8487 O.2     
  20 H20           -0.9592     1.9054     0.0170 H       
  21 H21            1.2231    -1.7588    -0.0184 H       
  22 H22            3.3386    -0.4987    -0.0324 H       
  23 H23            1.1563     3.1654     0.0069 H       
  24 H24           -1.1443    -1.7285     0.5181 H       
  25 H25           -2.0550    -0.1993     0.5353 H       
  26 H26           -0.9464    -1.5264    -1.9784 H       
  27 H27           -3.7896    -1.4189    -0.8731 H       
  28 H28           -3.3132    -2.0972    -2.4483 H       
  29 H29           -2.7572    -2.8672    -0.9429 H       
  30 H30           -1.1857     0.9383    -2.1065 H       
  31 H31           -2.3956     0.1251    -3.1278 H       
  32 H32           -2.8719     0.8034    -1.5526 H       
  33 H33            4.5100     1.4850    -0.0338 H       
  34 H34            4.6661     3.6262    -1.2744 H       
  35 H35            3.6722     2.4453    -2.1609 H       
  36 H36            2.8916     3.7654    -1.2575 H       
  37 H37            6.5164     6.2255     1.7127 H       
  38 H38            6.6501     6.2836     3.4867 H       
  39 H39            7.3133     4.8970     2.5892 H       
@<TRIPOS>BOND
   1    1    2 ar
   2    1    6 ar
   3    1   20 1
   4    2    3 ar
   5    2    7 1
   6    3    4 ar
   7    3   21 1
   8    4    5 ar
   9    4   22 1
  10    5    6 ar
  11    5   11 1
  12    6   23 1
  13    7    8 1
  14    7   24 1
  15    7   25 1
  16    8    9 1
  17    8   10 1
  18    8   26 1
  19    9   27 1
  20    9   28 1
  21    9   29 1
  22   10   30 1
  23   10   31 1
  24   10   32 1
  25   11   12 1
  26   11   13 1
  27   11   33 1
  28   12   14 1
  29   12   15 2
  30   13   34 1
  31   13   35 1
  32   13   36 1
  33   14   16 1
  34   16   17 1
  35   16   18 2
  36   16   19 2
  37   17   37 1
  38   17   38 1
  39   17   39 1

#	End of record

