#	Name: ASD07930058
#	Creating user name:	WinNT
#	Creation time:	15. 06. 2019 21:11

#	Modifying user name:	WinNT
#	Modification time:	15. 06. 2019 21:11

#	Program:	/corina/corina34_cracker 3.40 0067  02.08.2006

@<TRIPOS>MOLECULE
ASD07930058
  51   53    0    0    0
SMALL
NO_CHARGES


@<TRIPOS>ATOM
   1 C1            -0.5563     1.9775    -0.1765 C.ar    
   2 C2             0.9168     2.2710    -0.0554 C.3     
   3 C3             1.1194     3.6877     0.4915 C.3     
   4 C4             0.8307     4.6998    -0.5820 C.2     
   5 N5             0.8744     4.3965    -1.8876 N.am    
   6 C6             1.1290     3.1169    -2.3141 C.2     
   7 N7             1.5499     2.2000    -1.3846 N.pl3   
   8 C8             1.5709     1.2556     0.8838 C.3     
   9 N9             0.9726     2.7771    -3.5852 N.2     
  10 O10            0.5475     5.8324    -0.2552 O.2     
  11 C11            0.6454     5.4515    -2.8780 C.3     
  12 C12           -1.0401     1.3113    -1.2884 C.ar    
  13 C13           -2.3961     1.0418    -1.3986 C.ar    
  14 C14           -3.2637     1.4393    -0.3968 C.ar    
  15 C15           -2.7794     2.1049     0.7139 C.ar    
  16 C16           -1.4254     2.3693     0.8276 C.ar    
  17 C17            2.5439     3.8451     0.9572 C.ar    
  18 C18            2.8091     4.1560     2.2778 C.ar    
  19 C19            4.1158     4.3004     2.7049 C.ar    
  20 C20            5.1574     4.1334     1.8116 C.ar    
  21 C21            4.8923     3.8216     0.4912 C.ar    
  22 C22            3.5857     3.6729     0.0651 C.ar    
  23 F23           -0.1923     0.9239    -2.2663 F       
  24 F24           -2.8697     0.3918    -2.4841 F       
  25 F25           -0.9533     3.0198     1.9135 F       
  26 C26            0.2684     3.5596    -4.4023 C.2     
  27 C27            0.8723     4.0311    -5.7000 C.3     
  28 F28           -0.0508     4.8331    -6.3797 F       
  29 F29            2.0281     4.7732    -5.4341 F       
  30 F30            1.2002     2.9247    -6.4910 F       
  31 O31           -0.8607     3.8930    -4.1010 O.2     
  32 S32            6.8684     4.3237     2.3706 Du      
  33 F33            7.2779     2.9869     1.5723 F       
  34 F34            6.4589     5.6605     3.1689 F       
  35 F35            8.3903     4.4929     2.8678 F       
  36 F36            7.1974     5.2048     1.0639 F       
  37 F37            6.5395     3.4426     3.6773 F       
  38 H38            0.4455     3.8504     1.3327 H       
  39 H39            2.2298     1.5398    -1.5916 H       
  40 H40            1.3548     0.2459     0.5346 H       
  41 H41            2.6494     1.4132     0.8950 H       
  42 H42            1.1744     1.3843     1.8910 H       
  43 H43            0.9657     6.4097    -2.4688 H       
  44 H44            1.2162     5.2327    -3.7804 H       
  45 H45           -0.4161     5.4970    -3.1215 H       
  46 H46           -4.3197     1.2298    -0.4827 H       
  47 H47           -3.4573     2.4148     1.4954 H       
  48 H48            1.9953     4.2864     2.9757 H       
  49 H49            4.3230     4.5440     3.7365 H       
  50 H50            5.7061     3.6915    -0.2068 H       
  51 H51            3.3786     3.4293    -0.9665 H       
@<TRIPOS>BOND
   1    1   12 ar
   2    1    2 1
   3    1   16 ar
   4    2    8 1
   5    2    3 1
   6    2    7 1
   7    3    4 1
   8    3   17 1
   9    3   38 1
  10    4    5 am
  11    4   10 2
  12    5    6 1
  13    5   11 1
  14    6    7 1
  15    6    9 2
  16    7   39 1
  17    8   40 1
  18    8   41 1
  19    8   42 1
  20    9   26 1
  21   11   43 1
  22   11   44 1
  23   11   45 1
  24   12   13 ar
  25   12   23 1
  26   13   14 ar
  27   13   24 1
  28   14   15 ar
  29   14   46 1
  30   15   16 ar
  31   15   47 1
  32   16   25 1
  33   17   18 ar
  34   17   22 ar
  35   18   19 ar
  36   18   48 1
  37   19   20 ar
  38   19   49 1
  39   20   21 ar
  40   20   32 1
  41   21   22 ar
  42   21   50 1
  43   22   51 1
  44   26   27 1
  45   26   31 2
  46   27   28 1
  47   27   29 1
  48   27   30 1
  49   32   33 1
  50   32   34 1
  51   32   35 1
  52   32   36 1
  53   32   37 1

#	End of record

