#	Name: ASD01028083
#	Creating user name:	WinNT
#	Creation time:	15. 06. 2019 18:56

#	Modifying user name:	WinNT
#	Modification time:	15. 06. 2019 18:56

#	Program:	/corina/corina34_cracker 3.40 0067  02.08.2006

@<TRIPOS>MOLECULE
ASD01028083
  82   87    0    0    0
SMALL
NO_CHARGES


@<TRIPOS>ATOM
   1 C1            -0.0864     1.3379    -0.0651 C.3     
   2 C2            -0.0482    -0.1909    -0.0578 C.3     
   3 C3            -0.5201    -0.7122     1.2994 C.3     
   4 C4             1.9410     2.1841     0.9066 C.2     
   5 N5             1.2929     1.8540    -0.2546 N.am    
   6 N6             4.0383     2.5247     2.0974 N.3     
   7 N7             3.4197    -1.2296     3.8183 N.pl3   
   8 C8             4.4564    -0.4518     4.3025 C.ar    
   9 C9             4.5909     0.8254     3.7699 C.ar    
  10 C10            3.6034     1.2747     2.7245 C.3     
  11 C11            5.3336    -0.8878     5.2921 C.ar    
  12 C12            6.3507    -0.0482     5.7233 C.ar    
  13 C13            6.4891     1.2196     5.1689 C.ar    
  14 C14            5.6082     1.6508     4.1954 C.ar    
  15 O15           -0.7244    -2.1240     1.2425 O.3     
  16 C16            0.0743    -2.8976     2.0221 C.ar    
  17 C17            1.1719    -2.3266     2.6088 C.ar    
  18 C18            2.0100    -3.1133     3.4079 C.ar    
  19 C19            3.1603    -2.5508     4.0305 C.ar    
  20 N20            3.9117    -3.3462     4.7723 N.ar    
  21 O21            5.3990    -2.0598     5.9816 O.3     
  22 C22            6.4690    -1.9471     6.9252 C.3     
  23 O23            7.0764    -0.6733     6.6897 O.3     
  24 C24           -0.2185    -4.2522     2.2225 C.ar    
  25 C25            0.5993    -5.0424     3.0031 C.ar    
  26 C26            1.7316    -4.4847     3.6093 C.ar    
  27 N27            2.5701    -5.1997     4.3772 N.ar    
  28 C28            3.6142    -4.6262     4.9296 C.ar    
  29 O29           -1.3208    -4.7940     1.6421 O.3     
  30 C30           -1.5660    -6.1809     1.8840 C.3     
  31 O31            1.4019     2.0240     1.9811 O.2     
  32 C32            3.3353     2.7488     0.8252 C.3     
  33 C33            3.8553     3.6631     3.0076 C.3     
  34 C34            4.0982     2.0587    -0.3073 C.3     
  35 C35           -2.8410    -6.6083     1.1541 C.3     
  36 C36           -3.1034    -8.0932     1.4131 C.3     
  37 N37           -4.3239    -8.5052     0.7069 N.3     
  38 C38           -4.1527    -8.3971    -0.7438 C.3     
  39 C39           -5.2381    -9.2079    -1.4587 C.3     
  40 S40           -6.8609    -8.4996    -1.0459 S.o2    
  41 C41           -6.7762    -8.4719     0.7701 C.3     
  42 C42           -5.4875    -7.7584     1.1903 C.3     
  43 O43           -6.9078    -7.1610    -1.5203 O.2     
  44 O44           -7.8721    -9.4165    -1.4410 O.2     
  45 H45           -0.7205     1.6831    -0.8816 H       
  46 H46           -0.4833     1.6975     0.8842 H       
  47 H47           -0.7029    -0.5737    -0.8407 H       
  48 H48            0.9716    -0.5290    -0.2415 H       
  49 H49            0.2330    -0.4866     2.0544 H       
  50 H50           -1.4559    -0.2226     1.5688 H       
  51 H51            1.7018     1.9494    -1.1290 H       
  52 H52            2.7865    -0.7686     3.2461 H       
  53 H53            2.6310     1.4280     3.1926 H       
  54 H54            3.5145     0.5025     1.9603 H       
  55 H55            7.2864     1.8685     5.4999 H       
  56 H56            5.7179     2.6362     3.7673 H       
  57 H57            1.3891    -1.2797     2.4563 H       
  58 H58            6.0787    -1.9940     7.9419 H       
  59 H59            7.1953    -2.7440     6.7653 H       
  60 H60            0.3668    -6.0872     3.1468 H       
  61 H61            4.2651    -5.2311     5.5436 H       
  62 H62           -0.7237    -6.7680     1.5180 H       
  63 H63           -1.6870    -6.3472     2.9544 H       
  64 H64            3.2816     3.8189     0.6250 H       
  65 H65            2.7924     3.8847     3.1032 H       
  66 H66            4.2641     3.4146     3.9871 H       
  67 H67            4.3737     4.5347     2.6081 H       
  68 H68            3.5806     2.2299    -1.2512 H       
  69 H69            5.1072     2.4667    -0.3670 H       
  70 H70            4.1503     0.9879    -0.1105 H       
  71 H71           -3.6833    -6.0212     1.5201 H       
  72 H72           -2.7200    -6.4420     0.0837 H       
  73 H73           -2.2589    -8.6799     1.0517 H       
  74 H74           -3.2294    -8.2587     2.4831 H       
  75 H75           -4.2280    -7.3509    -1.0403 H       
  76 H76           -3.1714    -8.7812    -1.0222 H       
  77 H77           -5.0810    -9.1588    -2.5362 H       
  78 H78           -5.1970   -10.2456    -1.1277 H       
  79 H79           -7.6376    -7.9356     1.1682 H       
  80 H80           -6.7700    -9.4930     1.1515 H       
  81 H81           -5.4487    -7.6916     2.2776 H       
  82 H82           -5.4749    -6.7543     0.7665 H       
@<TRIPOS>BOND
   1    1    2 1
   2    1    5 1
   3    1   45 1
   4    1   46 1
   5    2    3 1
   6    2   47 1
   7    2   48 1
   8    3   15 1
   9    3   49 1
  10    3   50 1
  11    4    5 am
  12    4   31 2
  13    4   32 1
  14    5   51 1
  15    6   32 1
  16    6   33 1
  17    6   10 1
  18    7    8 1
  19    7   19 1
  20    7   52 1
  21    8    9 ar
  22    8   11 ar
  23    9   10 1
  24    9   14 ar
  25   10   53 1
  26   10   54 1
  27   11   12 ar
  28   11   21 1
  29   12   13 ar
  30   12   23 1
  31   13   14 ar
  32   13   55 1
  33   14   56 1
  34   15   16 1
  35   16   17 ar
  36   16   24 ar
  37   17   18 ar
  38   17   57 1
  39   18   19 ar
  40   18   26 ar
  41   19   20 ar
  42   20   28 ar
  43   21   22 1
  44   22   23 1
  45   22   58 1
  46   22   59 1
  47   24   25 ar
  48   24   29 1
  49   25   26 ar
  50   25   60 1
  51   26   27 ar
  52   27   28 ar
  53   28   61 1
  54   29   30 1
  55   30   35 1
  56   30   62 1
  57   30   63 1
  58   32   34 1
  59   32   64 1
  60   33   65 1
  61   33   66 1
  62   33   67 1
  63   34   68 1
  64   34   69 1
  65   34   70 1
  66   35   36 1
  67   35   71 1
  68   35   72 1
  69   36   37 1
  70   36   73 1
  71   36   74 1
  72   37   38 1
  73   37   42 1
  74   38   39 1
  75   38   75 1
  76   38   76 1
  77   39   40 1
  78   39   77 1
  79   39   78 1
  80   40   41 1
  81   40   43 2
  82   40   44 2
  83   41   42 1
  84   41   79 1
  85   41   80 1
  86   42   81 1
  87   42   82 1

#	End of record

