#	Name: ASD00843658
#	Creating user name:	WinNT
#	Creation time:	15. 06. 2019 18:47

#	Modifying user name:	WinNT
#	Modification time:	15. 06. 2019 18:47

#	Program:	/corina/corina34_cracker 3.40 0067  02.08.2006

@<TRIPOS>MOLECULE
ASD00843658
  98  103    0    0    0
SMALL
NO_CHARGES


@<TRIPOS>ATOM
   1 F1             5.6885    -2.5250    -1.9535 F       
   2 N2             0.9327     1.0797    -0.2964 N.ar    
   3 C3             1.0958    -0.2052    -0.5636 C.ar    
   4 C4             0.9416    -1.1606     0.4331 C.ar    
   5 C5             0.6141    -0.7508     1.7136 C.ar    
   6 C6             0.4517     0.6070     1.9530 C.ar    
   7 C7             0.6203     1.5008     0.9147 C.ar    
   8 C8             1.1279    -2.6237     0.1238 C.3     
   9 C9             0.7687    -3.4700     1.3265 C.2     
  10 C10            0.2828    -3.0261    -1.0865 C.3     
  11 C11           -1.1562    -2.6517    -0.8413 C.2     
  12 N12           -2.1060    -3.0087    -1.7283 N.am    
  13 O13           -1.4595    -2.0291     0.1544 O.2     
  14 C14           -3.4939    -2.5565    -1.5615 C.3     
  15 C15           -4.4173    -3.7786    -1.5884 C.3     
  16 C16           -4.1655    -4.5751    -2.8707 C.3     
  17 C17           -2.7156    -5.0645    -2.8928 C.3     
  18 C18           -1.7719    -3.8524    -2.8838 C.3     
  19 C19           -5.1102    -5.7777    -2.9175 C.3     
  20 C20           -6.5614    -5.2895    -2.8971 C.3     
  21 C21           -7.5008    -6.4927    -3.0055 C.3     
  22 N22           -7.2271    -7.2182    -4.2526 N.3     
  23 C23           -5.8536    -7.7373    -4.2744 C.3     
  24 C24           -4.8650    -6.5713    -4.2038 C.3     
  25 C25           -8.2014    -8.2983    -4.4580 C.3     
  26 O26           -0.3158    -3.5310     1.8662 O.2     
  27 N27            1.8766    -4.1411     1.6834 N.am    
  28 C28            2.5875    -2.9316    -0.1200 C.ar    
  29 C29            2.9619    -3.8478     0.8549 C.ar    
  30 C30            3.4931    -2.4882    -1.0576 C.ar    
  31 C31            4.7967    -2.9570    -1.0352 C.ar    
  32 C32            5.1826    -3.8717    -0.0670 C.ar    
  33 C33            4.2735    -4.3164     0.8736 C.ar    
  34 F34            6.4533    -4.3301    -0.0433 F       
  35 C35            1.5326    -6.7913     2.3409 C.ar    
  36 C36            0.2588    -7.0342     1.8474 C.ar    
  37 C37            2.4781    -7.7992     2.3425 C.ar    
  38 C38            2.1579    -9.0506     1.8526 C.ar    
  39 C39            0.8850    -9.2987     1.3579 C.ar    
  40 C40           -0.0652    -8.2895     1.3556 C.ar    
  41 O41            0.5705   -10.5300     0.8766 O.3     
  42 O42           -0.6707    -6.0428     1.8465 O.3     
  43 C43           -1.9612    -6.3639     1.3235 C.3     
  44 C44            1.5987   -11.5218     0.9103 C.3     
  45 C45           -7.9616    -8.9488    -5.8219 C.3     
  46 C46           -8.0389    -9.3479    -3.3567 C.3     
  47 S47            1.9473    -5.1943     2.9593 S.o2    
  48 O48            3.3114    -5.2579     3.3521 O.2     
  49 O49            0.9000    -4.8226     3.8449 O.2     
  50 O50            1.4163    -0.5941    -1.8233 O.3     
  51 C51            1.5133     0.4313    -2.8139 C.3     
  52 C52            1.9821    -0.1796    -4.1360 C.3     
  53 F53            3.1939    -0.8497    -3.9363 F       
  54 F54            1.0201    -1.0836    -4.5992 F       
  55 H55            0.4875    -1.4709     2.5085 H       
  56 H56            0.1957     0.9601     2.9411 H       
  57 H57            0.4954     2.5582     1.0957 H       
  58 H58            0.6473    -2.5071    -1.9730 H       
  59 H59            0.3571    -4.1028    -1.2396 H       
  60 H60           -3.5980    -2.0408    -0.6069 H       
  61 H61           -3.7584    -1.8808    -2.3749 H       
  62 H62           -4.2123    -4.4085    -0.7227 H       
  63 H63           -5.4563    -3.4502    -1.5621 H       
  64 H64           -4.3467    -3.9373    -3.7358 H       
  65 H65           -2.5267    -5.6823    -2.0149 H       
  66 H66           -2.5435    -5.6514    -3.7951 H       
  67 H67           -1.8973    -3.2848    -3.8059 H       
  68 H68           -0.7400    -4.1933    -2.7997 H       
  69 H69           -4.9289    -6.4172    -2.0537 H       
  70 H70           -6.7542    -4.7602    -1.9640 H       
  71 H71           -6.7313    -4.6181    -3.7388 H       
  72 H72           -7.3400    -7.1568    -2.1562 H       
  73 H73           -8.5347    -6.1474    -3.0057 H       
  74 H74           -5.7005    -8.3955    -3.4191 H       
  75 H75           -5.6911    -8.2960    -5.1961 H       
  76 H76           -5.0082    -5.9200    -5.0661 H       
  77 H77           -3.8458    -6.9577    -4.2043 H       
  78 H78           -9.2108    -7.8885    -4.4233 H       
  79 H79            3.1876    -1.7761    -1.8098 H       
  80 H80            4.5806    -5.0285     1.6252 H       
  81 H81            3.4691    -7.6081     2.7270 H       
  82 H82            2.8987    -9.8365     1.8543 H       
  83 H83           -1.0563    -8.4807     0.9715 H       
  84 H84           -2.3982    -7.1745     1.9067 H       
  85 H85           -2.6053    -5.4865     1.3814 H       
  86 H86           -1.8645    -6.6757     0.2835 H       
  87 H87            2.4489   -11.1841     0.3177 H       
  88 H88            1.9150   -11.6823     1.9410 H       
  89 H89            1.2164   -12.4556     0.4981 H       
  90 H90           -6.9522    -9.3586    -5.8566 H       
  91 H91           -8.6846    -9.7502    -5.9743 H       
  92 H92           -8.0774    -8.2011    -6.6065 H       
  93 H93           -8.2097    -8.8845    -2.3850 H       
  94 H94           -8.7619   -10.1493    -3.5091 H       
  95 H95           -7.0295    -9.7577    -3.3914 H       
  96 H96            0.5367     0.8948    -2.9539 H       
  97 H97            2.2298     1.1851    -2.4876 H       
  98 H98            2.1216     0.6117    -4.8726 H       
@<TRIPOS>BOND
   1    1   31 1
   2    2    3 ar
   3    2    7 ar
   4    3    4 ar
   5    3   50 1
   6    4    5 ar
   7    4    8 1
   8    5    6 ar
   9    5   55 1
  10    6    7 ar
  11    6   56 1
  12    7   57 1
  13    8    9 1
  14    8   10 1
  15    8   28 1
  16    9   26 2
  17    9   27 am
  18   10   11 1
  19   10   58 1
  20   10   59 1
  21   11   12 am
  22   11   13 2
  23   12   14 1
  24   12   18 1
  25   14   15 1
  26   14   60 1
  27   14   61 1
  28   15   16 1
  29   15   62 1
  30   15   63 1
  31   16   17 1
  32   16   19 1
  33   16   64 1
  34   17   18 1
  35   17   65 1
  36   17   66 1
  37   18   67 1
  38   18   68 1
  39   19   20 1
  40   19   24 1
  41   19   69 1
  42   20   21 1
  43   20   70 1
  44   20   71 1
  45   21   22 1
  46   21   72 1
  47   21   73 1
  48   22   23 1
  49   22   25 1
  50   23   24 1
  51   23   74 1
  52   23   75 1
  53   24   76 1
  54   24   77 1
  55   25   45 1
  56   25   46 1
  57   25   78 1
  58   27   47 am
  59   27   29 1
  60   28   29 ar
  61   28   30 ar
  62   29   33 ar
  63   30   31 ar
  64   30   79 1
  65   31   32 ar
  66   32   33 ar
  67   32   34 1
  68   33   80 1
  69   35   36 ar
  70   35   37 ar
  71   35   47 1
  72   36   42 1
  73   36   40 ar
  74   37   38 ar
  75   37   81 1
  76   38   39 ar
  77   38   82 1
  78   39   40 ar
  79   39   41 1
  80   40   83 1
  81   41   44 1
  82   42   43 1
  83   43   84 1
  84   43   85 1
  85   43   86 1
  86   44   87 1
  87   44   88 1
  88   44   89 1
  89   45   90 1
  90   45   91 1
  91   45   92 1
  92   46   93 1
  93   46   94 1
  94   46   95 1
  95   47   48 2
  96   47   49 2
  97   50   51 1
  98   51   52 1
  99   51   96 1
 100   51   97 1
 101   52   53 1
 102   52   54 1
 103   52   98 1

#	End of record

