#	Name: ASD01030043
#	Creating user name:	WinNT
#	Creation time:	15. 06. 2019 18:58

#	Modifying user name:	WinNT
#	Modification time:	15. 06. 2019 18:58

#	Program:	/corina/corina34_cracker 3.40 0067  02.08.2006

@<TRIPOS>MOLECULE
ASD01030043
  97  105    0    0    0
SMALL
NO_CHARGES


@<TRIPOS>ATOM
   1 C1            -0.2768     1.7525     0.2382 C.3     
   2 C2            -0.3589     0.2220     0.2915 C.3     
   3 C3             0.3281    -0.3741    -0.9296 C.3     
   4 C4             1.7896     0.0183    -1.0224 C.3     
   5 C5             2.0085     1.5156    -0.9614 C.3     
   6 C6             1.1945     2.1464     0.1761 C.3     
   7 C7             1.6153     3.5505     0.6104 C.3     
   8 C8             3.4854     1.8369    -0.6819 C.3     
   9 C9             3.6644     3.3338    -0.7136 C.2     
  10 C10            2.7969     4.1346    -0.1397 C.2     
  11 C11            0.7519     5.9526     0.7952 C.3     
  12 C12            0.5668     4.4879     1.1988 C.3     
  13 C13            2.2300     6.2712     0.9422 C.3     
  14 C14            2.6538     7.7134     0.7328 C.3     
  15 C15            2.9118     5.6060    -0.2935 C.3     
  16 C16            4.3049     6.2286    -0.3301 C.3     
  17 C17            4.1475     7.5822     0.3808 C.3     
  18 C18            1.9429     2.3312     1.5003 C.3     
  19 O19            0.2352    -1.7986    -0.8629 O.3     
  20 C20            2.5492    -0.6373     0.1326 C.3     
  21 O21            4.9254     7.5821     1.5939 O.3     
  22 C22            2.3143     8.7000     1.7949 C.3     
  23 C23            3.4696     9.1463     2.6790 C.3     
  24 C24            4.7988     8.9671     1.9739 C.3     
  25 O25            4.5635     8.7148    -0.3708 O.3     
  26 C26            4.8447     9.7286     0.6247 C.3     
  27 O27            4.7282     6.4224    -1.6811 O.3     
  28 H28            1.7143     1.9643    -1.9102 H       
  29 C29            2.1652     6.0338    -1.5586 C.3     
  30 H30            2.1533     8.0539    -0.1737 H       
  31 C31            1.7194     9.9395     1.1236 C.3     
  32 O32            5.9207     9.4184     2.7249 O.3     
  33 C33            2.3574    -0.5085    -2.3419 C.3     
  34 C34           -0.9307    -2.3350    -1.4914 C.3     
  35 O35           -2.0951    -1.8988    -0.7872 O.3     
  36 C36           -3.3247    -2.3599    -1.3508 C.3     
  37 C37           -3.3554    -3.8903    -1.3220 C.3     
  38 C38           -2.1453    -4.4319    -2.0892 C.3     
  39 C39           -0.8652    -3.8644    -1.4683 C.3     
  40 O40           -4.5583    -4.3554    -1.9375 O.3     
  41 O41           -2.2299    -4.0330    -3.4588 O.3     
  42 O42            0.2668    -4.3053    -2.2209 O.3     
  43 C43            2.7791     5.7240     2.2613 C.3     
  44 H44            4.1505    10.5680     0.5832 H       
  45 C45            6.9948     9.5663     1.7673 C.3     
  46 C46            6.3264    10.1474     0.5010 C.3     
  47 O47            6.9087     9.5824    -0.6753 O.3     
  48 C48            6.4514    11.6722     0.4820 C.3     
  49 H49           -0.7934     2.1181    -0.6493 H       
  50 H50           -0.7340     2.1769     1.1320 H       
  51 H51            0.1340    -0.1360     1.1954 H       
  52 H52           -1.4048    -0.0845     0.3045 H       
  53 H53           -0.1869    -0.0307    -1.8268 H       
  54 H54            3.7634     1.4556     0.3007 H       
  55 H55            4.1113     1.3770    -1.4467 H       
  56 H56            4.5220     3.7547    -1.2172 H       
  57 H57            0.4422     6.0950    -0.2402 H       
  58 H58            0.1659     6.5960     1.4514 H       
  59 H59           -0.4187     4.1581     0.8697 H       
  60 H60            0.6086     4.4184     2.2857 H       
  61 H61            5.0166     5.5983     0.2032 H       
  62 H62            1.3733     2.2123     2.4220 H       
  63 H63            2.9813     2.0025     1.5425 H       
  64 H64            2.4521    -1.7208     0.0628 H       
  65 H65            3.6026    -0.3626     0.0770 H       
  66 H66            2.1341    -0.2957     1.0808 H       
  67 H67            1.5462     8.2629     2.4330 H       
  68 H68            3.3391    10.1981     2.9338 H       
  69 H69            3.4681     8.5549     3.5947 H       
  70 H70            5.6076     6.8156    -1.7652 H       
  71 H71            1.1625     5.6064    -1.5508 H       
  72 H72            2.0964     7.1212    -1.5898 H       
  73 H73            2.7048     5.6786    -2.4366 H       
  74 H74            0.8219     9.6588     0.5724 H       
  75 H75            1.4629    10.6769     1.8842 H       
  76 H76            2.4497    10.3659     0.4358 H       
  77 H77            1.8043    -0.0741    -3.1747 H       
  78 H78            3.4090    -0.2326    -2.4208 H       
  79 H79            2.2635    -1.5941    -2.3702 H       
  80 H80           -0.9791    -1.9887    -2.5237 H       
  81 H81           -4.1601    -1.9686    -0.7701 H       
  82 H82           -3.4045    -2.0140    -2.3814 H       
  83 H83           -3.3164    -4.2360    -0.2891 H       
  84 H84           -2.1302    -5.5200    -2.0253 H       
  85 H85           -0.7758    -4.2096    -0.4383 H       
  86 H86           -5.3662    -4.0461    -1.5054 H       
  87 H87           -3.0213    -4.3524    -3.9133 H       
  88 H88            1.1131    -3.9788    -1.8859 H       
  89 H89            2.6614     4.6406     2.2823 H       
  90 H90            3.8360     5.9764     2.3475 H       
  91 H91            2.2311     6.1653     3.0939 H       
  92 H92            7.7489    10.2554     2.1475 H       
  93 H93            7.4427     8.5971     1.5481 H       
  94 H94            7.8391     9.8129    -0.8032 H       
  95 H95            6.0433    12.0817     1.4060 H       
  96 H96            7.5019    11.9495     0.3944 H       
  97 H97            5.8982    12.0715    -0.3680 H       
@<TRIPOS>BOND
   1    1    2 1
   2    1    6 1
   3    1   49 1
   4    1   50 1
   5    2    3 1
   6    2   51 1
   7    2   52 1
   8    3    4 1
   9    3   19 1
  10    3   53 1
  11    4    5 1
  12    4   20 1
  13    4   33 1
  14    5    6 1
  15    5    8 1
  16    5   28 1
  17    6    7 1
  18    6   18 1
  19    7   10 1
  20    7   12 1
  21    7   18 1
  22    8    9 1
  23    8   54 1
  24    8   55 1
  25    9   10 2
  26    9   56 1
  27   10   15 1
  28   11   12 1
  29   11   13 1
  30   11   57 1
  31   11   58 1
  32   12   59 1
  33   12   60 1
  34   13   14 1
  35   13   43 1
  36   13   15 1
  37   14   17 1
  38   14   30 1
  39   14   22 1
  40   15   29 1
  41   15   16 1
  42   16   27 1
  43   16   17 1
  44   16   61 1
  45   17   21 1
  46   17   25 1
  47   18   62 1
  48   18   63 1
  49   19   34 1
  50   20   64 1
  51   20   65 1
  52   20   66 1
  53   21   24 1
  54   22   23 1
  55   22   31 1
  56   22   67 1
  57   23   24 1
  58   23   68 1
  59   23   69 1
  60   24   32 1
  61   24   26 1
  62   25   26 1
  63   26   44 1
  64   26   46 1
  65   27   70 1
  66   29   71 1
  67   29   72 1
  68   29   73 1
  69   31   74 1
  70   31   75 1
  71   31   76 1
  72   32   45 1
  73   33   77 1
  74   33   78 1
  75   33   79 1
  76   34   35 1
  77   34   39 1
  78   34   80 1
  79   35   36 1
  80   36   37 1
  81   36   81 1
  82   36   82 1
  83   37   38 1
  84   37   40 1
  85   37   83 1
  86   38   39 1
  87   38   41 1
  88   38   84 1
  89   39   42 1
  90   39   85 1
  91   40   86 1
  92   41   87 1
  93   42   88 1
  94   43   89 1
  95   43   90 1
  96   43   91 1
  97   45   46 1
  98   45   92 1
  99   45   93 1
 100   46   47 1
 101   46   48 1
 102   47   94 1
 103   48   95 1
 104   48   96 1
 105   48   97 1

#	End of record

