#	Name: ASD01120367
#	Creating user name:	WinNT
#	Creation time:	15. 06. 2019 18:59

#	Modifying user name:	WinNT
#	Modification time:	15. 06. 2019 18:59

#	Program:	/corina/corina34_cracker 3.40 0067  02.08.2006

@<TRIPOS>MOLECULE
ASD01120367
  42   43    0    0    0
SMALL
NO_CHARGES


@<TRIPOS>ATOM
   1 C1             0.3570     1.0577    -0.2978 C.ar    
   2 C2             0.5747    -0.3129    -0.3583 C.ar    
   3 C3             1.8548    -0.8195    -0.3932 C.ar    
   4 C4             2.9431     0.0478    -0.3682 C.ar    
   5 C5             2.7196     1.4376    -0.3073 C.ar    
   6 C6             1.4079     1.9279    -0.2723 C.ar    
   7 N7             4.3035    -0.1492    -0.3916 N.pl3   
   8 C8             4.9321     1.0807    -0.3470 C.2     
   9 C9             3.9908     2.0603    -0.2953 C.2     
  10 C10            4.2536     3.5430    -0.2360 C.3     
  11 C11            4.3834     4.0953    -1.6569 C.3     
  12 C12            4.5400     5.5931    -1.6014 C.2     
  13 O13            4.6716     6.2967    -2.7369 O.3     
  14 O14            4.5471     6.1606    -0.5347 O.2     
  15 C15            6.3852     1.2953    -0.3542 C.2     
  16 O16            6.8331     2.4247    -0.3113 O.2     
  17 O17            7.2224     0.2396    -0.4084 O.3     
  18 C18            1.1578     3.4126    -0.2076 C.3     
  19 C19            1.2051     3.8747     1.2502 C.3     
  20 C20            1.0942     5.3997     1.3056 C.3     
  21 C21            0.0403     3.2503     2.0211 C.3     
  22 N22            2.0726    -2.2822    -0.4566 N.pl3   
  23 O23            1.1189    -3.0396    -0.4780 O.2     
  24 O24            3.2055    -2.7285    -0.4874 O.2     
  25 H25           -0.6534     1.4383    -0.2753 H       
  26 H26           -0.2682    -0.9878    -0.3778 H       
  27 H27            4.7489    -1.0099    -0.4325 H       
  28 H28            3.4265     4.0386     0.2723 H       
  29 H29            5.1784     3.7265     0.3110 H       
  30 H30            5.2569     3.6563    -2.1390 H       
  31 H31            3.4891     3.8443    -2.2273 H       
  32 H32            4.7692     7.2549    -2.6508 H       
  33 H33            8.1703     0.4307    -0.4109 H       
  34 H34            1.9244     3.9355    -0.7795 H       
  35 H35            0.1767     3.6345    -0.6275 H       
  36 H36            2.1475     3.5623     1.7000 H       
  37 H37            0.1518     5.7121     0.8558 H       
  38 H38            1.1279     5.7289     2.3442 H       
  39 H39            1.9240     5.8445     0.7564 H       
  40 H40            0.1767     2.1702     2.0734 H       
  41 H41            0.0100     3.6621     3.0299 H       
  42 H42           -0.8957     3.4740     1.5092 H       
@<TRIPOS>BOND
   1    1    2 ar
   2    1    6 ar
   3    1   25 1
   4    2    3 ar
   5    2   26 1
   6    3   22 1
   7    3    4 ar
   8    4    5 ar
   9    4    7 1
  10    5    6 ar
  11    5    9 1
  12    6   18 1
  13    7    8 1
  14    7   27 1
  15    8    9 2
  16    8   15 1
  17    9   10 1
  18   10   11 1
  19   10   28 1
  20   10   29 1
  21   11   12 1
  22   11   30 1
  23   11   31 1
  24   12   13 1
  25   12   14 2
  26   13   32 1
  27   15   16 2
  28   15   17 1
  29   17   33 1
  30   18   19 1
  31   18   34 1
  32   18   35 1
  33   19   20 1
  34   19   21 1
  35   19   36 1
  36   20   37 1
  37   20   38 1
  38   20   39 1
  39   21   40 1
  40   21   41 1
  41   21   42 1
  42   22   23 2
  43   22   24 2

#	End of record

