#	Name: ASD01910585
#	Creating user name:	WinNT
#	Creation time:	15. 06. 2019 19:56

#	Modifying user name:	WinNT
#	Modification time:	15. 06. 2019 19:56

#	Program:	/corina/corina34_cracker 3.40 0067  02.08.2006

@<TRIPOS>MOLECULE
ASD01910585
  44   47    0    0    0
SMALL
NO_CHARGES


@<TRIPOS>ATOM
   1 C1            -0.6663     1.8310    -1.9814 C.ar    
   2 C2            -0.7364     0.4766    -1.7138 C.ar    
   3 C3             0.3312    -0.1749    -1.1203 C.ar    
   4 C4             1.4739     0.5231    -0.7913 C.ar    
   5 C5             1.5543     1.8913    -1.0581 C.ar    
   6 C6             0.4733     2.5442    -1.6576 C.ar    
   7 C7             2.7753     2.6453    -0.7078 C.2     
   8 N8             2.9893     3.9351    -0.9010 N.2     
   9 C9             4.2240     4.1692    -0.4300 C.2     
  10 N10            4.6952     3.0426     0.0171 N.2     
  11 O11            3.8810     2.1551    -0.1262 O.3     
  12 C12            4.9361     5.4973    -0.4217 C.3     
  13 C13            5.2731     5.8872     1.0194 C.3     
  14 C14            5.9670     7.2512     1.0316 C.3     
  15 C15            7.2735     7.1621     0.2367 C.3     
  16 N16            6.9752     6.6489    -1.1074 N.am    
  17 C17            6.2309     5.3884    -1.2331 C.3     
  18 C18            7.3768     7.3216    -2.2040 C.2     
  19 C19            8.0504     8.6288    -2.0633 C.ar    
  20 O20            7.1846     6.8527    -3.3090 O.2     
  21 C21            9.1332     8.7686    -1.1931 C.ar    
  22 C22            9.7592     9.9904    -1.0646 C.ar    
  23 C23            9.3157    11.0800    -1.7969 C.ar    
  24 C24            8.2389    10.9479    -2.6640 C.ar    
  25 C25            7.6099     9.7275    -2.8046 C.ar    
  26 F26            9.9326    12.2748    -1.6667 F       
  27 F27            0.5418     3.8677    -1.9201 F       
  28 F28            7.8106    12.0137    -3.3752 F       
  29 H29           -1.5013     2.3321    -2.4483 H       
  30 H30           -1.6286    -0.0760    -1.9686 H       
  31 H31            0.2687    -1.2332    -0.9140 H       
  32 H32            2.3051     0.0126    -0.3277 H       
  33 H33            4.2923     6.2580    -0.8633 H       
  34 H34            4.3554     5.9413     1.6050 H       
  35 H35            5.9364     5.1384     1.4524 H       
  36 H36            5.3140     7.9956     0.5761 H       
  37 H37            6.1857     7.5388     2.0600 H       
  38 H38            7.7218     8.1526     0.1584 H       
  39 H39            7.9630     6.4855     0.7415 H       
  40 H40            6.8353     4.5671    -0.8482 H       
  41 H41            5.9913     5.2085    -2.2811 H       
  42 H42            9.4799     7.9207    -0.6209 H       
  43 H43           10.5968    10.0986    -0.3914 H       
  44 H44            6.7727     9.6246    -3.4791 H       
@<TRIPOS>BOND
   1    1    2 ar
   2    1    6 ar
   3    1   29 1
   4    2    3 ar
   5    2   30 1
   6    3    4 ar
   7    3   31 1
   8    4    5 ar
   9    4   32 1
  10    5    6 ar
  11    5    7 1
  12    6   27 1
  13    7    8 2
  14    7   11 1
  15    8    9 1
  16    9   10 2
  17    9   12 1
  18   10   11 1
  19   12   13 1
  20   12   17 1
  21   12   33 1
  22   13   14 1
  23   13   34 1
  24   13   35 1
  25   14   15 1
  26   14   36 1
  27   14   37 1
  28   15   16 1
  29   15   38 1
  30   15   39 1
  31   16   17 1
  32   16   18 am
  33   17   40 1
  34   17   41 1
  35   18   19 1
  36   18   20 2
  37   19   21 ar
  38   19   25 ar
  39   21   22 ar
  40   21   42 1
  41   22   23 ar
  42   22   43 1
  43   23   24 ar
  44   23   26 1
  45   24   25 ar
  46   24   28 1
  47   25   44 1

#	End of record

