#	Name: ASD06660112
#	Creating user name:	WinNT
#	Creation time:	15. 06. 2019 21:08

#	Modifying user name:	WinNT
#	Modification time:	15. 06. 2019 21:08

#	Program:	/corina/corina34_cracker 3.40 0067  02.08.2006

@<TRIPOS>MOLECULE
ASD06660112
  82   86    0    0    0
SMALL
NO_CHARGES


@<TRIPOS>ATOM
   1 C1             0.3817     2.0791     0.9670 C.2     
   2 C2             0.1282     0.6741     0.4845 C.3     
   3 C3            -0.9874     0.6879    -0.5624 C.3     
   4 O4             1.4728     2.5786     0.8260 O.2     
   5 O5            -0.6061     2.7776     1.5483 O.3     
   6 C6            -1.3332    -0.7277    -0.9467 C.ar    
   7 C7            -2.2850    -1.4253    -0.2259 C.ar    
   8 C8            -2.6042    -2.7227    -0.5754 C.ar    
   9 C9            -1.9680    -3.3268    -1.6524 C.ar    
  10 C10           -1.0123    -2.6231    -2.3743 C.ar    
  11 C11           -0.7020    -1.3241    -2.0229 C.ar    
  12 N12           -2.2881    -4.6389    -2.0083 N.3     
  13 C13           -1.5012    -5.0764    -3.1683 C.3     
  14 C14           -1.9792    -6.4587    -3.6187 C.3     
  15 C15           -1.8161    -7.4511    -2.4641 C.3     
  16 C16           -2.6062    -6.9474    -1.2531 C.3     
  17 C17           -2.1099    -5.5510    -0.8713 C.3     
  18 N18           -1.5081    -9.7030    -3.3618 N.ar    
  19 C19           -2.3408    -8.8006    -2.8820 C.ar    
  20 C20           -3.6877    -9.0771    -2.7573 C.ar    
  21 C21           -4.1624   -10.3230    -3.1419 C.ar    
  22 C22           -3.2630   -11.2512    -3.6417 C.ar    
  23 C23           -3.7645   -12.6075    -4.0572 C.3     
  24 C24           -2.7737   -13.2732    -5.0126 C.3     
  25 C25           -1.3735   -13.2213    -4.3877 C.3     
  26 N26           -0.9926   -11.8094    -4.2510 N.pl3   
  27 C27           -1.9229   -10.9047    -3.7430 C.ar    
  28 C28            2.3516    -0.3038     0.6775 C.2     
  29 C29            3.6239    -0.7641     0.0759 C.ar    
  30 C30            3.8395    -2.1259    -0.1425 C.ar    
  31 C31            5.0229    -2.5554    -0.7017 C.ar    
  32 C32            6.0081    -1.6267    -1.0510 C.ar    
  33 C33            5.7907    -0.2633    -0.8322 C.ar    
  34 C34            4.6040     0.1642    -0.2775 C.ar    
  35 O35            2.2086    -0.3215     1.8841 O.2     
  36 N36            1.3521     0.1347    -0.1132 N.am    
  37 C37            4.3668     1.6345    -0.0471 C.3     
  38 C38            2.7775    -3.1265     0.2341 C.3     
  39 C39            1.7839    -3.2743    -0.9200 C.3     
  40 C40            7.2749    -2.0850    -1.6489 C.2     
  41 O41            7.4258    -3.2554    -1.9264 O.2     
  42 C42            8.3827    -1.0986    -1.9153 C.3     
  43 H43           -0.1710     0.0494     1.3261 H       
  44 H44           -1.8687     1.1774    -0.1478 H       
  45 H45           -0.6509     1.2321    -1.4448 H       
  46 H46           -0.3958     3.6747     1.8415 H       
  47 H47           -2.7790    -0.9552     0.6116 H       
  48 H48           -3.3475    -3.2671    -0.0118 H       
  49 H49           -0.5158    -3.0898    -3.2122 H       
  50 H50            0.0375    -0.7748    -2.5867 H       
  51 H51           -1.6293    -4.3644    -3.9836 H       
  52 H52           -0.4476    -5.1282    -2.8938 H       
  53 H53           -3.0292    -6.4047    -3.9066 H       
  54 H54           -1.3845    -6.7899    -4.4700 H       
  55 H55           -0.7614    -7.5346    -2.2019 H       
  56 H56           -3.6660    -6.9011    -1.5037 H       
  57 H57           -2.4594    -7.6278    -0.4143 H       
  58 H58           -1.0535    -5.6005    -0.6075 H       
  59 H59           -2.6803    -5.1836    -0.0181 H       
  60 H60           -4.3641    -8.3324    -2.3646 H       
  61 H61           -5.2113   -10.5645    -3.0531 H       
  62 H62           -3.8880   -13.2326    -3.1728 H       
  63 H63           -4.7279   -12.4985    -4.5553 H       
  64 H64           -3.0634   -14.3115    -5.1743 H       
  65 H65           -2.7693   -12.7407    -5.9637 H       
  66 H66           -1.3897   -13.6956    -3.4064 H       
  67 H67           -0.6617   -13.7344    -5.0344 H       
  68 H68           -0.1069   -11.5110    -4.5107 H       
  69 H69            5.1898    -3.6091    -0.8699 H       
  70 H70            6.5510     0.4550    -1.1012 H       
  71 H71            1.4432     0.0932    -1.0780 H       
  72 H72            4.7234     1.9089     0.9457 H       
  73 H73            4.9052     2.2116    -0.7989 H       
  74 H74            3.3002     1.8465    -0.1215 H       
  75 H75            3.2429    -4.0907     0.4385 H       
  76 H76            2.2518    -2.7808     1.1241 H       
  77 H77            1.3922    -2.2937    -1.1900 H       
  78 H78            2.2890    -3.7134    -1.7803 H       
  79 H79            0.9626    -3.9213    -0.6117 H       
  80 H80            8.0350    -0.0912    -1.6865 H       
  81 H81            9.2411    -1.3380    -1.2878 H       
  82 H82            8.6732    -1.1531    -2.9645 H       
@<TRIPOS>BOND
   1    1    2 1
   2    1    4 2
   3    1    5 1
   4    2    3 1
   5    2   36 1
   6    2   43 1
   7    3    6 1
   8    3   44 1
   9    3   45 1
  10    5   46 1
  11    6    7 ar
  12    6   11 ar
  13    7    8 ar
  14    7   47 1
  15    8    9 ar
  16    8   48 1
  17    9   10 ar
  18    9   12 1
  19   10   11 ar
  20   10   49 1
  21   11   50 1
  22   12   13 1
  23   12   17 1
  24   13   14 1
  25   13   51 1
  26   13   52 1
  27   14   15 1
  28   14   53 1
  29   14   54 1
  30   15   16 1
  31   15   19 1
  32   15   55 1
  33   16   17 1
  34   16   56 1
  35   16   57 1
  36   17   58 1
  37   17   59 1
  38   18   19 ar
  39   18   27 ar
  40   19   20 ar
  41   20   21 ar
  42   20   60 1
  43   21   22 ar
  44   21   61 1
  45   22   23 1
  46   22   27 ar
  47   23   24 1
  48   23   62 1
  49   23   63 1
  50   24   25 1
  51   24   64 1
  52   24   65 1
  53   25   26 1
  54   25   66 1
  55   25   67 1
  56   26   27 1
  57   26   68 1
  58   28   29 1
  59   28   35 2
  60   28   36 am
  61   29   30 ar
  62   29   34 ar
  63   30   31 ar
  64   30   38 1
  65   31   32 ar
  66   31   69 1
  67   32   33 ar
  68   32   40 1
  69   33   34 ar
  70   33   70 1
  71   34   37 1
  72   36   71 1
  73   37   72 1
  74   37   73 1
  75   37   74 1
  76   38   39 1
  77   38   75 1
  78   38   76 1
  79   39   77 1
  80   39   78 1
  81   39   79 1
  82   40   41 2
  83   40   42 1
  84   42   80 1
  85   42   81 1
  86   42   82 1

#	End of record

