#	Name: ASD03081344
#	Creating user name:	WinNT
#	Creation time:	15. 06. 2019 20:27

#	Modifying user name:	WinNT
#	Modification time:	15. 06. 2019 20:27

#	Program:	/corina/corina34_cracker 3.40 0067  02.08.2006

@<TRIPOS>MOLECULE
ASD03081344
  34   36    0    0    0
SMALL
NO_CHARGES


@<TRIPOS>ATOM
   1 O1            -0.0162     1.3447     0.0094 O.3     
   2 C2             0.0021    -0.0041     0.0020 C.2     
   3 N3             1.2622    -0.3801    -0.0120 N.2     
   4 N4             2.0185     0.6607    -0.0137 N.2     
   5 C5             1.2736     1.7418    -0.0007 C.2     
   6 C6             0.8559     4.2025     0.0156 C.ar    
   7 C7             1.7585     3.1373     0.0017 C.ar    
   8 C8             3.1309     3.4142    -0.0094 C.ar    
   9 C9             3.5327     4.7384    -0.0061 C.ar    
  10 C10            2.5754     5.7366     0.0079 C.ar    
  11 N11            1.2883     5.4462     0.0181 N.ar    
  12 C12           -1.1744    -0.8932     0.0089 C.ar    
  13 C13           -1.0040    -2.2855    -0.0003 C.ar    
  14 C14           -2.1113    -3.1135     0.0068 C.ar    
  15 C15           -3.3890    -2.5659     0.0224 C.ar    
  16 C16           -3.5588    -1.1839     0.0310 C.ar    
  17 C17           -2.4620    -0.3515     0.0304 C.ar    
  18 S18           -4.7980    -3.6239     0.0307 S.3     
  19 C19           -6.1855    -2.4556     0.0508 C.3     
  20 O20            0.2448    -2.8186    -0.0164 O.3     
  21 C21            0.3415    -4.2443    -0.0250 C.3     
  22 H22           -0.2058     4.0047     0.0197 H       
  23 H23            3.8572     2.6149    -0.0199 H       
  24 H24            4.5830     4.9899    -0.0140 H       
  25 H25            2.8865     6.7708     0.0105 H       
  26 H26           -1.9836    -4.1859    -0.0003 H       
  27 H27           -4.5536    -0.7637     0.0424 H       
  28 H28           -2.5971     0.7200     0.0420 H       
  29 H29           -7.1253    -3.0077     0.0571 H       
  30 H30           -6.1236    -1.8333     0.9435 H       
  31 H31           -6.1413    -1.8237    -0.8363 H       
  32 H32            1.3913    -4.5372    -0.0377 H       
  33 H33           -0.1370    -4.6463     0.8681 H       
  34 H34           -0.1561    -4.6369    -0.9118 H       
@<TRIPOS>BOND
   1    1    2 1
   2    1    5 1
   3    2    3 2
   4    2   12 1
   5    3    4 1
   6    4    5 2
   7    5    7 1
   8    6    7 ar
   9    6   11 ar
  10    6   22 1
  11    7    8 ar
  12    8    9 ar
  13    8   23 1
  14    9   10 ar
  15    9   24 1
  16   10   11 ar
  17   10   25 1
  18   12   13 ar
  19   12   17 ar
  20   13   14 ar
  21   13   20 1
  22   14   15 ar
  23   14   26 1
  24   15   16 ar
  25   15   18 1
  26   16   17 ar
  27   16   27 1
  28   17   28 1
  29   18   19 1
  30   19   29 1
  31   19   30 1
  32   19   31 1
  33   20   21 1
  34   21   32 1
  35   21   33 1
  36   21   34 1

#	End of record

