#	Name: ASD01410590
#	Creating user name:	WinNT
#	Creation time:	15. 06. 2019 19:18

#	Modifying user name:	WinNT
#	Modification time:	15. 06. 2019 19:18

#	Program:	/corina/corina34_cracker 3.40 0067  02.08.2006

@<TRIPOS>MOLECULE
ASD01410590
  71   74    0    0    0
SMALL
NO_CHARGES


@<TRIPOS>ATOM
   1 C1             0.0322    -1.9622     3.3722 C.ar    
   2 C2             0.9293    -2.2642     4.4162 C.ar    
   3 C3             2.3181    -2.3054     4.1408 C.ar    
   4 N4             2.7599    -2.0585     2.9028 N.ar    
   5 C5             1.9269    -1.7755     1.9242 C.ar    
   6 C6             0.5434    -1.7204     2.1318 C.ar    
   7 O7             2.4202    -1.5322     0.6852 O.3     
   8 C8             3.7707    -1.5013     0.5305 C.ar    
   9 C9             4.5071    -2.6750     0.6380 C.ar    
  10 C10            5.8784    -2.6548     0.4832 C.ar    
  11 C11            6.5323    -1.4596     0.2180 C.ar    
  12 C12            5.7944    -0.2712     0.1078 C.ar    
  13 C13            4.4063    -0.3030     0.2610 C.ar    
  14 N14            7.9175    -1.4399     0.0622 N.am    
  15 C15            8.4604    -1.6008    -1.1608 C.2     
  16 C16            8.7830    -1.2441     1.2279 C.3     
  17 O17            9.6648    -1.6697    -1.2853 O.2     
  18 C18            7.5708    -1.6952    -2.3736 C.3     
  19 C19            8.1946    -2.6535    -3.3902 C.3     
  20 C20            7.2915    -2.7494    -4.6215 C.3     
  21 C21            7.1408    -1.3637    -5.2526 C.3     
  22 C22            6.5170    -0.4055    -4.2360 C.3     
  23 C23            7.4201    -0.3096    -3.0046 C.3     
  24 C24            6.2377    -1.4596    -6.4839 C.3     
  25 C25            7.9282    -0.8723     2.4411 C.3     
  26 O26           10.4457    -2.8125     0.4430 O.3     
  27 C27            9.5465    -2.5376     1.5191 C.3     
  28 C28           11.2120    -4.0061     0.6165 C.3     
  29 O29            7.3072     0.3949     2.2159 O.3     
  30 C30            6.4816     0.8375     3.2951 C.3     
  31 C31            0.4724    -2.5233     5.7179 C.ar    
  32 C32            1.3692    -2.8114     6.7015 C.ar    
  33 C33            2.7356    -2.8520     6.4331 C.ar    
  34 C34            3.2128    -2.6067     5.1821 C.ar    
  35 C35            6.4798     1.0030    -0.1737 C.2     
  36 O36            7.6748     1.0145    -0.3935 O.2     
  37 O37            5.7811     2.1553    -0.1872 O.3     
  38 H38           -1.0326    -1.9275     3.5492 H       
  39 H39           -0.1178    -1.4857     1.3107 H       
  40 H40            4.0036    -3.6080     0.8443 H       
  41 H41            6.4439    -3.5710     0.5689 H       
  42 H42            3.8316     0.6076     0.1772 H       
  43 H43            9.4920    -0.4419     1.0233 H       
  44 H44            6.5904    -2.0680    -2.0770 H       
  45 H45            9.1750    -2.2808    -3.6869 H       
  46 H46            8.3020    -3.6407    -2.9407 H       
  47 H47            7.7359    -3.4321    -5.3458 H       
  48 H48            6.3111    -3.1221    -4.3249 H       
  49 H49            8.1212    -0.9910    -5.5492 H       
  50 H50            6.4097     0.5817    -4.6855 H       
  51 H51            5.5366    -0.7782    -3.9393 H       
  52 H52            6.9758     0.3731    -2.2804 H       
  53 H53            8.4005     0.0631    -3.3013 H       
  54 H54            5.2573    -1.8323    -6.1873 H       
  55 H55            6.1303    -0.4724    -6.9334 H       
  56 H56            6.6821    -2.1423    -7.2081 H       
  57 H57            7.1606    -1.6315     2.5912 H       
  58 H58            8.5604    -0.8148     3.3271 H       
  59 H59           10.1111    -2.4257     2.4448 H       
  60 H60            8.8401    -3.3613     1.6217 H       
  61 H61           11.8694    -4.1438    -0.2420 H       
  62 H62           11.8112    -3.9247     1.5234 H       
  63 H63           10.5401    -4.8603     0.7004 H       
  64 H64            5.6840     0.1138     3.4628 H       
  65 H65            7.0838     0.9305     4.1988 H       
  66 H66            6.0472     1.8059     3.0467 H       
  67 H67           -0.5844    -2.4941     5.9383 H       
  68 H68            1.0166    -3.0106     7.7027 H       
  69 H69            3.4272    -3.0821     7.2301 H       
  70 H70            4.2751    -2.6425     4.9906 H       
  71 H71            6.2740     2.9654    -0.3765 H       
@<TRIPOS>BOND
   1    1    2 ar
   2    1    6 ar
   3    1   38 1
   4    2    3 ar
   5    2   31 ar
   6    3    4 ar
   7    3   34 ar
   8    4    5 ar
   9    5    6 ar
  10    5    7 1
  11    6   39 1
  12    7    8 1
  13    8    9 ar
  14    8   13 ar
  15    9   10 ar
  16    9   40 1
  17   10   11 ar
  18   10   41 1
  19   11   12 ar
  20   11   14 1
  21   12   13 ar
  22   12   35 1
  23   13   42 1
  24   14   15 am
  25   14   16 1
  26   15   17 2
  27   15   18 1
  28   16   25 1
  29   16   27 1
  30   16   43 1
  31   18   19 1
  32   18   23 1
  33   18   44 1
  34   19   20 1
  35   19   45 1
  36   19   46 1
  37   20   21 1
  38   20   47 1
  39   20   48 1
  40   21   22 1
  41   21   24 1
  42   21   49 1
  43   22   23 1
  44   22   50 1
  45   22   51 1
  46   23   52 1
  47   23   53 1
  48   24   54 1
  49   24   55 1
  50   24   56 1
  51   25   29 1
  52   25   57 1
  53   25   58 1
  54   26   27 1
  55   26   28 1
  56   27   59 1
  57   27   60 1
  58   28   61 1
  59   28   62 1
  60   28   63 1
  61   29   30 1
  62   30   64 1
  63   30   65 1
  64   30   66 1
  65   31   32 ar
  66   31   67 1
  67   32   33 ar
  68   32   68 1
  69   33   34 ar
  70   33   69 1
  71   34   70 1
  72   35   36 2
  73   35   37 1
  74   37   71 1

#	End of record

