#	Name: ASD03320132
#	Creating user name:	WinNT
#	Creation time:	15. 06. 2019 20:36

#	Modifying user name:	WinNT
#	Modification time:	15. 06. 2019 20:36

#	Program:	/corina/corina34_cracker 3.40 0067  02.08.2006

@<TRIPOS>MOLECULE
ASD03320132
  50   53    0    0    0
SMALL
NO_CHARGES


@<TRIPOS>ATOM
   1 C1            -0.0181     1.4707     0.0148 C.2     
   2 C2             0.0015    -0.0045     0.0117 C.ar    
   3 C3             1.2193    -0.6863     0.0012 C.ar    
   4 C4             1.2325    -2.0757    -0.0016 C.ar    
   5 C5             0.0205    -2.7848     0.0060 C.ar    
   6 C6            -1.1872    -2.0968     0.0165 C.ar    
   7 C7            -1.2003    -0.7199     0.0251 C.ar    
   8 O8             1.0269     2.0926     0.0081 O.2     
   9 N9            -1.1941     2.1290     0.0193 N.am    
  10 N10            2.8120    -3.9371     0.6876 N.pl3   
  11 N11            4.1336    -4.2931     0.3895 N.2     
  12 C12            4.6199    -3.4177    -0.4533 C.2     
  13 C13            3.6342    -2.4696    -0.7282 C.2     
  14 C14            2.5190    -2.8054    -0.0132 C.2     
  15 N15            0.0285    -4.1735     0.0028 N.3     
  16 C16           -0.6475    -4.7086     1.1988 C.3     
  17 C17           -1.7820    -5.6324     0.7079 C.3     
  18 C18           -1.3257    -6.0153    -0.7246 C.3     
  19 C19           -0.6502    -4.7044    -1.1986 C.3     
  20 O20           -1.8808    -6.7942     1.5342 O.3     
  21 C21           -1.2149     3.5246     0.1327 C.ar    
  22 C22           -2.1832     4.2616    -0.5363 C.ar    
  23 C23           -2.2033     5.6377    -0.4236 C.ar    
  24 C24           -1.2562     6.2840     0.3573 C.ar    
  25 C25           -0.2883     5.5485     1.0255 C.ar    
  26 C26           -0.2707     4.1718     0.9187 C.ar    
  27 O27           -1.2764     7.6391     0.4674 O.3     
  28 C28           -0.2715     8.2383     1.2878 C.3     
  29 F29           -0.3864     7.7532     2.5950 F       
  30 F30            0.9937     7.9211     0.7822 F       
  31 Cl31          -0.4862    10.0285     1.2901 Cl      
  32 H32            2.1484    -0.1356    -0.0050 H       
  33 H33           -2.1184    -2.6439     0.0224 H       
  34 H34           -2.1417    -0.1906     0.0377 H       
  35 H35           -2.0262     1.6361    -0.0560 H       
  36 H36            2.2118    -4.4129     1.2827 H       
  37 H37            5.6177    -3.4276    -0.8665 H       
  38 H38            3.7348    -1.6207    -1.3883 H       
  39 H39            0.0602    -5.2783     1.8011 H       
  40 H40           -1.0637    -3.8905     1.7867 H       
  41 H41           -2.7306    -5.0964     0.6799 H       
  42 H42           -0.6097    -6.8367    -0.6998 H       
  43 H43           -2.1807    -6.2635    -1.3534 H       
  44 H44           -1.4003    -3.9979    -1.5541 H       
  45 H45            0.0766    -4.9142    -1.9834 H       
  46 H46           -2.5791    -7.4078     1.2681 H       
  47 H47           -2.9202     3.7587    -1.1448 H       
  48 H48           -2.9564     6.2110    -0.9438 H       
  49 H49            0.4492     6.0524     1.6326 H       
  50 H50            0.4800     3.5990     1.4429 H       
@<TRIPOS>BOND
   1    1    2 1
   2    1    8 2
   3    1    9 am
   4    2    3 ar
   5    2    7 ar
   6    3    4 ar
   7    3   32 1
   8    4    5 ar
   9    4   14 1
  10    5    6 ar
  11    5   15 1
  12    6    7 ar
  13    6   33 1
  14    7   34 1
  15    9   21 1
  16    9   35 1
  17   10   11 1
  18   10   14 1
  19   10   36 1
  20   11   12 2
  21   12   13 1
  22   12   37 1
  23   13   14 2
  24   13   38 1
  25   15   16 1
  26   15   19 1
  27   16   17 1
  28   16   39 1
  29   16   40 1
  30   17   18 1
  31   17   20 1
  32   17   41 1
  33   18   19 1
  34   18   42 1
  35   18   43 1
  36   19   44 1
  37   19   45 1
  38   20   46 1
  39   21   22 ar
  40   21   26 ar
  41   22   23 ar
  42   22   47 1
  43   23   24 ar
  44   23   48 1
  45   24   25 ar
  46   24   27 1
  47   25   26 ar
  48   25   49 1
  49   26   50 1
  50   27   28 1
  51   28   29 1
  52   28   30 1
  53   28   31 1

#	End of record

