#	Name: ASD05940109
#	Creating user name:	WinNT
#	Creation time:	15. 06. 2019 21:04

#	Modifying user name:	WinNT
#	Modification time:	15. 06. 2019 21:04

#	Program:	/corina/corina34_cracker 3.40 0067  02.08.2006

@<TRIPOS>MOLECULE
ASD05940109
  68   70    0    0    0
SMALL
NO_CHARGES


@<TRIPOS>ATOM
   1 O1            -1.2785    -2.1515    -1.1652 O.3     
   2 C2             0.1322    -1.9795    -1.0155 C.3     
   3 C3             0.4845    -0.4985    -1.1679 C.3     
   4 N4             0.1055    -0.0407    -2.5113 N.3     
   5 C5             0.0740     1.4264    -2.5782 C.3     
   6 C6             1.0071    -0.5949    -3.5301 C.3     
   7 C7             0.4508    -0.3104    -4.9015 C.2     
   8 C8             0.7163     0.8219    -5.6786 C.2     
   9 C9             1.6105     1.9708    -5.2895 C.3     
  10 C10           -0.3893    -1.1078    -5.6011 C.2     
  11 N11           -0.6508    -0.4990    -6.7766 N.pl3   
  12 N12            0.0548     0.7109    -6.8020 N.2     
  13 C13           -0.9343    -2.4380    -5.1488 C.3     
  14 C14           -3.8316    -1.3320    -6.9466 C.ar    
  15 C15           -2.9272    -0.5337    -7.6167 C.ar    
  16 C16           -1.5165    -1.0143    -7.8403 C.3     
  17 C17           -5.1270    -0.8925    -6.7410 C.ar    
  18 C18           -5.5248     0.3486    -7.2056 C.ar    
  19 C19           -4.6302     1.1564    -7.8767 C.ar    
  20 C20           -3.3219     0.7190    -8.0873 C.ar    
  21 C21            0.5611    -2.4658     0.3703 C.3     
  22 O22            0.3391    -3.8739     0.4709 O.3     
  23 C23            0.6699    -4.4685     1.6482 C.ar    
  24 C24            0.4804    -5.8325     1.8135 C.ar    
  25 C25            0.8164    -6.4365     3.0095 C.ar    
  26 C26            1.3438    -5.6791     4.0448 C.ar    
  27 C27            1.5342    -4.3153     3.8791 C.ar    
  28 C28            1.2022    -3.7120     2.6817 C.ar    
  29 O29            1.6737    -6.2735     5.2225 O.3     
  30 C30           -2.3582     1.5794    -8.8056 C.2     
  31 C31           -2.7360     2.7693    -9.2512 C.2     
  32 C32            2.2118    -5.4329     6.2451 C.3     
  33 C33            2.5199    -6.2730     7.4862 C.3     
  34 H34           -1.8051    -1.6648    -0.5165 H       
  35 H35            0.6518    -2.5571    -1.7801 H       
  36 H36           -0.0558     0.0823    -0.4203 H       
  37 H37            1.5569    -0.3637    -1.0272 H       
  38 H38            1.0810     1.8184    -2.4354 H       
  39 H39           -0.3023     1.7377    -3.5527 H       
  40 H40           -0.5801     1.8118    -1.7961 H       
  41 H41            1.9904    -0.1345    -3.4342 H       
  42 H42            1.0951    -1.6723    -3.3901 H       
  43 H43            2.6286     1.7674    -5.6215 H       
  44 H44            1.2512     2.8862    -5.7596 H       
  45 H45            1.5986     2.0898    -4.2061 H       
  46 H46           -1.8714    -2.2837    -4.6138 H       
  47 H47           -1.1120    -3.0722    -6.0173 H       
  48 H48           -0.2139    -2.9202    -4.4881 H       
  49 H49           -3.5287    -2.3038    -6.5857 H       
  50 H50           -1.1591    -0.6555    -8.8055 H       
  51 H51           -1.4977    -2.1041    -7.8281 H       
  52 H52           -5.8310    -1.5210    -6.2159 H       
  53 H53           -6.5378     0.6857    -7.0426 H       
  54 H54           -4.9421     2.1248    -8.2391 H       
  55 H55            1.6199    -2.2534     0.5184 H       
  56 H56           -0.0230    -1.9506     1.1329 H       
  57 H57            0.0697    -6.4222     1.0074 H       
  58 H58            0.6681    -7.4984     3.1385 H       
  59 H59            1.9449    -3.7255     4.6853 H       
  60 H60            1.3505    -2.6500     2.5526 H       
  61 H61           -1.3462     1.2385    -8.9674 H       
  62 H62           -3.7480     3.1102    -9.0894 H       
  63 H63           -2.0319     3.3980    -9.7759 H       
  64 H64            3.1286    -4.9654     5.8861 H       
  65 H65            1.4859    -4.6608     6.5001 H       
  66 H66            1.6031    -6.7406     7.8452 H       
  67 H67            3.2458    -7.0452     7.2312 H       
  68 H68            2.9304    -5.6318     8.2663 H       
@<TRIPOS>BOND
   1    1    2 1
   2    1   34 1
   3    2    3 1
   4    2   21 1
   5    2   35 1
   6    3    4 1
   7    3   36 1
   8    3   37 1
   9    4    5 1
  10    4    6 1
  11    5   38 1
  12    5   39 1
  13    5   40 1
  14    6    7 1
  15    6   41 1
  16    6   42 1
  17    7    8 1
  18    7   10 2
  19    8    9 1
  20    8   12 2
  21    9   43 1
  22    9   44 1
  23    9   45 1
  24   10   11 1
  25   10   13 1
  26   11   12 1
  27   11   16 1
  28   13   46 1
  29   13   47 1
  30   13   48 1
  31   14   15 ar
  32   14   17 ar
  33   14   49 1
  34   15   16 1
  35   15   20 ar
  36   16   50 1
  37   16   51 1
  38   17   18 ar
  39   17   52 1
  40   18   19 ar
  41   18   53 1
  42   19   20 ar
  43   19   54 1
  44   20   30 1
  45   21   22 1
  46   21   55 1
  47   21   56 1
  48   22   23 1
  49   23   24 ar
  50   23   28 ar
  51   24   25 ar
  52   24   57 1
  53   25   26 ar
  54   25   58 1
  55   26   27 ar
  56   26   29 1
  57   27   28 ar
  58   27   59 1
  59   28   60 1
  60   29   32 1
  61   30   31 2
  62   30   61 1
  63   31   62 1
  64   31   63 1
  65   32   33 1
  66   32   64 1
  67   32   65 1
  68   33   66 1
  69   33   67 1
  70   33   68 1

#	End of record

