#	Name: ASD08150640
#	Creating user name:	WinNT
#	Creation time:	15. 06. 2019 21:16

#	Modifying user name:	WinNT
#	Modification time:	15. 06. 2019 21:16

#	Program:	/corina/corina34_cracker 3.40 0067  02.08.2006

@<TRIPOS>MOLECULE
ASD08150640
  61   66    0    0    0
SMALL
NO_CHARGES


@<TRIPOS>ATOM
   1 N1             0.3198     1.9951    -0.5803 N.am    
   2 C2             0.4116     0.8455    -1.2766 C.2     
   3 C3             1.6289     0.1385    -1.3490 C.2     
   4 C4             2.7316     0.6101    -0.7132 C.2     
   5 C5             2.6387     1.8192     0.0202 C.ar    
   6 C6             3.7520     2.3523     0.6975 C.ar    
   7 N7             3.6634     3.4679     1.3734 N.ar    
   8 C8             2.5202     4.1647     1.4616 C.ar    
   9 C9             1.3494     3.7032     0.8112 C.ar    
  10 C10            1.4117     2.4986     0.0718 C.ar    
  11 C11            0.1628     4.4362     0.9100 C.ar    
  12 C12            0.1453     5.6101     1.6456 C.ar    
  13 C13            1.3079     6.0606     2.2865 C.ar    
  14 C14            2.4696     5.3589     2.1993 C.ar    
  15 O15           -0.5717     0.4106    -1.8517 O.2     
  16 C16           -1.1091     6.3941     1.7552 C.ar    
  17 C17           -0.9001     2.6822    -0.5285 C.ar    
  18 C18           -1.1377     3.7417    -1.3947 C.ar    
  19 C19           -2.3396     4.4183    -1.3441 C.ar    
  20 C20           -3.3118     4.0397    -0.4267 C.ar    
  21 C21           -3.0740     2.9800     0.4396 C.ar    
  22 C22           -1.8740     2.3002     0.3851 C.ar    
  23 N23           -4.5290     4.7253    -0.3750 N.3     
  24 C24           -1.1071     7.6550     2.3612 C.ar    
  25 C25           -2.3001     8.3479     2.4395 C.ar    
  26 C26           -3.4537     7.7745     1.9181 C.ar    
  27 N27           -3.4220     6.5793     1.3513 N.ar    
  28 C28           -2.3045     5.8881     1.2512 C.ar    
  29 C29           -5.5024     4.0073     0.4577 C.3     
  30 C30           -6.7680     4.8541     0.6103 C.3     
  31 C31           -7.3598     5.1326    -0.7742 C.3     
  32 C32           -6.3096     5.8375    -1.6372 C.3     
  33 C33           -5.0573     4.9622    -1.7245 C.3     
  34 O34           -4.6283     8.4491     1.9916 O.3     
  35 C35           -5.7998     7.7625     1.5466 C.3     
  36 H36            1.6843    -0.7815    -1.9119 H       
  37 H37            3.6663     0.0715    -0.7653 H       
  38 H38            4.6965     1.8299     0.6583 H       
  39 H39           -0.7333     4.0901     0.4163 H       
  40 H40            1.2807     6.9773     2.8568 H       
  41 H41            3.3558     5.7204     2.6997 H       
  42 H42           -0.3818     4.0362    -2.1076 H       
  43 H43           -2.5242     5.2424    -2.0173 H       
  44 H44           -3.8296     2.6855     1.1528 H       
  45 H45           -1.6908     1.4735     1.0555 H       
  46 H46           -0.1955     8.0765     2.7584 H       
  47 H47           -2.3357     9.3237     2.9009 H       
  48 H48           -2.3176     4.9155     0.7819 H       
  49 H49           -5.7551     3.0584    -0.0153 H       
  50 H50           -5.0706     3.8193     1.4407 H       
  51 H51           -7.4963     4.3142     1.2155 H       
  52 H52           -6.5184     5.7975     1.0958 H       
  53 H53           -7.6455     4.1915    -1.2442 H       
  54 H54           -8.2371     5.7716    -0.6735 H       
  55 H55           -6.7104     6.0002    -2.6377 H       
  56 H56           -6.0527     6.7964    -1.1870 H       
  57 H57           -4.3022     5.4677    -2.3265 H       
  58 H58           -5.3121     4.0088    -2.1874 H       
  59 H59           -6.6472     8.4480     1.5528 H       
  60 H60           -5.6406     7.3907     0.5344 H       
  61 H61           -6.0053     6.9249     2.2132 H       
@<TRIPOS>BOND
   1    1    2 am
   2    1   10 1
   3    1   17 1
   4    2    3 1
   5    2   15 2
   6    3    4 2
   7    3   36 1
   8    4    5 1
   9    4   37 1
  10    5    6 ar
  11    5   10 ar
  12    6    7 ar
  13    6   38 1
  14    7    8 ar
  15    8    9 ar
  16    8   14 ar
  17    9   10 ar
  18    9   11 ar
  19   11   12 ar
  20   11   39 1
  21   12   13 ar
  22   12   16 1
  23   13   14 ar
  24   13   40 1
  25   14   41 1
  26   16   24 ar
  27   16   28 ar
  28   17   18 ar
  29   17   22 ar
  30   18   19 ar
  31   18   42 1
  32   19   20 ar
  33   19   43 1
  34   20   21 ar
  35   20   23 1
  36   21   22 ar
  37   21   44 1
  38   22   45 1
  39   23   29 1
  40   23   33 1
  41   24   25 ar
  42   24   46 1
  43   25   26 ar
  44   25   47 1
  45   26   27 ar
  46   26   34 1
  47   27   28 ar
  48   28   48 1
  49   29   30 1
  50   29   49 1
  51   29   50 1
  52   30   31 1
  53   30   51 1
  54   30   52 1
  55   31   32 1
  56   31   53 1
  57   31   54 1
  58   32   33 1
  59   32   55 1
  60   32   56 1
  61   33   57 1
  62   33   58 1
  63   34   35 1
  64   35   59 1
  65   35   60 1
  66   35   61 1

#	End of record

