#	Name: ASD03082096
#	Creating user name:	WinNT
#	Creation time:	15. 06. 2019 20:27

#	Modifying user name:	WinNT
#	Modification time:	15. 06. 2019 20:27

#	Program:	/corina/corina34_cracker 3.40 0067  02.08.2006

@<TRIPOS>MOLECULE
ASD03082096
  62   65    0    0    0
SMALL
NO_CHARGES


@<TRIPOS>ATOM
   1 C1             0.0077     1.4198     0.4634 C.3     
   2 O2             0.0162    -0.0193     0.2709 O.3     
   3 C3            -1.1690    -0.6548     0.3554 C.2     
   4 C4            -1.2368    -2.1166     0.1707 C.ar    
   5 C5            -0.0649    -2.8641     0.0483 C.ar    
   6 C6            -0.1344    -4.2310    -0.1243 C.ar    
   7 C7            -1.3623    -4.8694    -0.1771 C.ar    
   8 C8            -2.5325    -4.1462    -0.0583 C.ar    
   9 C9            -2.4835    -2.7673     0.1227 C.ar    
  10 C10            1.4097     3.4894     0.4106 C.3     
  11 C11            1.4330     1.9604     0.3322 C.3     
  12 C12            2.2954     1.4118     1.4723 C.3     
  13 C13            3.7031     2.0035     1.3709 C.3     
  14 N14            3.6269     3.4678     1.4517 N.3     
  15 C15            2.8431     4.0209     0.3399 C.3     
  16 C16            4.9691     4.0631     1.4969 C.3     
  17 C17            4.8602     5.5800     1.3294 C.3     
  18 C18            6.2582     6.2000     1.3765 C.3     
  19 C19            6.1508     7.6941     1.2116 C.ar    
  20 C20            6.0066     8.5035     2.3228 C.ar    
  21 C21            5.9081     9.8740     2.1715 C.ar    
  22 C22            5.9543    10.4351     0.9090 C.ar    
  23 C23            6.0995     9.6258    -0.2022 C.ar    
  24 C24            6.2023     8.2556    -0.0506 C.ar    
  25 C25           -3.7369    -1.9872     0.2506 C.ar    
  26 C26           -4.0080    -0.9475    -0.6381 C.ar    
  27 C27           -5.1769    -0.2246    -0.5139 C.ar    
  28 C28           -6.0785    -0.5293     0.4900 C.ar    
  29 C29           -5.8147    -1.5594     1.3750 C.ar    
  30 C30           -4.6524    -2.2937     1.2567 C.ar    
  31 O31           -2.1818    -0.0237     0.5836 O.2     
  32 H32           -0.6276     1.8836    -0.2911 H       
  33 H33           -0.3787     1.6514     1.4560 H       
  34 H34            0.8960    -2.3727     0.0882 H       
  35 H35            0.7743    -4.8068    -0.2191 H       
  36 H36           -1.4048    -5.9400    -0.3125 H       
  37 H37           -3.4860    -4.6515    -0.1009 H       
  38 H38            0.8323     3.8878    -0.4237 H       
  39 H39            0.9528     3.7986     1.3506 H       
  40 H40            1.8532     1.6511    -0.6249 H       
  41 H41            1.8525     1.6883     2.4291 H       
  42 H42            2.3508     0.3258     1.3966 H       
  43 H43            4.3156     1.6260     2.1897 H       
  44 H44            4.1506     1.7151     0.4198 H       
  45 H45            3.2946     3.7230    -0.6063 H       
  46 H46            2.8310     5.1086     0.4099 H       
  47 H47            5.4353     3.8359     2.4556 H       
  48 H48            5.5765     3.6513     0.6909 H       
  49 H49            4.3941     5.8071     0.3707 H       
  50 H50            4.2528     5.9918     2.1354 H       
  51 H51            6.7243     5.9728     2.3352 H       
  52 H52            6.8656     5.7882     0.5705 H       
  53 H53            5.9705     8.0651     3.3092 H       
  54 H54            5.7947    10.5064     3.0397 H       
  55 H55            5.8767    11.5058     0.7908 H       
  56 H56            6.1352    10.0641    -1.1886 H       
  57 H57            6.3157     7.6232    -0.9187 H       
  58 H58           -3.3045    -0.7083    -1.4218 H       
  59 H59           -5.3880     0.5809    -1.2017 H       
  60 H60           -6.9918     0.0395     0.5835 H       
  61 H61           -6.5222    -1.7925     2.1570 H       
  62 H62           -4.4477    -3.0978     1.9480 H       
@<TRIPOS>BOND
   1    1    2 1
   2    1   11 1
   3    1   32 1
   4    1   33 1
   5    2    3 1
   6    3    4 1
   7    3   31 2
   8    4    5 ar
   9    4    9 ar
  10    5    6 ar
  11    5   34 1
  12    6    7 ar
  13    6   35 1
  14    7    8 ar
  15    7   36 1
  16    8    9 ar
  17    8   37 1
  18    9   25 1
  19   10   11 1
  20   10   15 1
  21   10   38 1
  22   10   39 1
  23   11   12 1
  24   11   40 1
  25   12   13 1
  26   12   41 1
  27   12   42 1
  28   13   14 1
  29   13   43 1
  30   13   44 1
  31   14   15 1
  32   14   16 1
  33   15   45 1
  34   15   46 1
  35   16   17 1
  36   16   47 1
  37   16   48 1
  38   17   18 1
  39   17   49 1
  40   17   50 1
  41   18   19 1
  42   18   51 1
  43   18   52 1
  44   19   20 ar
  45   19   24 ar
  46   20   21 ar
  47   20   53 1
  48   21   22 ar
  49   21   54 1
  50   22   23 ar
  51   22   55 1
  52   23   24 ar
  53   23   56 1
  54   24   57 1
  55   25   26 ar
  56   25   30 ar
  57   26   27 ar
  58   26   58 1
  59   27   28 ar
  60   27   59 1
  61   28   29 ar
  62   28   60 1
  63   29   30 ar
  64   29   61 1
  65   30   62 1

#	End of record

