#	Name: ASD01811461
#	Creating user name:	WinNT
#	Creation time:	15. 06. 2019 19:26

#	Modifying user name:	WinNT
#	Modification time:	15. 06. 2019 19:26

#	Program:	/corina/corina34_cracker 3.40 0067  02.08.2006

@<TRIPOS>MOLECULE
ASD01811461
  67   71    0    0    0
SMALL
NO_CHARGES


@<TRIPOS>ATOM
   1 C1            -7.7239     2.5987    -4.2243 C.1     
   2 C2            -6.7065     3.3428    -3.5445 C.ar    
   3 C3            -5.5295     2.7113    -3.1375 C.ar    
   4 C4            -4.5537     3.4341    -2.4831 C.ar    
   5 C5            -4.7393     4.7815    -2.2293 C.ar    
   6 C6            -5.9034     5.4134    -2.6294 C.ar    
   7 C7            -6.8846     4.7042    -3.2907 C.ar    
   8 N8            -8.5309     2.0085    -4.7635 N.1     
   9 N9            -2.5688     7.9124    -0.3836 N.am    
  10 C10           -2.0713     7.4759    -1.6953 C.3     
  11 C11           -3.1832     6.7037    -2.4124 C.3     
  12 C12           -3.6689     5.5643    -1.5135 C.3     
  13 C13           -4.2412     6.1433    -0.2175 C.3     
  14 C14           -3.1413     6.9091     0.5244 C.3     
  15 C15           -2.4963     9.2076    -0.0179 C.2     
  16 C16           -3.0784     9.6463     1.2686 C.ar    
  17 C17           -4.0247    10.6734     1.2947 C.ar    
  18 C18           -4.5689    11.0841     2.4950 C.ar    
  19 C19           -4.1821    10.4836     3.6771 C.ar    
  20 C20           -3.2372     9.4559     3.6651 C.ar    
  21 C21           -2.6885     9.0323     2.4568 C.ar    
  22 O22           -1.9523    10.0150    -0.7457 O.2     
  23 C23           -2.8238     8.8144     4.9323 C.2     
  24 N24           -1.8335     7.8814     5.0705 N.pl3   
  25 C25           -1.7805     7.5571     6.3886 C.2     
  26 C26           -2.7275     8.2916     7.0225 C.2     
  27 N27           -3.3434     9.0492     6.1204 N.2     
  28 C28           -0.8780     6.5801     7.0968 C.3     
  29 C29           -2.9652     8.2037     8.5111 C.3     
  30 C30           -1.7476     7.5101     9.1390 C.3     
  31 O31           -1.4302     6.3294     8.3967 O.3     
  32 C32           -3.1197     9.6093     9.0953 C.3     
  33 C33           -4.7809    10.9392     4.9828 C.3     
  34 C34           -4.4520    11.3350     0.0099 C.3     
  35 C35           -5.4844    10.4552    -0.6980 C.3     
  36 H36           -5.3836     1.6595    -3.3343 H       
  37 H37           -3.6428     2.9469    -2.1677 H       
  38 H38           -6.0420     6.4653    -2.4279 H       
  39 H39           -7.7907     5.1997    -3.6068 H       
  40 H40           -1.7905     8.3466    -2.2879 H       
  41 H41           -1.2050     6.8283    -1.5605 H       
  42 H42           -4.0133     7.3767    -2.6273 H       
  43 H43           -2.7972     6.2920    -3.3449 H       
  44 H44           -2.8329     4.9055    -1.2785 H       
  45 H45           -5.0613     6.8215    -0.4531 H       
  46 H46           -4.6083     5.3328     0.4121 H       
  47 H47           -2.3623     6.2153     0.8402 H       
  48 H48           -3.5665     7.4059     1.3965 H       
  49 H49           -5.3003    11.8787     2.5099 H       
  50 H50           -1.9608     8.2344     2.4417 H       
  51 H51           -1.2765     7.5202     4.3633 H       
  52 H52           -0.8275     5.6491     6.5321 H       
  53 H53            0.1203     7.0061     7.1963 H       
  54 H54           -3.8647     7.6203     8.7076 H       
  55 H55           -0.8951     8.1891     9.1229 H       
  56 H56           -1.9758     7.2399    10.1700 H       
  57 H57           -3.9668    10.1076     8.6240 H       
  58 H58           -3.2910     9.5395    10.1695 H       
  59 H59           -2.2113    10.1822     8.9087 H       
  60 H60           -5.6169    10.2908     5.2450 H       
  61 H61           -4.0243    10.8910     5.7660 H       
  62 H62           -5.1346    11.9653     4.8820 H       
  63 H63           -4.8933    12.3069     0.2309 H       
  64 H64           -3.5843    11.4684    -0.6362 H       
  65 H65           -6.3521    10.3218    -0.0519 H       
  66 H66           -5.7935    10.9337    -1.6273 H       
  67 H67           -5.0432     9.4834    -0.9190 H       
@<TRIPOS>BOND
   1    1    2 1
   2    1    8 3
   3    2    3 ar
   4    2    7 ar
   5    3    4 ar
   6    3   36 1
   7    4    5 ar
   8    4   37 1
   9    5    6 ar
  10    5   12 1
  11    6    7 ar
  12    6   38 1
  13    7   39 1
  14    9   10 1
  15    9   14 1
  16    9   15 am
  17   10   11 1
  18   10   40 1
  19   10   41 1
  20   11   12 1
  21   11   42 1
  22   11   43 1
  23   12   13 1
  24   12   44 1
  25   13   14 1
  26   13   45 1
  27   13   46 1
  28   14   47 1
  29   14   48 1
  30   15   16 1
  31   15   22 2
  32   16   17 ar
  33   16   21 ar
  34   17   18 ar
  35   17   34 1
  36   18   19 ar
  37   18   49 1
  38   19   20 ar
  39   19   33 1
  40   20   21 ar
  41   20   23 1
  42   21   50 1
  43   23   24 1
  44   23   27 2
  45   24   25 1
  46   24   51 1
  47   25   26 2
  48   25   28 1
  49   26   27 1
  50   26   29 1
  51   28   31 1
  52   28   52 1
  53   28   53 1
  54   29   30 1
  55   29   32 1
  56   29   54 1
  57   30   31 1
  58   30   55 1
  59   30   56 1
  60   32   57 1
  61   32   58 1
  62   32   59 1
  63   33   60 1
  64   33   61 1
  65   33   62 1
  66   34   35 1
  67   34   63 1
  68   34   64 1
  69   35   65 1
  70   35   66 1
  71   35   67 1

#	End of record

