#	Name: ASD01901121
#	Creating user name:	WinNT
#	Creation time:	15. 06. 2019 19:53

#	Modifying user name:	WinNT
#	Modification time:	15. 06. 2019 19:53

#	Program:	/corina/corina34_cracker 3.40 0067  02.08.2006

@<TRIPOS>MOLECULE
ASD01901121
  58   62    0    0    0
SMALL
NO_CHARGES


@<TRIPOS>ATOM
   1 C1             0.1349     0.8642    -0.2688 C.ar    
   2 C2             0.3154    -0.5028    -0.3065 C.ar    
   3 C3             1.5883    -1.0417    -0.4108 C.ar    
   4 C4             2.6962    -0.2186    -0.4731 C.ar    
   5 C5             2.5328     1.1559    -0.4342 C.ar    
   6 C6             1.2423     1.7060    -0.3380 C.ar    
   7 N7             3.6181     2.0237    -0.4782 N.pl3   
   8 C8             3.4293     3.3642    -1.0439 C.3     
   9 N9             2.1755     3.9458    -0.5628 N.am    
  10 C10            1.1028     3.1723    -0.3025 C.2     
  11 C11            2.0889     5.3300    -0.3688 C.ar    
  12 C12            1.4370     6.1232    -1.3038 C.ar    
  13 C13            1.3521     7.4880    -1.1118 C.ar    
  14 C14            1.9178     8.0668     0.0149 C.ar    
  15 C15            2.5691     7.2751     0.9494 C.ar    
  16 C16            2.6499     5.9095     0.7616 C.ar    
  17 O17            0.0292     3.6801    -0.0406 O.2     
  18 O18            1.8341     9.4108     0.2031 O.3     
  19 C19            4.5991     4.2598    -0.6251 C.3     
  20 C20            3.3939     3.2687    -2.5719 C.3     
  21 C21            3.2640     4.6749    -3.1619 C.3     
  22 N22            4.4030     5.4955    -2.7311 N.3     
  23 C23            4.4338     5.6379    -1.2700 C.3     
  24 C24            4.3835     6.8094    -3.3877 C.3     
  25 C25            5.5015     7.6602    -2.8426 C.ar    
  26 C26            2.4388     9.9393     1.3851 C.3     
  27 C27            6.7770     7.5404    -3.3623 C.ar    
  28 C28            7.8030     8.3204    -2.8634 C.ar    
  29 C29            7.5532     9.2220    -1.8428 C.ar    
  30 C30            6.2753     9.3411    -1.3231 C.ar    
  31 C31            5.2498     8.5638    -1.8271 C.ar    
  32 F32            8.5555     9.9846    -1.3540 F       
  33 H33           -0.8591     1.2791    -0.1908 H       
  34 H34           -0.5414    -1.1582    -0.2539 H       
  35 H35            1.7150    -2.1137    -0.4434 H       
  36 H36            3.6853    -0.6453    -0.5514 H       
  37 H37            4.4846     1.7479    -0.1407 H       
  38 H38            0.9969     5.6727    -2.1812 H       
  39 H39            0.8454     8.1050    -1.8391 H       
  40 H40            3.0093     7.7264     1.8264 H       
  41 H41            3.1532     5.2927     1.4915 H       
  42 H42            4.6075     4.3641     0.4599 H       
  43 H43            5.5365     3.8129    -0.9561 H       
  44 H44            4.3146     2.8076    -2.9292 H       
  45 H45            2.5403     2.6647    -2.8792 H       
  46 H46            3.2525     4.6124    -4.2501 H       
  47 H47            2.3365     5.1301    -2.8147 H       
  48 H48            3.5018     6.0889    -0.9293 H       
  49 H49            5.2710     6.2751    -0.9848 H       
  50 H50            4.5155     6.6807    -4.4620 H       
  51 H51            3.4282     7.2978    -3.1950 H       
  52 H52            1.9733     9.4911     2.2629 H       
  53 H53            3.5043     9.7098     1.3818 H       
  54 H54            2.3000    11.0201     1.4121 H       
  55 H55            6.9717     6.8368    -4.1581 H       
  56 H56            8.7994     8.2264    -3.2693 H       
  57 H57            6.0793    10.0440    -0.5269 H       
  58 H58            4.2521     8.6594    -1.4247 H       
@<TRIPOS>BOND
   1    1    2 ar
   2    1    6 ar
   3    1   33 1
   4    2    3 ar
   5    2   34 1
   6    3    4 ar
   7    3   35 1
   8    4    5 ar
   9    4   36 1
  10    5    7 1
  11    5    6 ar
  12    6   10 1
  13    7    8 1
  14    7   37 1
  15    8    9 1
  16    8   20 1
  17    8   19 1
  18    9   10 am
  19    9   11 1
  20   10   17 2
  21   11   12 ar
  22   11   16 ar
  23   12   13 ar
  24   12   38 1
  25   13   14 ar
  26   13   39 1
  27   14   15 ar
  28   14   18 1
  29   15   16 ar
  30   15   40 1
  31   16   41 1
  32   18   26 1
  33   19   23 1
  34   19   42 1
  35   19   43 1
  36   20   21 1
  37   20   44 1
  38   20   45 1
  39   21   22 1
  40   21   46 1
  41   21   47 1
  42   22   23 1
  43   22   24 1
  44   23   48 1
  45   23   49 1
  46   24   25 1
  47   24   50 1
  48   24   51 1
  49   25   27 ar
  50   25   31 ar
  51   26   52 1
  52   26   53 1
  53   26   54 1
  54   27   28 ar
  55   27   55 1
  56   28   29 ar
  57   28   56 1
  58   29   30 ar
  59   29   32 1
  60   30   31 ar
  61   30   57 1
  62   31   58 1

#	End of record

