#	Name: ASD01812878
#	Creating user name:	WinNT
#	Creation time:	15. 06. 2019 19:29

#	Modifying user name:	WinNT
#	Modification time:	15. 06. 2019 19:29

#	Program:	/corina/corina34_cracker 3.40 0067  02.08.2006

@<TRIPOS>MOLECULE
ASD01812878
  57   61    0    0    0
SMALL
NO_CHARGES


@<TRIPOS>ATOM
   1 N1            -0.0158     1.3147     0.0093 N.ar    
   2 C2             0.0021    -0.0041     0.0020 C.ar    
   3 C3             1.1989    -0.7033    -0.0127 C.ar    
   4 C4             2.3829    -0.0013    -0.0202 C.ar    
   5 C5             2.3448     1.3978    -0.0128 C.ar    
   6 C6             1.0955     2.0332     0.0025 C.ar    
   7 C7             3.8373    -0.3889    -0.0363 C.3     
   8 N8             4.5955     0.8684    -0.0373 N.am    
   9 C9             3.7280     1.8961    -0.0237 C.2     
  10 C10            6.0558     0.9844    -0.0504 C.3     
  11 C11            6.5432     1.0311    -1.4757 C.2     
  12 O12            1.0255     3.3856     0.0100 O.3     
  13 O13            4.0429     3.0706    -0.0212 O.2     
  14 C14            6.7052     2.1433    -2.1958 C.2     
  15 C15            7.1647     1.9448    -3.4833 C.2     
  16 C16            7.3781     0.6565    -3.8121 C.2     
  17 S17            6.9914    -0.3710    -2.4379 S.3     
  18 C18           -0.2795     3.9677     0.0251 C.3     
  19 C19           -0.2431     5.3200    -0.6897 C.3     
  20 C20           -1.6403     5.9432    -0.6735 C.3     
  21 C21           -2.0926     6.1436     0.7743 C.3     
  22 C22           -2.1290     4.7913     1.4891 C.3     
  23 C23           -0.7317     4.1681     1.4729 C.3     
  24 O24            0.1794     5.1328    -2.0419 O.3     
  25 C25            7.8682     0.1792    -5.1254 C.2     
  26 C26            8.9360    -0.7154    -5.3414 C.2     
  27 N27            9.0634    -0.8922    -6.6298 N.2     
  28 N28            8.0915    -0.1252    -7.2834 N.pl3   
  29 C29            7.3642     0.5208    -6.3480 C.2     
  30 C30            7.8943    -0.0425    -8.7327 C.3     
  31 C31            9.7837    -1.3557    -4.2726 C.3     
  32 H32           -0.9309    -0.5480     0.0080 H       
  33 H33            1.2023    -1.7833    -0.0178 H       
  34 H34            4.0797    -0.9721     0.8522 H       
  35 H35            4.0624    -0.9631    -0.9351 H       
  36 H36            6.3524     1.8979     0.4651 H       
  37 H37            6.4932     0.1235     0.4552 H       
  38 H38            6.4923     3.1258    -1.8010 H       
  39 H39            7.3386     2.7584    -4.1719 H       
  40 H40           -0.9786     3.3055    -0.4855 H       
  41 H41            0.4561     5.9822    -0.1790 H       
  42 H42           -1.6144     6.9065    -1.1827 H       
  43 H43           -2.3394     5.2810    -1.1842 H       
  44 H44           -1.3934     6.8058     1.2850 H       
  45 H45           -3.0880     6.5876     0.7859 H       
  46 H46           -2.4512     4.9341     2.5206 H       
  47 H47           -2.8281     4.1291     0.9785 H       
  48 H48           -0.7577     3.2048     1.9822 H       
  49 H49           -0.0326     4.8304     1.9836 H       
  50 H50            0.2256     5.9503    -2.5563 H       
  51 H51            6.5354     1.1881    -6.5327 H       
  52 H52            7.1909    -0.8132    -9.0482 H       
  53 H53            7.4969     0.9393    -8.9899 H       
  54 H54            8.8482    -0.1923    -9.2383 H       
  55 H55            9.3340    -2.3015    -3.9703 H       
  56 H56           10.7848    -1.5378    -4.6633 H       
  57 H57            9.8453    -0.6910    -3.4109 H       
@<TRIPOS>BOND
   1    1    2 ar
   2    1    6 ar
   3    2    3 ar
   4    2   32 1
   5    3    4 ar
   6    3   33 1
   7    4    7 1
   8    4    5 ar
   9    5    6 ar
  10    5    9 1
  11    6   12 1
  12    7    8 1
  13    7   34 1
  14    7   35 1
  15    8    9 am
  16    8   10 1
  17    9   13 2
  18   10   11 1
  19   10   36 1
  20   10   37 1
  21   11   14 2
  22   11   17 1
  23   12   18 1
  24   14   15 1
  25   14   38 1
  26   15   16 2
  27   15   39 1
  28   16   17 1
  29   16   25 1
  30   18   19 1
  31   18   23 1
  32   18   40 1
  33   19   20 1
  34   19   24 1
  35   19   41 1
  36   20   21 1
  37   20   42 1
  38   20   43 1
  39   21   22 1
  40   21   44 1
  41   21   45 1
  42   22   23 1
  43   22   46 1
  44   22   47 1
  45   23   48 1
  46   23   49 1
  47   24   50 1
  48   25   26 1
  49   25   29 2
  50   26   27 2
  51   26   31 1
  52   27   28 1
  53   28   29 1
  54   28   30 1
  55   29   51 1
  56   30   52 1
  57   30   53 1
  58   30   54 1
  59   31   55 1
  60   31   56 1
  61   31   57 1

#	End of record

