#	Name: ASD01884695
#	Creating user name:	WinNT
#	Creation time:	15. 06. 2019 19:48

#	Modifying user name:	WinNT
#	Modification time:	15. 06. 2019 19:48

#	Program:	/corina/corina34_cracker 3.40 0067  02.08.2006

@<TRIPOS>MOLECULE
ASD01884695
  68   71    0    0    0
SMALL
NO_CHARGES


@<TRIPOS>ATOM
   1 C1            -0.0168     1.3884     0.0097 C.2     
   2 C2             0.0021    -0.0041     0.0020 C.2     
   3 C3            -1.2095    -0.6965     0.0104 C.2     
   4 C4            -2.3831    -0.0157     0.0252 C.2     
   5 N5            -2.4093     1.3392     0.0327 N.am    
   6 C6            -1.2693     2.0558     0.0312 C.2     
   7 O7            -1.3129     3.2741     0.0383 O.2     
   8 C8            -3.6983     2.0352     0.0483 C.3     
   9 C9             1.2059     2.1337     0.0020 C.1     
  10 N10            2.1759     2.7249    -0.0041 N.1     
  11 C11            1.3105    -0.7515    -0.0155 C.3     
  12 C12           -4.1338     2.2698     1.4962 C.3     
  13 C13           -5.4800     2.9967     1.5124 C.3     
  14 C14           -6.5555     2.0919     0.9078 C.3     
  15 C15           -5.8558     3.3419     2.9548 C.3     
  16 N16            1.6901    -1.1066     1.3585 N.3     
  17 C17            2.8281    -2.0344     1.3670 C.3     
  18 C18            3.3177    -2.2277     2.8059 C.3     
  19 C19            2.1568    -2.7263     3.6636 C.3     
  20 C20            0.9238    -1.8302     3.5699 C.3     
  21 C21            0.5448    -1.6551     2.0957 C.3     
  22 C22            1.8495    -4.2180     3.4774 C.3     
  23 N23            1.6869    -4.2622     4.9484 N.3     
  24 C24            2.5581    -3.0750     5.1026 C.3     
  25 C25            2.3240    -5.4595     5.5127 C.3     
  26 C26            2.3552    -5.3508     7.0155 C.ar    
  27 C27            1.3025    -5.8399     7.7658 C.ar    
  28 C28            1.3312    -5.7402     9.1444 C.ar    
  29 C29            2.4128    -5.1518     9.7724 C.ar    
  30 C30            3.4662    -4.6634     9.0220 C.ar    
  31 C31            3.4395    -4.7670     7.6440 C.ar    
  32 C32            4.6453    -4.0215     9.7066 C.3     
  33 F33            4.4454    -4.0365    11.0912 F       
  34 F34            5.8091    -4.7328     9.3957 F       
  35 F35            4.7758    -2.6993     9.2686 F       
  36 H36           -1.2130    -1.7765     0.0046 H       
  37 H37           -3.3137    -0.5638     0.0308 H       
  38 H38           -3.5999     2.9937    -0.4613 H       
  39 H39           -4.4456     1.4275    -0.4619 H       
  40 H40            1.2023    -1.6595    -0.6087 H       
  41 H41            2.0835    -0.1207    -0.4544 H       
  42 H42           -4.2323     1.3113     2.0058 H       
  43 H43           -3.3866     2.8775     2.0064 H       
  44 H44           -5.4052     3.9132     0.9272 H       
  45 H45           -6.2878     1.8460    -0.1198 H       
  46 H46           -6.6304     1.1754     1.4930 H       
  47 H47           -7.5146     2.6098     0.9194 H       
  48 H48           -5.0896     3.9865     3.3856 H       
  49 H49           -6.8149     3.8597     2.9664 H       
  50 H50           -5.9307     2.4254     3.5401 H       
  51 H51            2.5168    -2.9951     0.9568 H       
  52 H52            3.6356    -1.6246     0.7602 H       
  53 H53            4.1239    -2.9612     2.8214 H       
  54 H54            3.6796    -1.2776     3.1988 H       
  55 H55            0.0955    -2.2922     4.1070 H       
  56 H56            1.1463    -0.8569     4.0073 H       
  57 H57           -0.2999    -0.9707     2.0164 H       
  58 H58            0.2702    -2.6218     1.6737 H       
  59 H59            0.9288    -4.4119     2.9273 H       
  60 H60            2.6960    -4.7988     3.1111 H       
  61 H61            3.6146    -3.3170     5.2180 H       
  62 H62            2.2003    -2.3606     5.8441 H       
  63 H63            1.7556    -6.3437     5.2241 H       
  64 H64            3.3424    -5.5424     5.1332 H       
  65 H65            0.4574    -6.2996     7.2751 H       
  66 H66            0.5083    -6.1217     9.7307 H       
  67 H67            2.4348    -5.0733    10.8493 H       
  68 H68            4.2624    -4.3855     7.0577 H       
@<TRIPOS>BOND
   1    1    2 2
   2    1    9 1
   3    1    6 1
   4    2    3 1
   5    2   11 1
   6    3    4 2
   7    3   36 1
   8    4    5 1
   9    4   37 1
  10    5    8 1
  11    5    6 am
  12    6    7 2
  13    8   12 1
  14    8   38 1
  15    8   39 1
  16    9   10 3
  17   11   16 1
  18   11   40 1
  19   11   41 1
  20   12   13 1
  21   12   42 1
  22   12   43 1
  23   13   14 1
  24   13   15 1
  25   13   44 1
  26   14   45 1
  27   14   46 1
  28   14   47 1
  29   15   48 1
  30   15   49 1
  31   15   50 1
  32   16   17 1
  33   16   21 1
  34   17   18 1
  35   17   51 1
  36   17   52 1
  37   18   19 1
  38   18   53 1
  39   18   54 1
  40   19   20 1
  41   19   22 1
  42   19   24 1
  43   20   21 1
  44   20   55 1
  45   20   56 1
  46   21   57 1
  47   21   58 1
  48   22   23 1
  49   22   59 1
  50   22   60 1
  51   23   24 1
  52   23   25 1
  53   24   61 1
  54   24   62 1
  55   25   26 1
  56   25   63 1
  57   25   64 1
  58   26   27 ar
  59   26   31 ar
  60   27   28 ar
  61   27   65 1
  62   28   29 ar
  63   28   66 1
  64   29   30 ar
  65   29   67 1
  66   30   32 1
  67   30   31 ar
  68   31   68 1
  69   32   33 1
  70   32   34 1
  71   32   35 1

#	End of record

