#	Name: ASD02500839
#	Creating user name:	WinNT
#	Creation time:	15. 06. 2019 20:23

#	Modifying user name:	WinNT
#	Modification time:	15. 06. 2019 20:23

#	Program:	/corina/corina34_cracker 3.40 0067  02.08.2006

@<TRIPOS>MOLECULE
ASD02500839
  38   39    0    0    0
SMALL
NO_CHARGES


@<TRIPOS>ATOM
   1 C1            -0.0168     1.3895     0.0097 C.ar    
   2 C2             0.0021    -0.0041     0.0020 C.ar    
   3 C3            -1.1974    -0.7138     0.0096 C.ar    
   4 C4            -2.4130    -0.0267     0.0249 C.ar    
   5 C5            -2.4278     1.3598     0.0320 C.ar    
   6 C6            -1.2364     2.0694     0.0308 C.ar    
   7 N7            -3.6508     2.0463     0.0464 N.pl3   
   8 C8            -4.1066     2.8398     1.0600 C.2     
   9 C9            -5.3153     3.3221     0.7064 C.2     
  10 C10           -5.6182     2.8091    -0.5709 C.2     
  11 C11           -4.5810     2.0369    -0.9534 C.2     
  12 C12           -3.3841     3.1263     2.3511 C.3     
  13 C13           -4.4715     1.2857    -2.2552 C.3     
  14 C14            1.2520     2.1465     0.0016 C.2     
  15 O15            1.2347     3.3611     0.0083 O.2     
  16 O16            2.4281     1.4898    -0.0131 O.3     
  17 C17            3.6343     2.2980    -0.0203 C.3     
  18 C18           -1.1828    -2.1912     0.0010 C.2     
  19 O19           -2.2286    -2.8090     0.0077 O.2     
  20 O20           -0.0096    -2.8531    -0.0141 O.3     
  21 C21           -0.0713    -4.3038    -0.0218 C.3     
  22 H22            0.9438    -0.5327    -0.0101 H       
  23 H23           -3.3429    -0.5759     0.0308 H       
  24 H24           -1.2519     3.1492     0.0364 H       
  25 H25           -5.9375     3.9804     1.2945 H       
  26 H26           -6.5151     3.0024    -1.1407 H       
  27 H27           -2.7574     4.0097     2.2285 H       
  28 H28           -4.1118     3.3042     3.1429 H       
  29 H29           -2.7606     2.2724     2.6158 H       
  30 H30           -3.9973     1.9215    -3.0029 H       
  31 H31           -3.8705     0.3884    -2.1075 H       
  32 H32           -5.4674     1.0037    -2.5969 H       
  33 H33            3.6417     2.9319    -0.9070 H       
  34 H34            3.6587     2.9223     0.8729 H       
  35 H35            4.5081     1.6465    -0.0321 H       
  36 H36           -0.5914    -4.6501     0.8713 H       
  37 H37           -0.6087    -4.6399    -0.9085 H       
  38 H38            0.9400    -4.7104    -0.0339 H       
@<TRIPOS>BOND
   1    1    2 ar
   2    1   14 1
   3    1    6 ar
   4    2    3 ar
   5    2   22 1
   6    3    4 ar
   7    3   18 1
   8    4    5 ar
   9    4   23 1
  10    5    6 ar
  11    5    7 1
  12    6   24 1
  13    7    8 1
  14    7   11 1
  15    8    9 2
  16    8   12 1
  17    9   10 1
  18    9   25 1
  19   10   11 2
  20   10   26 1
  21   11   13 1
  22   12   27 1
  23   12   28 1
  24   12   29 1
  25   13   30 1
  26   13   31 1
  27   13   32 1
  28   14   15 2
  29   14   16 1
  30   16   17 1
  31   17   33 1
  32   17   34 1
  33   17   35 1
  34   18   19 2
  35   18   20 1
  36   20   21 1
  37   21   36 1
  38   21   37 1
  39   21   38 1

#	End of record

