#	Name: ASD07931924
#	Creating user name:	WinNT
#	Creation time:	15. 06. 2019 21:13

#	Modifying user name:	WinNT
#	Modification time:	15. 06. 2019 21:13

#	Program:	/corina/corina34_cracker 3.40 0067  02.08.2006

@<TRIPOS>MOLECULE
ASD07931924
  27   26    0    0    0
SMALL
NO_CHARGES


@<TRIPOS>ATOM
   1 C1            -0.0184     1.5028     0.0103 C.2     
   2 C2             0.0021    -0.0041     0.0020 C.3     
   3 O3             1.0236     2.1234     0.0037 O.2     
   4 N4            -1.1946     2.1607     0.0195 N.am    
   5 O5             1.3556    -0.4620    -0.0134 O.3     
   6 C6             1.5487    -2.4004     1.4170 C.3     
   7 C7             1.4878    -1.8849    -0.0223 C.3     
   8 C8             2.7526    -2.2674    -0.7468 C.2     
   9 C9             2.6924    -3.0227    -1.8155 C.2     
  10 F10            0.3745    -2.0453     2.0896 F       
  11 F11            1.6781    -3.7934     1.4082 F       
  12 F12            2.6492    -1.8339     2.0690 F       
  13 C13           -1.2145     3.6256     0.0275 C.3     
  14 O14           -2.4111     1.4361     0.0213 O.3     
  15 C15           -2.9043     1.1316     1.3275 C.3     
  16 H16           -0.4983    -0.3791     0.8948 H       
  17 H17           -0.5153    -0.3696    -0.8850 H       
  18 H18            0.6303    -2.3262    -0.5303 H       
  19 H19            3.7086    -1.9188    -0.3851 H       
  20 H20            1.7363    -3.3712    -2.1772 H       
  21 H21            3.5988    -3.2968    -2.3348 H       
  22 H22           -1.2243     3.9944    -0.9981 H       
  23 H23           -2.1068     3.9740     0.5475 H       
  24 H24           -0.3271     3.9982     0.5392 H       
  25 H25           -2.1700     0.5286     1.8616 H       
  26 H26           -3.0808     2.0579     1.8743 H       
  27 H27           -3.8383     0.5760     1.2428 H       
@<TRIPOS>BOND
   1    1    2 1
   2    1    3 2
   3    1    4 am
   4    2    5 1
   5    2   16 1
   6    2   17 1
   7    4   13 1
   8    4   14 1
   9    5    7 1
  10    6    7 1
  11    6   10 1
  12    6   11 1
  13    6   12 1
  14    7    8 1
  15    7   18 1
  16    8    9 2
  17    8   19 1
  18    9   20 1
  19    9   21 1
  20   13   22 1
  21   13   23 1
  22   13   24 1
  23   14   15 1
  24   15   25 1
  25   15   26 1
  26   15   27 1

#	End of record

