#	Name: ASD01530048
#	Creating user name:	WinNT
#	Creation time:	15. 06. 2019 19:22

#	Modifying user name:	WinNT
#	Modification time:	15. 06. 2019 19:22

#	Program:	/corina/corina34_cracker 3.40 0067  02.08.2006

@<TRIPOS>MOLECULE
ASD01530048
  47   49    0    0    0
SMALL
NO_CHARGES


@<TRIPOS>ATOM
   1 C1             0.6246     1.6576     0.0378 C.ar    
   2 C2             0.6912     0.2852     0.1949 C.ar    
   3 C3             1.9198    -0.3465     0.2484 C.ar    
   4 C4             3.0838     0.3932     0.1453 C.ar    
   5 C5             3.0174     1.7623    -0.0115 C.ar    
   6 C6             1.7857     2.3956    -0.0656 C.ar    
   7 C7             4.0772     2.8301    -0.1500 C.3     
   8 O8             3.4217     4.0783     0.1400 O.3     
   9 C9             2.0483     3.8731    -0.2400 C.3     
  10 C10            5.1909     2.5872     0.8358 C.ar    
  11 C11            4.6288     2.8434    -1.5770 C.3     
  12 C12            5.3848     3.4615     1.8888 C.ar    
  13 C13            6.4064     3.2387     2.7930 C.ar    
  14 C14            7.2339     2.1414     2.6444 C.ar    
  15 C15            7.0394     1.2666     1.5919 C.ar    
  16 C16            6.0151     1.4870     0.6902 C.ar    
  17 C17            5.6464     3.9770    -1.7199 C.3     
  18 C18            6.1980     3.9903    -3.1470 C.3     
  19 N19            7.1750     5.0787    -3.2842 N.3     
  20 C20            7.7271     5.1221    -4.6448 C.3     
  21 C21            1.8375     4.2772    -1.7005 C.3     
  22 C22            1.1241     4.6839     0.6708 C.3     
  23 H23           -0.3353     2.1505    -0.0085 H       
  24 H24           -0.2171    -0.2934     0.2763 H       
  25 H25            1.9707    -1.4183     0.3712 H       
  26 H26            4.0435    -0.1002     0.1878 H       
  27 H27            5.1143     1.8906    -1.7878 H       
  28 H28            3.8112     2.9982    -2.2811 H       
  29 H29            4.7383     4.3188     2.0049 H       
  30 H30            6.5583     3.9222     3.6153 H       
  31 H31            8.0325     1.9677     3.3504 H       
  32 H32            7.6861     0.4094     1.4756 H       
  33 H33            5.8609     0.8015    -0.1300 H       
  34 H34            5.1609     4.9298    -1.5091 H       
  35 H35            6.4640     3.8222    -1.0159 H       
  36 H36            6.6835     3.0374    -3.3578 H       
  37 H37            5.3804     4.1451    -3.8511 H       
  38 H38            6.7660     5.9657    -3.0314 H       
  39 H39            8.2232     4.1771    -4.8660 H       
  40 H40            6.9201     5.2848    -5.3593 H       
  41 H41            8.4475     5.9368    -4.7188 H       
  42 H42            0.7755     4.2287    -1.9413 H       
  43 H43            2.1982     5.2946    -1.8517 H       
  44 H44            2.3886     3.5962    -2.3491 H       
  45 H45            1.3055     4.4091     1.7098 H       
  46 H46            1.3227     5.7472     0.5361 H       
  47 H47            0.0857     4.4730     0.4152 H       
@<TRIPOS>BOND
   1    1    2 ar
   2    1    6 ar
   3    1   23 1
   4    2    3 ar
   5    2   24 1
   6    3    4 ar
   7    3   25 1
   8    4    5 ar
   9    4   26 1
  10    5    7 1
  11    5    6 ar
  12    6    9 1
  13    7    8 1
  14    7   10 1
  15    7   11 1
  16    8    9 1
  17    9   21 1
  18    9   22 1
  19   10   12 ar
  20   10   16 ar
  21   11   17 1
  22   11   27 1
  23   11   28 1
  24   12   13 ar
  25   12   29 1
  26   13   14 ar
  27   13   30 1
  28   14   15 ar
  29   14   31 1
  30   15   16 ar
  31   15   32 1
  32   16   33 1
  33   17   18 1
  34   17   34 1
  35   17   35 1
  36   18   19 1
  37   18   36 1
  38   18   37 1
  39   19   20 1
  40   19   38 1
  41   20   39 1
  42   20   40 1
  43   20   41 1
  44   21   42 1
  45   21   43 1
  46   21   44 1
  47   22   45 1
  48   22   46 1
  49   22   47 1

#	End of record

