#	Name: ASD01881150
#	Creating user name:	WinNT
#	Creation time:	15. 06. 2019 19:42

#	Modifying user name:	WinNT
#	Modification time:	15. 06. 2019 19:42

#	Program:	/corina/corina34_cracker 3.40 0067  02.08.2006

@<TRIPOS>MOLECULE
ASD01881150
  52   55    0    0    0
SMALL
NO_CHARGES


@<TRIPOS>ATOM
   1 N1            -0.0353     1.2587    -0.1575 N.ar    
   2 C2             0.0496    -0.0542    -0.2020 C.ar    
   3 N3             1.1989    -0.6833    -0.0542 N.ar    
   4 C4             2.3233    -0.0137     0.1462 C.ar    
   5 C5             2.2851     1.3687     0.2004 C.ar    
   6 C6             1.0508     2.0038     0.0403 C.ar    
   7 C7             3.5421     2.1684     0.4271 C.3     
   8 O8             4.2256     2.3440    -0.8155 O.3     
   9 C9             5.3856     3.0478    -0.7866 C.ar    
  10 C10            6.1018     3.2559    -1.9618 C.ar    
  11 C11            7.2746     3.9680    -1.9324 C.ar    
  12 C12            7.7573     4.4880    -0.7265 C.ar    
  13 C13            7.0341     4.2762     0.4522 C.ar    
  14 C14            5.8537     3.5644     0.4149 C.ar    
  15 C15            8.2686     4.3654    -2.9951 C.3     
  16 N16            9.3180     5.1282    -2.3095 N.am    
  17 C17            9.0187     5.1962    -1.0010 C.2     
  18 O18            9.6935     5.7625    -0.1630 O.2     
  19 C19           -1.2028    -0.8613    -0.4278 C.3     
  20 C20            3.6287    -0.7478     0.3137 C.3     
  21 Cl21           7.6183     4.9136     1.9575 Cl      
  22 C22            0.9519     3.4823     0.0889 C.ar    
  23 C23           -0.0692     4.0888     0.8208 C.ar    
  24 C24           -0.1623     5.4619     0.8663 C.ar    
  25 C25            0.7667     6.2477     0.1795 C.ar    
  26 C26            1.7892     5.6391    -0.5528 C.ar    
  27 C27            1.8834     4.2659    -0.5925 C.ar    
  28 C28            0.6706     7.6757     0.2257 C.1     
  29 N29            0.5944     8.8086     0.2624 N.1     
  30 C30           10.1731     7.1438    -3.3993 C.3     
  31 C31           10.4977     5.7188    -2.9465 C.3     
  32 H32            3.2830     3.1433     0.8402 H       
  33 H33            4.1891     1.6381     1.1258 H       
  34 H34            5.7350     2.8570    -2.8960 H       
  35 H35            5.2950     3.4012     1.3247 H       
  36 H36            8.6948     3.4767    -3.4607 H       
  37 H37            7.7841     4.9876    -3.7476 H       
  38 H38           -1.3503    -1.0116    -1.4973 H       
  39 H39           -1.1054    -1.8287     0.0649 H       
  40 H40           -2.0585    -0.3276    -0.0145 H       
  41 H41            4.0983    -0.8811    -0.6609 H       
  42 H42            4.2900    -0.1703     0.9597 H       
  43 H43            3.4420    -1.7230     0.7635 H       
  44 H44           -0.7871     3.4812     1.3516 H       
  45 H45           -0.9533     5.9312     1.4324 H       
  46 H46            2.5076     6.2455    -1.0843 H       
  47 H47            2.6737     3.7952    -1.1585 H       
  48 H48           11.0508     7.5832    -3.8733 H       
  49 H49            9.3490     7.1196    -4.1123 H       
  50 H50            9.8882     7.7437    -2.5350 H       
  51 H51           11.3218     5.7430    -2.2335 H       
  52 H52           10.7826     5.1189    -3.8109 H       
@<TRIPOS>BOND
   1    1    2 ar
   2    1    6 ar
   3    2    3 ar
   4    2   19 1
   5    3    4 ar
   6    4    5 ar
   7    4   20 1
   8    5    6 ar
   9    5    7 1
  10    6   22 1
  11    7    8 1
  12    7   32 1
  13    7   33 1
  14    8    9 1
  15    9   10 ar
  16    9   14 ar
  17   10   11 ar
  18   10   34 1
  19   11   12 ar
  20   11   15 1
  21   12   13 ar
  22   12   17 1
  23   13   14 ar
  24   13   21 1
  25   14   35 1
  26   15   16 1
  27   15   36 1
  28   15   37 1
  29   16   17 am
  30   16   31 1
  31   17   18 2
  32   19   38 1
  33   19   39 1
  34   19   40 1
  35   20   41 1
  36   20   42 1
  37   20   43 1
  38   22   23 ar
  39   22   27 ar
  40   23   24 ar
  41   23   44 1
  42   24   25 ar
  43   24   45 1
  44   25   26 ar
  45   25   28 1
  46   26   27 ar
  47   26   46 1
  48   27   47 1
  49   28   29 3
  50   30   31 1
  51   30   48 1
  52   30   49 1
  53   30   50 1
  54   31   51 1
  55   31   52 1

#	End of record

