#	Name: ASD03240316
#	Creating user name:	WinNT
#	Creation time:	15. 06. 2019 20:34

#	Modifying user name:	WinNT
#	Modification time:	15. 06. 2019 20:34

#	Program:	/corina/corina34_cracker 3.40 0067  02.08.2006

@<TRIPOS>MOLECULE
ASD03240316
 108  115    0    0    0
SMALL
NO_CHARGES


@<TRIPOS>ATOM
   1 C1             0.4017     2.6217     1.9822 C.2     
   2 N2             0.6370     1.8756     3.1128 N.pl3   
   3 O3            -3.2562     4.1509     1.4826 O.2     
   4 C4            -2.5201     4.4439     0.5644 C.2     
   5 C5            -1.0916     3.9637     0.5611 C.3     
   6 N6            -0.8409     3.1687     1.7659 N.pl3   
   7 N7             1.3582     2.8148     1.1182 N.2     
   8 N8            -2.9795     5.1990    -0.4531 N.am    
   9 C9            -4.3264     5.5490    -0.5075 C.ar    
  10 C10           -4.7065     6.7948    -1.0272 C.ar    
  11 C11           -6.0506     7.1402    -1.0798 C.ar    
  12 C12           -7.0151     6.2452    -0.6151 C.ar    
  13 C13           -6.6266     5.0054    -0.0986 C.ar    
  14 C14           -5.2935     4.6615    -0.0522 C.ar    
  15 C15           -8.4450     6.6074    -0.6683 C.2     
  16 N16           -9.3763     5.7429    -0.2194 N.am    
  17 O17           -8.7827     7.6860    -1.1171 O.2     
  18 C18          -10.7204     6.1322    -0.1553 C.ar    
  19 C19          -11.7245     5.1757    -0.2279 C.ar    
  20 C20          -11.0485     7.4741    -0.0134 C.ar    
  21 C21          -12.3732     7.8579     0.0502 C.ar    
  22 C22          -13.3777     6.9018    -0.0278 C.ar    
  23 C23          -13.0493     5.5593    -0.1648 C.ar    
  24 N24          -14.7200     7.2906     0.0371 N.pl3   
  25 C25          -15.7794     6.2821    -0.0452 C.3     
  26 C26          -15.0662     8.7062     0.1872 C.3     
  27 C27           -3.6762     7.7408    -1.5187 C.ar    
  28 C28           -3.8094     8.3244    -2.7784 C.ar    
  29 C29           -2.8521     9.2033    -3.2350 C.ar    
  30 C30           -1.7497     9.5095    -2.4377 C.ar    
  31 C31           -1.6164     8.9261    -1.1781 C.ar    
  32 C32           -2.5765     8.0516    -0.7190 C.ar    
  33 C33          -15.2116     9.3349    -1.1746 C.ar    
  34 C34          -16.1159     5.7930     1.3400 C.ar    
  35 C35          -16.4433     9.3381    -1.8041 C.ar    
  36 C36          -16.5823     9.9125    -3.0513 C.ar    
  37 C37          -15.4789    10.4899    -3.6764 C.ar    
  38 C38          -14.2405    10.4838    -3.0377 C.ar    
  39 C39          -14.1142     9.9116    -1.7881 C.ar    
  40 C40          -17.0979     6.4308     2.0763 C.ar    
  41 C41          -17.4101     5.9871     3.3454 C.ar    
  42 C42          -16.7341     4.8944     3.8845 C.ar    
  43 C43          -15.7459     4.2556     3.1383 C.ar    
  44 C44          -15.4457     4.7043     1.8680 C.ar    
  45 C45          -15.6220    11.1086    -5.0176 C.ar    
  46 C46          -17.0652     4.4130     5.2486 C.ar    
  47 C47          -14.5186    11.6859    -5.6426 C.ar    
  48 C48          -14.6575    12.2600    -6.8900 C.ar    
  49 C49          -15.8892    12.2633    -7.5195 C.ar    
  50 C50          -16.9879    11.6919    -6.9034 C.ar    
  51 C51          -16.8590    11.1092    -5.6589 C.ar    
  52 C52          -16.3892     3.3204     5.7877 C.ar    
  53 C53          -16.7012     2.8768     7.0569 C.ar    
  54 C54          -17.6831     3.5147     7.7933 C.ar    
  55 C55          -18.3576     4.5995     7.2628 C.ar    
  56 C56          -18.0491     5.0556     5.9972 C.ar    
  57 C57           -0.7188    10.4555    -2.9295 C.ar    
  58 C58            0.3841    10.7634    -2.1348 C.ar    
  59 C59            1.3406    11.6440    -2.5979 C.ar    
  60 C60            1.2063    12.2206    -3.8481 C.ar    
  61 C61            0.1138    11.9186    -4.6411 C.ar    
  62 C62           -0.8462    11.0354    -4.1906 C.ar    
  63 H63            1.5148     1.4930     3.2674 H       
  64 H64           -0.0749     1.7318     3.7558 H       
  65 H65           -0.9168     3.3496    -0.3223 H       
  66 H66           -0.4198     4.8219     0.5459 H       
  67 H67           -1.5517     3.0282     2.4109 H       
  68 H68            1.1923     3.3412     0.3205 H       
  69 H69           -2.3721     5.4986    -1.1474 H       
  70 H70           -6.3484     8.0986    -1.4788 H       
  71 H71           -7.3740     4.3135     0.2607 H       
  72 H72           -4.9986     3.7024     0.3474 H       
  73 H73           -9.1159     4.8510     0.0594 H       
  74 H74          -11.4692     4.1317    -0.3342 H       
  75 H75          -10.2675     8.2174     0.0476 H       
  76 H76          -12.6283     8.9015     0.1609 H       
  77 H77          -13.8302     4.8158    -0.2254 H       
  78 H78          -16.6663     6.7231    -0.5002 H       
  79 H79          -15.4374     5.4446    -0.6531 H       
  80 H80          -16.0070     8.7945     0.7305 H       
  81 H81          -14.2777     9.2163     0.7406 H       
  82 H82           -4.6630     8.0870    -3.3961 H       
  83 H83           -2.9551     9.6549    -4.2106 H       
  84 H84           -0.7626     9.1633    -0.5607 H       
  85 H85           -2.4735     7.6000     0.2567 H       
  86 H86          -17.2978     8.8900    -1.3188 H       
  87 H87          -17.5443     9.9142    -3.5421 H       
  88 H88          -13.3820    10.9300    -3.5177 H       
  89 H89          -13.1548     9.9063    -1.2921 H       
  90 H90          -17.6209     7.2779     1.6576 H       
  91 H91          -18.1767     6.4860     3.9196 H       
  92 H92          -15.2189     3.4082     3.5513 H       
  93 H93          -14.6799     4.2100     1.2887 H       
  94 H94          -13.5566    11.6846    -5.1517 H       
  95 H95          -13.8029    12.7078    -7.3754 H       
  96 H96          -15.9934    12.7139    -8.4954 H       
  97 H97          -17.9474    11.6976    -7.3991 H       
  98 H98          -17.7175    10.6631    -5.1789 H       
  99 H99          -15.6228     2.8212     5.2133 H       
 100 H100         -16.1779     2.0300     7.4757 H       
 101 H101         -17.9243     3.1641     8.7859 H       
 102 H102         -19.1237     5.0937     7.8419 H       
 103 H103         -18.5761     5.9030     5.5841 H       
 104 H104           0.4898    10.3141    -1.1584 H       
 105 H105           2.1954    11.8836    -1.9829 H       
 106 H106           1.9570    12.9094    -4.2063 H       
 107 H107           0.0140    12.3717    -5.6164 H       
 108 H108          -1.6985    10.8001    -4.8107 H       
@<TRIPOS>BOND
   1    1    2 1
   2    1    7 2
   3    1    6 1
   4    2   63 1
   5    2   64 1
   6    3    4 2
   7    4    5 1
   8    4    8 am
   9    5    6 1
  10    5   65 1
  11    5   66 1
  12    6   67 1
  13    7   68 1
  14    8    9 1
  15    8   69 1
  16    9   10 ar
  17    9   14 ar
  18   10   11 ar
  19   10   27 1
  20   11   12 ar
  21   11   70 1
  22   12   13 ar
  23   12   15 1
  24   13   14 ar
  25   13   71 1
  26   14   72 1
  27   15   16 am
  28   15   17 2
  29   16   18 1
  30   16   73 1
  31   18   19 ar
  32   18   20 ar
  33   19   23 ar
  34   19   74 1
  35   20   21 ar
  36   20   75 1
  37   21   22 ar
  38   21   76 1
  39   22   23 ar
  40   22   24 1
  41   23   77 1
  42   24   25 1
  43   24   26 1
  44   25   34 1
  45   25   78 1
  46   25   79 1
  47   26   33 1
  48   26   80 1
  49   26   81 1
  50   27   28 ar
  51   27   32 ar
  52   28   29 ar
  53   28   82 1
  54   29   30 ar
  55   29   83 1
  56   30   31 ar
  57   30   57 1
  58   31   32 ar
  59   31   84 1
  60   32   85 1
  61   33   35 ar
  62   33   39 ar
  63   34   40 ar
  64   34   44 ar
  65   35   36 ar
  66   35   86 1
  67   36   37 ar
  68   36   87 1
  69   37   38 ar
  70   37   45 1
  71   38   39 ar
  72   38   88 1
  73   39   89 1
  74   40   41 ar
  75   40   90 1
  76   41   42 ar
  77   41   91 1
  78   42   43 ar
  79   42   46 1
  80   43   44 ar
  81   43   92 1
  82   44   93 1
  83   45   47 ar
  84   45   51 ar
  85   46   52 ar
  86   46   56 ar
  87   47   48 ar
  88   47   94 1
  89   48   49 ar
  90   48   95 1
  91   49   50 ar
  92   49   96 1
  93   50   51 ar
  94   50   97 1
  95   51   98 1
  96   52   53 ar
  97   52   99 1
  98   53   54 ar
  99   53  100 1
 100   54   55 ar
 101   54  101 1
 102   55   56 ar
 103   55  102 1
 104   56  103 1
 105   57   58 ar
 106   57   62 ar
 107   58   59 ar
 108   58  104 1
 109   59   60 ar
 110   59  105 1
 111   60   61 ar
 112   60  106 1
 113   61   62 ar
 114   61  107 1
 115   62  108 1

#	End of record

