#	Name: ASD03090378
#	Creating user name:	WinNT
#	Creation time:	15. 06. 2019 20:28

#	Modifying user name:	WinNT
#	Modification time:	15. 06. 2019 20:28

#	Program:	/corina/corina34_cracker 3.40 0067  02.08.2006

@<TRIPOS>MOLECULE
ASD03090378
  47   49    0    0    0
SMALL
NO_CHARGES


@<TRIPOS>ATOM
   1 C1            -0.1783     1.2233     0.2317 C.2     
   2 C2            -0.2156    -0.2521     0.2584 C.ar    
   3 C3             0.9747    -0.9941     0.2833 C.ar    
   4 C4             0.8883    -2.3707     0.3077 C.ar    
   5 C5            -0.3659    -2.9738     0.3069 C.ar    
   6 N6            -1.4715    -2.2456     0.2831 N.ar    
   7 C7            -1.4353    -0.9296     0.2652 C.ar    
   8 O8             0.8897     1.8045     0.2311 O.2     
   9 N9            -1.3279     1.9261     0.2023 N.am    
  10 O10           -0.4569    -4.3255     0.3304 O.3     
  11 C11           -1.7708    -4.8874     0.3283 C.3     
  12 C12           -1.6727    -6.4139     0.3567 C.3     
  13 F13           -0.9953    -6.8163     1.5127 F       
  14 F14           -2.9591    -6.9640     0.3546 F       
  15 F15           -0.9742    -6.8574    -0.7714 F       
  16 C16           -1.2909     3.3904     0.1758 C.3     
  17 N17           -6.5844     5.4302     0.0084 N.3     
  18 C18           -7.3596     5.2554     1.2383 C.3     
  19 C19           -6.5621     5.8436     2.4090 C.3     
  20 C20           -5.3313     4.9614     2.6306 C.3     
  21 C21           -4.6555     4.6927     1.3095 C.ar    
  22 C22           -3.3612     4.1968     1.3267 C.ar    
  23 C23           -2.6984     3.9280     0.1458 C.ar    
  24 C24           -3.3282     4.1535    -1.0648 C.ar    
  25 C25           -4.6141     4.6484    -1.0897 C.ar    
  26 C26           -5.2884     4.9249     0.1012 C.ar    
  27 C27           -7.2912     4.8580    -1.1452 C.3     
  28 H28            1.9350    -0.4998     0.2829 H       
  29 H29            1.7841    -2.9737     0.3268 H       
  30 H30           -2.3584    -0.3692     0.2507 H       
  31 H31           -2.1799     1.4623     0.1988 H       
  32 H32           -2.3151    -4.5419     1.2072 H       
  33 H33           -2.2986    -4.5739    -0.5724 H       
  34 H34           -0.7807     3.7571     1.0665 H       
  35 H35           -0.7554     3.7242    -0.7130 H       
  36 H36           -8.3128     5.7761     1.1468 H       
  37 H37           -7.5352     4.1938     1.4121 H       
  38 H38           -6.2490     6.8596     2.1683 H       
  39 H39           -7.1779     5.8501     3.3083 H       
  40 H40           -4.6352     5.4706     3.2972 H       
  41 H41           -5.6380     4.0169     3.0801 H       
  42 H42           -2.8676     4.0193     2.2707 H       
  43 H43           -2.8125     3.9421    -1.9898 H       
  44 H44           -5.1032     4.8239    -2.0365 H       
  45 H45           -8.3058     5.2546    -1.1829 H       
  46 H46           -6.7637     5.1217    -2.0619 H       
  47 H47           -7.3286     3.7731    -1.0469 H       
@<TRIPOS>BOND
   1    1    2 1
   2    1    8 2
   3    1    9 am
   4    2    3 ar
   5    2    7 ar
   6    3    4 ar
   7    3   28 1
   8    4    5 ar
   9    4   29 1
  10    5    6 ar
  11    5   10 1
  12    6    7 ar
  13    7   30 1
  14    9   16 1
  15    9   31 1
  16   10   11 1
  17   11   12 1
  18   11   32 1
  19   11   33 1
  20   12   13 1
  21   12   14 1
  22   12   15 1
  23   16   23 1
  24   16   34 1
  25   16   35 1
  26   17   18 1
  27   17   26 1
  28   17   27 1
  29   18   19 1
  30   18   36 1
  31   18   37 1
  32   19   20 1
  33   19   38 1
  34   19   39 1
  35   20   21 1
  36   20   40 1
  37   20   41 1
  38   21   22 ar
  39   21   26 ar
  40   22   23 ar
  41   22   42 1
  42   23   24 ar
  43   24   25 ar
  44   24   43 1
  45   25   26 ar
  46   25   44 1
  47   27   45 1
  48   27   46 1
  49   27   47 1

#	End of record

