#	Name: ASD01328019
#	Creating user name:	WinNT
#	Creation time:	15. 06. 2019 19:16

#	Modifying user name:	WinNT
#	Modification time:	15. 06. 2019 19:16

#	Program:	/corina/corina34_cracker 3.40 0067  02.08.2006

@<TRIPOS>MOLECULE
ASD01328019
  58   61    0    0    0
SMALL
NO_CHARGES


@<TRIPOS>ATOM
   1 C1            -0.0187     1.5258     0.0104 C.3     
   2 C2             0.0021    -0.0041     0.0020 C.3     
   3 O3             1.3220     2.0204     0.0003 O.3     
   4 O4             0.5895    -0.4792     1.2150 O.3     
   5 C5             1.4155     3.4463     0.0071 C.3     
   6 C6             2.8882     3.8609    -0.0048 C.3     
   7 N7             3.5044     3.4381    -1.2648 N.am    
   8 C8             4.8059     3.6981    -1.4991 C.2     
   9 O9             5.4690     4.2840    -0.6642 O.2     
  10 N10            4.7796     2.6042    -3.7857 N.pl3   
  11 C11            5.4245     3.2737    -2.7639 C.2     
  12 C12            6.7214     3.4779    -3.1140 C.2     
  13 C13            6.9133     2.9213    -4.4016 C.ar    
  14 C14            8.0203     2.8315    -5.2557 C.ar    
  15 C15            7.8937     2.2186    -6.4692 C.ar    
  16 C16            6.6744     1.6818    -6.8669 C.ar    
  17 C17            5.5728     1.7580    -6.0449 C.ar    
  18 C18            5.6773     2.3778    -4.8026 C.ar    
  19 Cl19           9.2673     2.1090    -7.5251 Cl      
  20 C20            0.6575    -1.9034     1.3089 C.3     
  21 C21            1.3003    -2.2966     2.6405 C.3     
  22 N22            0.4334    -1.8763     3.7442 N.am    
  23 C23            0.7989    -2.1195     5.0184 C.2     
  24 O24            1.8487    -2.6880     5.2521 O.2     
  25 N25           -1.2822    -1.0469     5.9904 N.pl3   
  26 C26           -0.0713    -1.6976     6.1263 C.2     
  27 C27            0.1874    -1.8861     7.4468 C.2     
  28 C28           -0.8928    -1.3384     8.1803 C.ar    
  29 C29           -1.1745    -1.2403     9.5493 C.ar    
  30 C30           -2.3289    -0.6403     9.9636 C.ar    
  31 C31           -3.2300    -0.1251     9.0385 C.ar    
  32 C32           -2.9748    -0.2098     7.6884 C.ar    
  33 C33           -1.8041    -0.8167     7.2417 C.ar    
  34 Cl34          -2.6750    -0.5203    11.6605 Cl      
  35 H35           -0.5459     1.8868    -0.8726 H       
  36 H36           -0.5289     1.8773     0.9072 H       
  37 H37           -1.0175    -0.3808    -0.0798 H       
  38 H38            0.5883    -0.3548    -0.8473 H       
  39 H39            0.9180     3.8472    -0.8761 H       
  40 H40            0.9350     3.8377     0.9038 H       
  41 H41            2.9614     4.9443     0.0899 H       
  42 H42            3.4056     3.3875     0.8296 H       
  43 H43            2.9757     2.9709    -1.9305 H       
  44 H44            3.8478     2.3345    -3.7844 H       
  45 H45            7.4712     3.9759    -2.5172 H       
  46 H46            8.9711     3.2463    -4.9552 H       
  47 H47            6.5905     1.2008    -7.8303 H       
  48 H48            4.6299     1.3380    -6.3628 H       
  49 H49           -0.3485    -2.3196     1.2542 H       
  50 H50            1.2573    -2.2936     0.4867 H       
  51 H51            1.4333    -3.3779     2.6745 H       
  52 H52            2.2702    -1.8081     2.7340 H       
  53 H53           -0.4037    -1.4230     3.5579 H       
  54 H54           -1.6946    -0.7908     5.1506 H       
  55 H55            1.0602    -2.3676     7.8624 H       
  56 H56           -0.4806    -1.6384    10.2748 H       
  57 H57           -4.1390     0.3459     9.3825 H       
  58 H58           -3.6809     0.1934     6.9776 H       
@<TRIPOS>BOND
   1    1    2 1
   2    1    3 1
   3    1   35 1
   4    1   36 1
   5    2    4 1
   6    2   37 1
   7    2   38 1
   8    3    5 1
   9    4   20 1
  10    5    6 1
  11    5   39 1
  12    5   40 1
  13    6    7 1
  14    6   41 1
  15    6   42 1
  16    7    8 am
  17    7   43 1
  18    8    9 2
  19    8   11 1
  20   10   11 1
  21   10   18 1
  22   10   44 1
  23   11   12 2
  24   12   13 1
  25   12   45 1
  26   13   14 ar
  27   13   18 ar
  28   14   15 ar
  29   14   46 1
  30   15   16 ar
  31   15   19 1
  32   16   17 ar
  33   16   47 1
  34   17   18 ar
  35   17   48 1
  36   20   21 1
  37   20   49 1
  38   20   50 1
  39   21   22 1
  40   21   51 1
  41   21   52 1
  42   22   23 am
  43   22   53 1
  44   23   24 2
  45   23   26 1
  46   25   26 1
  47   25   33 1
  48   25   54 1
  49   26   27 2
  50   27   28 1
  51   27   55 1
  52   28   29 ar
  53   28   33 ar
  54   29   30 ar
  55   29   56 1
  56   30   31 ar
  57   30   34 1
  58   31   32 ar
  59   31   57 1
  60   32   33 ar
  61   32   58 1

#	End of record

