#	Name: ASD05723024
#	Creating user name:	WinNT
#	Creation time:	15. 06. 2019 21:02

#	Modifying user name:	WinNT
#	Modification time:	15. 06. 2019 21:02

#	Program:	/corina/corina34_cracker 3.40 0067  02.08.2006

@<TRIPOS>MOLECULE
ASD05723024
  52   56    0    0    0
SMALL
NO_CHARGES


@<TRIPOS>ATOM
   1 C1             0.0045     1.7590     0.3485 C.ar    
   2 C2            -0.0130     0.3760     0.4603 C.ar    
   3 C3             1.1534    -0.3351     0.4706 C.ar    
   4 C4             2.3782     0.3337     0.3676 C.ar    
   5 C5             2.4046     1.7356     0.2539 C.ar    
   6 C6             1.2025     2.4424     0.2455 C.ar    
   7 C7             3.7715    -0.1066     0.3465 C.2     
   8 C8             4.5382     1.0089     0.2258 C.2     
   9 N9             3.7276     2.1195     0.1694 N.pl3   
  10 O10            1.2081     3.7976     0.1359 O.3     
  11 C11           -0.0615     4.4536     0.1343 C.3     
  12 C12            6.0116     1.0265     0.1654 C.2     
  13 C13            6.7966     1.8151    -0.6701 C.2     
  14 N14            8.1105     1.4964    -0.3792 N.pl3   
  15 C15            8.0894     0.5627     0.5840 C.2     
  16 N16            6.8508     0.2889     0.9103 N.2     
  17 C17            6.5389     2.7827    -1.6604 C.2     
  18 N18            7.5585     3.3567    -2.2813 N.2     
  19 C19            8.8192     3.0408    -1.9917 C.2     
  20 N20            9.1255     2.1527    -1.0848 N.2     
  21 N21            5.2413     3.1280    -1.9799 N.pl3   
  22 C22            9.3085    -0.0713     1.2027 C.3     
  23 C23            9.3223     0.2104     2.7065 C.3     
  24 C24           10.5601    -0.4333     3.3346 C.3     
  25 C25           10.5240    -1.9446     3.0992 C.3     
  26 C26           10.5102    -2.2264     1.5954 C.3     
  27 C27            9.2724    -1.5827     0.9673 C.3     
  28 C28           11.7431    -2.5786     3.7179 C.2     
  29 O29           12.5573    -1.8921     4.2886 O.2     
  30 O30           11.9245    -3.9060     3.6350 O.3     
  31 H31           -0.9264     2.3066     0.3374 H       
  32 H32           -0.9569    -0.1427     0.5403 H       
  33 H33            1.1303    -1.4113     0.5584 H       
  34 H34            4.1247    -1.1250     0.4140 H       
  35 H35            4.0391     3.0340     0.0828 H       
  36 H36           -0.6551     4.0942    -0.7063 H       
  37 H37           -0.5834     4.2373     1.0664 H       
  38 H38            0.0857     5.5296     0.0415 H       
  39 H39            9.6164     3.5366    -2.5257 H       
  40 H40            4.5021     2.5932    -1.6507 H       
  41 H41            5.0687     3.9055    -2.5336 H       
  42 H42           10.2062     0.3461     0.7466 H       
  43 H43            9.3480     1.2871     2.8742 H       
  44 H44            8.4246    -0.2070     3.1626 H       
  45 H45           11.4577    -0.0159     2.8785 H       
  46 H46           10.5699    -0.2326     4.4059 H       
  47 H47            9.6263    -2.3621     3.5553 H       
  48 H48           11.4078    -1.8089     1.1393 H       
  49 H49           10.4844    -3.3031     1.4277 H       
  50 H50            8.3747    -2.0001     1.4234 H       
  51 H51            9.2626    -1.7834    -0.1040 H       
  52 H52           12.7214    -4.2668     4.0470 H       
@<TRIPOS>BOND
   1    1    2 ar
   2    1    6 ar
   3    1   31 1
   4    2    3 ar
   5    2   32 1
   6    3    4 ar
   7    3   33 1
   8    4    5 ar
   9    4    7 1
  10    5    6 ar
  11    5    9 1
  12    6   10 1
  13    7    8 2
  14    7   34 1
  15    8    9 1
  16    8   12 1
  17    9   35 1
  18   10   11 1
  19   11   36 1
  20   11   37 1
  21   11   38 1
  22   12   13 2
  23   12   16 1
  24   13   14 1
  25   13   17 1
  26   14   15 1
  27   14   20 1
  28   15   16 2
  29   15   22 1
  30   17   18 2
  31   17   21 1
  32   18   19 1
  33   19   20 2
  34   19   39 1
  35   21   40 1
  36   21   41 1
  37   22   23 1
  38   22   27 1
  39   22   42 1
  40   23   24 1
  41   23   43 1
  42   23   44 1
  43   24   25 1
  44   24   45 1
  45   24   46 1
  46   25   26 1
  47   25   28 1
  48   25   47 1
  49   26   27 1
  50   26   48 1
  51   26   49 1
  52   27   50 1
  53   27   51 1
  54   28   29 2
  55   28   30 1
  56   30   52 1

#	End of record

