#	Name: ASD01411216
#	Creating user name:	WinNT
#	Creation time:	15. 06. 2019 19:19

#	Modifying user name:	WinNT
#	Modification time:	15. 06. 2019 19:19

#	Program:	/corina/corina34_cracker 3.40 0067  02.08.2006

@<TRIPOS>MOLECULE
ASD01411216
  72   75    0    0    0
SMALL
NO_CHARGES


@<TRIPOS>ATOM
   1 C1            -0.7024     1.2302    -1.5848 C.ar    
   2 C2            -0.4113    -0.0995    -1.4100 C.ar    
   3 C3             0.8564    -0.6018    -1.6965 C.ar    
   4 C4             1.8395     0.2619    -2.1600 C.ar    
   5 C5             1.5530     1.6015    -2.3356 C.ar    
   6 C6             0.2855     2.0925    -2.0518 C.ar    
   7 P7            -1.6567    -1.2717    -0.7927 P.3     
   8 N8            -0.8535    -2.6513    -0.3858 N.2     
   9 C9             0.3742    -2.8200    -0.7713 C.2     
  10 N10            1.1165    -1.9595    -1.5208 N.pl3   
  11 C11            1.0328    -4.0721    -0.3544 C.2     
  12 C12            0.4585    -5.0531     0.3951 C.2     
  13 C13            1.5040    -6.1307     0.5683 C.3     
  14 N14            2.6948    -5.6574    -0.1477 N.am    
  15 C15            2.4059    -4.4595    -0.6866 C.2     
  16 O16           -2.3331    -0.7105     0.3981 O.2     
  17 O17           -2.7371    -1.5838    -1.9448 O.3     
  18 O18           -0.7932    -5.0613     0.8855 O.3     
  19 O19            3.1758    -3.7916    -1.3512 O.2     
  20 C20           -3.5510    -0.5729    -2.5430 C.3     
  21 C21           -4.4622    -1.2082    -3.5952 C.3     
  22 C22            1.8228    -6.3221     2.0524 C.3     
  23 C23            0.5256    -6.5702     2.8248 C.3     
  24 C24            2.7555    -7.5229     2.2230 C.3     
  25 C25            2.5061    -5.0647     2.5936 C.3     
  26 N26            0.0020     3.4505    -2.2351 N.am    
  27 S27           -0.0931     4.4606    -0.9263 S.o2    
  28 O28           -0.2961     5.7484    -1.4916 O.2     
  29 O29           -1.0767     3.8629    -0.0931 O.2     
  30 C30            1.5448     4.3556    -0.1536 C.3     
  31 C31            3.9711    -6.3678    -0.2608 C.3     
  32 C32            3.9268    -7.2943    -1.4485 C.ar    
  33 C33            4.3317    -6.8434    -2.6912 C.ar    
  34 C34            4.2930    -7.6906    -3.7832 C.ar    
  35 C35            3.8486    -8.9921    -3.6343 C.ar    
  36 C36            3.4415    -9.4463    -2.3863 C.ar    
  37 C37            3.4869    -8.5949    -1.2928 C.ar    
  38 O38            3.0042   -10.7249    -2.2363 O.3     
  39 F39            3.8102    -9.8200    -4.7011 F       
  40 C40            2.6014   -11.1230    -0.9243 C.3     
  41 H41           -1.6918     1.6040    -1.3659 H       
  42 H42            2.8275    -0.1133    -2.3826 H       
  43 H43            2.3195     2.2714    -2.6962 H       
  44 H44            1.8942    -2.3233    -1.9721 H       
  45 H45            1.1531    -7.0674     0.1352 H       
  46 H46           -1.3471    -4.2937     0.6880 H       
  47 H47           -4.1602    -0.0956    -1.7754 H       
  48 H48           -2.9136     0.1733    -3.0172 H       
  49 H49           -3.8531    -1.6856    -4.3628 H       
  50 H50           -5.0996    -1.9545    -3.1210 H       
  51 H51           -5.0830    -0.4372    -4.0514 H       
  52 H52            0.0388    -7.4660     2.4393 H       
  53 H53            0.7527    -6.7065     3.8822 H       
  54 H54           -0.1389    -5.7148     2.7033 H       
  55 H55            3.7872    -7.2063     2.0692 H       
  56 H56            2.6459    -7.9281     3.2289 H       
  57 H57            2.4980    -8.2897     1.4924 H       
  58 H58            1.8416    -4.2092     2.4721 H       
  59 H59            2.7332    -5.2010     3.6509 H       
  60 H60            3.4302    -4.8879     2.0433 H       
  61 H61           -0.1389     3.8002    -3.1289 H       
  62 H62            2.3106     4.5948    -0.8915 H       
  63 H63            1.6027     5.0639     0.6728 H       
  64 H64            1.7052     3.3450     0.2220 H       
  65 H65            4.7778    -5.6467    -0.3924 H       
  66 H66            4.1460    -6.9472     0.6457 H       
  67 H67            4.6786    -5.8275    -2.8092 H       
  68 H68            4.6095    -7.3359    -4.7529 H       
  69 H69            3.1752    -8.9471    -0.3206 H       
  70 H70            2.2756   -12.1630    -0.9442 H       
  71 H71            3.4423   -11.0188    -0.2387 H       
  72 H72            1.7790   -10.4910    -0.5893 H       
@<TRIPOS>BOND
   1    1    2 ar
   2    1    6 ar
   3    1   41 1
   4    2    3 ar
   5    2    7 1
   6    3    4 ar
   7    3   10 1
   8    4    5 ar
   9    4   42 1
  10    5    6 ar
  11    5   43 1
  12    6   26 1
  13    7    8 1
  14    7   16 2
  15    7   17 1
  16    8    9 2
  17    9   10 1
  18    9   11 1
  19   10   44 1
  20   11   12 2
  21   11   15 1
  22   12   13 1
  23   12   18 1
  24   13   14 1
  25   13   22 1
  26   13   45 1
  27   14   15 am
  28   14   31 1
  29   15   19 2
  30   17   20 1
  31   18   46 1
  32   20   21 1
  33   20   47 1
  34   20   48 1
  35   21   49 1
  36   21   50 1
  37   21   51 1
  38   22   23 1
  39   22   24 1
  40   22   25 1
  41   23   52 1
  42   23   53 1
  43   23   54 1
  44   24   55 1
  45   24   56 1
  46   24   57 1
  47   25   58 1
  48   25   59 1
  49   25   60 1
  50   26   27 am
  51   26   61 1
  52   27   28 2
  53   27   29 2
  54   27   30 1
  55   30   62 1
  56   30   63 1
  57   30   64 1
  58   31   32 1
  59   31   65 1
  60   31   66 1
  61   32   33 ar
  62   32   37 ar
  63   33   34 ar
  64   33   67 1
  65   34   35 ar
  66   34   68 1
  67   35   36 ar
  68   35   39 1
  69   36   37 ar
  70   36   38 1
  71   37   69 1
  72   38   40 1
  73   40   70 1
  74   40   71 1
  75   40   72 1

#	End of record

