#	Name: ASD01708043
#	Creating user name:	WinNT
#	Creation time:	15. 06. 2019 19:22

#	Modifying user name:	WinNT
#	Modification time:	15. 06. 2019 19:22

#	Program:	/corina/corina34_cracker 3.40 0067  02.08.2006

@<TRIPOS>MOLECULE
ASD01708043
  62   65    0    0    0
SMALL
NO_CHARGES


@<TRIPOS>ATOM
   1 C1            -0.0162     1.3436     0.0094 C.2     
   2 N2            -0.0439    -0.0039     0.0071 N.am    
   3 O3             1.0502     1.9304     0.0039 O.2     
   4 C4             1.1916    -0.7953    -0.1167 C.3     
   5 C5            -1.3053    -0.7414     0.1337 C.3     
   6 C6            -1.1340    -1.8779     1.1110 C.ar    
   7 C7             0.1029    -2.2664     1.5787 C.ar    
   8 C8             1.3762    -1.5822     1.1797 C.3     
   9 C9            -2.2796    -2.5394     1.5373 C.ar    
  10 C10           -2.1972    -3.5917     2.4229 C.ar    
  11 C11           -0.9463    -3.9979     2.8961 C.ar    
  12 C12            0.1991    -3.3286     2.4679 C.ar    
  13 Cl13           1.7569    -3.8268     3.0500 Cl      
  14 Cl14          -3.6371    -4.4071     2.9478 Cl      
  15 C15           -0.8389    -5.1270     3.8421 C.2     
  16 N16           -0.8882    -4.9007     5.1698 N.am    
  17 O17           -0.7061    -6.2605     3.4231 O.2     
  18 C18           -0.7816    -6.0207     6.1081 C.3     
  19 C19           -2.1413    -6.6388     6.3091 C.2     
  20 O20           -2.2864    -7.6881     7.1335 O.3     
  21 O21           -3.1009    -6.1897     5.7281 O.2     
  22 C22           -1.2674     2.1006     0.0125 C.2     
  23 C23           -0.2487    -5.5133     7.4496 C.3     
  24 N24            1.0171    -4.8073     7.2366 N.am    
  25 C25            1.6740    -4.2708     8.2840 C.2     
  26 C26           -1.2418     3.4463     0.1178 C.2     
  27 O27            1.2156    -4.3729     9.4068 O.2     
  28 C28            2.9405    -3.5643     8.0709 C.2     
  29 S29            3.7300    -3.3320     6.5171 S.3     
  30 C30            3.6939    -2.9757     9.0473 C.2     
  31 C31            4.8370    -2.3814     8.5678 C.2     
  32 C32            5.0144    -2.4766     7.2449 C.2     
  33 C33           -2.4990     4.2070     0.1209 C.ar    
  34 C34           -2.4777     5.6065     0.2301 C.ar    
  35 C35           -3.6701     6.3130     0.2320 C.ar    
  36 C36           -4.8731     5.6423     0.1272 C.ar    
  37 C37           -4.8996     4.2611     0.0192 C.ar    
  38 C38           -3.7249     3.5416     0.0092 C.ar    
  39 O39           -1.2954     6.2642     0.3339 O.3     
  40 H40            1.1059    -1.4839    -0.9572 H       
  41 H41            2.0418    -0.1304    -0.2689 H       
  42 H42           -2.0842    -0.0686     0.4928 H       
  43 H43           -1.5917    -1.1400    -0.8395 H       
  44 H44            2.1539    -2.3312     1.0301 H       
  45 H45            1.6824    -0.9027     1.9751 H       
  46 H46           -3.2454    -2.2247     1.1704 H       
  47 H47           -0.9941    -3.9964     5.5041 H       
  48 H48           -0.0986    -6.7686     5.7053 H       
  49 H49           -3.1777    -8.0504     7.2303 H       
  50 H50           -2.2118     1.5832    -0.0694 H       
  51 H51           -0.9742    -4.8323     7.8945 H       
  52 H52           -0.0855    -6.3581     8.1187 H       
  53 H53            1.3825    -4.7259     6.3417 H       
  54 H54           -0.2974     3.9637     0.1997 H       
  55 H55            3.4185    -2.9769    10.0916 H       
  56 H56            5.5394    -1.8728     9.2115 H       
  57 H57            5.8577    -2.0662     6.7093 H       
  58 H58           -3.6587     7.3897     0.3158 H       
  59 H59           -5.7991     6.1980     0.1299 H       
  60 H60           -5.8456     3.7465    -0.0622 H       
  61 H61           -3.7505     2.4652    -0.0751 H       
  62 H62           -0.9134     6.5229    -0.5159 H       
@<TRIPOS>BOND
   1    1    2 am
   2    1    3 2
   3    1   22 1
   4    2    4 1
   5    2    5 1
   6    4    8 1
   7    4   40 1
   8    4   41 1
   9    5    6 1
  10    5   42 1
  11    5   43 1
  12    6    7 ar
  13    6    9 ar
  14    7    8 1
  15    7   12 ar
  16    8   44 1
  17    8   45 1
  18    9   10 ar
  19    9   46 1
  20   10   11 ar
  21   10   14 1
  22   11   12 ar
  23   11   15 1
  24   12   13 1
  25   15   16 am
  26   15   17 2
  27   16   18 1
  28   16   47 1
  29   18   19 1
  30   18   23 1
  31   18   48 1
  32   19   20 1
  33   19   21 2
  34   20   49 1
  35   22   26 2
  36   22   50 1
  37   23   24 1
  38   23   51 1
  39   23   52 1
  40   24   25 am
  41   24   53 1
  42   25   27 2
  43   25   28 1
  44   26   33 1
  45   26   54 1
  46   28   29 1
  47   28   30 2
  48   29   32 1
  49   30   31 1
  50   30   55 1
  51   31   32 2
  52   31   56 1
  53   32   57 1
  54   33   34 ar
  55   33   38 ar
  56   34   35 ar
  57   34   39 1
  58   35   36 ar
  59   35   58 1
  60   36   37 ar
  61   36   59 1
  62   37   38 ar
  63   37   60 1
  64   38   61 1
  65   39   62 1

#	End of record

