#	Name: ASD05143330
#	Creating user name:	WinNT
#	Creation time:	15. 06. 2019 20:57

#	Modifying user name:	WinNT
#	Modification time:	15. 06. 2019 20:57

#	Program:	/corina/corina34_cracker 3.40 0067  02.08.2006

@<TRIPOS>MOLECULE
ASD05143330
  44   46    0    0    0
SMALL
NO_CHARGES


@<TRIPOS>ATOM
   1 C1            -0.0541     1.3598     0.1374 C.2     
   2 N2             0.0398     0.0979    -0.2322 N.2     
   3 S3            -1.5553    -0.4851    -0.2884 S.3     
   4 C4            -2.2696     1.0071     0.1908 C.2     
   5 N5            -1.2630     1.8352     0.3639 N.2     
   6 N6            -3.6140     1.2755     0.3619 N.pl3   
   7 C7            -4.0471     2.6121     0.7767 C.3     
   8 C8            -5.5496     2.6407     0.8899 C.ar    
   9 C9            -6.1585     2.3236     2.0898 C.ar    
  10 C10            1.1871    -0.5998    -0.5131 C.ar    
  11 C11            1.4826    -1.7727     0.1837 C.ar    
  12 C12            2.0611    -0.1431    -1.5010 C.ar    
  13 C13            3.2129    -0.8497    -1.7789 C.ar    
  14 C14            3.5025    -2.0087    -1.0808 C.ar    
  15 C15            2.6378    -2.4698    -0.1040 C.ar    
  16 C16            1.1502     2.2077     0.2976 C.ar    
  17 C17            1.0882     3.5721     0.0162 C.ar    
  18 C18            2.3488     1.6456     0.7361 C.ar    
  19 C19            3.4669     2.4405     0.8838 C.ar    
  20 C20            3.4005     3.7926     0.5985 C.ar    
  21 C21            2.2130     4.3568     0.1678 C.ar    
  22 C22           -6.3187     2.9895    -0.2045 C.ar    
  23 C23           -7.6969     3.0157    -0.1006 C.ar    
  24 C24           -8.3060     2.6927     1.0975 C.ar    
  25 C25           -7.5367     2.3497     2.1936 C.ar    
  26 H26           -4.2711     0.5789     0.2074 H       
  27 H27           -3.6053     2.8535     1.7434 H       
  28 H28           -3.7245     3.3445     0.0367 H       
  29 H29           -5.5574     2.0550     2.9459 H       
  30 H30            0.8086    -2.1334     0.9466 H       
  31 H31            1.8360     0.7612    -2.0469 H       
  32 H32            3.8898    -0.4977    -2.5432 H       
  33 H33            4.4056    -2.5582    -1.3022 H       
  34 H34            2.8697    -3.3751     0.4372 H       
  35 H35            0.1617     4.0137    -0.3201 H       
  36 H36            2.4017     0.5903     0.9598 H       
  37 H37            4.3958     2.0064     1.2233 H       
  38 H38            4.2782     4.4108     0.7160 H       
  39 H39            2.1673     5.4129    -0.0535 H       
  40 H40           -5.8428     3.2419    -1.1405 H       
  41 H41           -8.2977     3.2889    -0.9554 H       
  42 H42           -9.3827     2.7135     1.1788 H       
  43 H43           -8.0125     2.0974     3.1297 H       
  44 Br44           9.4056    10.4129     8.1297 Br      
@<TRIPOS>BOND
   1    1    2 2
   2    1   16 1
   3    1    5 1
   4    2    3 1
   5    2   10 1
   6    3    4 1
   7    4    5 2
   8    4    6 1
   9    6    7 1
  10    6   26 1
  11    7    8 1
  12    7   27 1
  13    7   28 1
  14    8    9 ar
  15    8   22 ar
  16    9   25 ar
  17    9   29 1
  18   10   11 ar
  19   10   12 ar
  20   11   15 ar
  21   11   30 1
  22   12   13 ar
  23   12   31 1
  24   13   14 ar
  25   13   32 1
  26   14   15 ar
  27   14   33 1
  28   15   34 1
  29   16   17 ar
  30   16   18 ar
  31   17   21 ar
  32   17   35 1
  33   18   19 ar
  34   18   36 1
  35   19   20 ar
  36   19   37 1
  37   20   21 ar
  38   20   38 1
  39   21   39 1
  40   22   23 ar
  41   22   40 1
  42   23   24 ar
  43   23   41 1
  44   24   25 ar
  45   24   42 1
  46   25   43 1

#	End of record

