#	Name: ASD03430163
#	Creating user name:	WinNT
#	Creation time:	15. 06. 2019 20:40

#	Modifying user name:	WinNT
#	Modification time:	15. 06. 2019 20:40

#	Program:	/corina/corina34_cracker 3.40 0067  02.08.2006

@<TRIPOS>MOLECULE
ASD03430163
  58   63    0    0    0
SMALL
NO_CHARGES


@<TRIPOS>ATOM
   1 C1             0.0143     1.3798    -0.0407 C.ar    
   2 C2             0.0250    -0.0065    -0.0355 C.ar    
   3 C3             1.2217    -0.6914    -0.0507 C.ar    
   4 C4             2.4315    -0.0039    -0.0605 C.ar    
   5 C5             2.4171     1.3872    -0.0690 C.ar    
   6 C6             1.2166     2.0772    -0.0582 C.ar    
   7 O7             3.4893    -0.8648    -0.0466 O.3     
   8 C8             1.5613    -2.1577    -0.0727 C.3     
   9 C9             3.0454    -2.1700    -0.4640 C.3     
  10 C10            0.4300    -3.8552     1.0040 C.ar    
  11 C11            1.3258    -2.8180     1.2532 C.ar    
  12 C12            0.7197    -2.9225    -1.0535 C.2     
  13 N13            0.0959    -3.8897    -0.3519 N.am    
  14 O14            0.6203    -2.7109    -2.2437 O.2     
  15 C15            1.7969    -2.5901     2.5264 C.ar    
  16 C16            1.3819    -3.3942     3.5734 C.ar    
  17 C17            0.4933    -4.4269     3.3376 C.ar    
  18 C18            0.0184    -4.6597     2.0633 C.ar    
  19 O19           -1.1764     2.0403    -0.0342 O.3     
  20 C20           -1.1426     3.4244     0.3303 C.3     
  21 C21            0.0110     4.0930    -0.4298 C.3     
  22 O22            1.2297     3.4388    -0.0613 O.3     
  23 C23           -0.8247    -4.8642    -0.9428 C.3     
  24 C24           -2.2290    -4.3190    -0.8995 C.ar    
  25 C25           -2.7096    -3.5704    -1.9542 C.ar    
  26 C26           -3.0353    -4.5750     0.1950 C.ar    
  27 C27           -4.3261    -4.0784     0.2425 C.ar    
  28 C28           -4.8172    -3.3247    -0.8031 C.ar    
  29 C29           -4.0104    -3.0667    -1.9127 C.ar    
  30 C30           -4.5302    -2.2595    -3.0370 C.2     
  31 O31           -3.7868    -1.5144    -3.6450 O.2     
  32 N32           -5.8284    -2.3498    -3.3878 N.am    
  33 C33           -6.3726    -1.4606    -4.4171 C.3     
  34 C34           -6.6953    -3.3371    -2.7398 C.3     
  35 H35           -0.9071    -0.5519    -0.0192 H       
  36 H36            3.3490     1.9330    -0.0838 H       
  37 H37            3.1608    -2.2920    -1.5409 H       
  38 H38            3.5812    -2.9516     0.0748 H       
  39 H39            2.4913    -1.7831     2.7083 H       
  40 H40            1.7517    -3.2158     4.5724 H       
  41 H41            0.1697    -5.0545     4.1548 H       
  42 H42           -0.6753    -5.4684     1.8870 H       
  43 H43           -2.0855     3.8992     0.0591 H       
  44 H44           -0.9786     3.5180     1.4038 H       
  45 H45           -0.1493     3.9929    -1.5033 H       
  46 H46            0.0646     5.1483    -0.1624 H       
  47 H47           -0.5396    -5.0521    -1.9779 H       
  48 H48           -0.7791    -5.7956    -0.3785 H       
  49 H49           -2.0804    -3.3744    -2.8099 H       
  50 H50           -2.6558    -5.1652     1.0160 H       
  51 H51           -4.9505    -4.2819     1.0999 H       
  52 H52           -5.8249    -2.9381    -0.7651 H       
  53 H53           -5.8355    -1.6164    -5.3528 H       
  54 H54           -7.4301    -1.6797    -4.5644 H       
  55 H55           -6.2570    -0.4242    -4.1000 H       
  56 H56           -7.0877    -2.9223    -1.8113 H       
  57 H57           -7.5224    -3.5863    -3.4046 H       
  58 H58           -6.1208    -4.2373    -2.5214 H       
@<TRIPOS>BOND
   1    1    2 ar
   2    1    6 ar
   3    1   19 1
   4    2    3 ar
   5    2   35 1
   6    3    4 ar
   7    3    8 1
   8    4    5 ar
   9    4    7 1
  10    5    6 ar
  11    5   36 1
  12    6   22 1
  13    7    9 1
  14    8    9 1
  15    8   11 1
  16    8   12 1
  17    9   37 1
  18    9   38 1
  19   10   11 ar
  20   10   13 1
  21   10   18 ar
  22   11   15 ar
  23   12   13 am
  24   12   14 2
  25   13   23 1
  26   15   16 ar
  27   15   39 1
  28   16   17 ar
  29   16   40 1
  30   17   18 ar
  31   17   41 1
  32   18   42 1
  33   19   20 1
  34   20   21 1
  35   20   43 1
  36   20   44 1
  37   21   22 1
  38   21   45 1
  39   21   46 1
  40   23   24 1
  41   23   47 1
  42   23   48 1
  43   24   25 ar
  44   24   26 ar
  45   25   29 ar
  46   25   49 1
  47   26   27 ar
  48   26   50 1
  49   27   28 ar
  50   27   51 1
  51   28   29 ar
  52   28   52 1
  53   29   30 1
  54   30   31 2
  55   30   32 am
  56   32   33 1
  57   32   34 1
  58   33   53 1
  59   33   54 1
  60   33   55 1
  61   34   56 1
  62   34   57 1
  63   34   58 1

#	End of record

