#	Name: ASD05250061
#	Creating user name:	WinNT
#	Creation time:	15. 06. 2019 20:58

#	Modifying user name:	WinNT
#	Modification time:	15. 06. 2019 20:58

#	Program:	/corina/corina34_cracker 3.40 0067  02.08.2006

@<TRIPOS>MOLECULE
ASD05250061
  59   60    0    0    0
SMALL
NO_CHARGES


@<TRIPOS>ATOM
   1 C1             1.6656    -1.6821     0.8250 C.3     
   2 C2            -1.5217    -0.8939    -1.7238 C.3     
   3 C3            -0.1404    -0.4674    -2.2247 C.3     
   4 N4             0.8010    -0.4357    -1.0975 N.3     
   5 C5             1.0251    -1.7846    -0.5607 C.3     
   6 C6             2.0698     0.1928    -1.4888 C.3     
   7 C7             4.0865     6.0302    -2.7431 C.3     
   8 C8             4.3088     4.5273    -2.5624 C.3     
   9 C9             3.0279     3.8828    -2.0287 C.3     
  10 C10            3.2087     2.3648    -1.9659 C.3     
  11 C11            1.8890     1.7108    -1.5516 C.3     
  12 N12            2.7453     4.3969    -0.6863 N.pl3   
  13 C13            2.0495     5.5927    -0.5311 C.ar    
  14 C14            1.6131     6.3158    -1.6432 C.ar    
  15 C15            1.7670     6.0934     0.7360 C.ar    
  16 C16            1.0676     7.2949     0.8464 C.ar    
  17 N17            0.6762     7.9520    -0.2426 N.ar    
  18 C18            0.9261     7.4974    -1.4545 C.ar    
  19 C19            0.7591     7.8410     2.1796 C.2     
  20 C20            0.0860     8.9975     2.2922 C.2     
  21 C21           -0.2225     9.5436     3.6256 C.ar    
  22 C22           -0.9229    10.7470     3.7464 C.ar    
  23 C23           -1.2087    11.2522     4.9971 C.ar    
  24 C24           -0.8033    10.5699     6.1322 C.ar    
  25 C25           -0.1088     9.3768     6.0197 C.ar    
  26 C26            0.1789     8.8577     4.7751 C.ar    
  27 Cl27          -1.1667    11.2133     7.7031 Cl      
  28 H28            2.6750    -1.2817     0.7300 H       
  29 H29            1.0696    -1.0197     1.4527 H       
  30 H30            1.7087    -2.6719     1.2795 H       
  31 H31           -1.4559    -1.8862    -1.2774 H       
  32 H32           -1.8731    -0.1821    -0.9769 H       
  33 H33           -2.2203    -0.9175    -2.5602 H       
  34 H34            0.2110    -1.1792    -2.9717 H       
  35 H35           -0.2063     0.5248    -2.6711 H       
  36 H36            1.6883    -2.3355    -1.2276 H       
  37 H37            0.0720    -2.3076    -0.4826 H       
  38 H38            2.8378    -0.0516    -0.7549 H       
  39 H39            2.3720    -0.1779    -2.4682 H       
  40 H40            4.9990     6.4894    -3.1233 H       
  41 H41            3.2745     6.1949    -3.4514 H       
  42 H42            3.8276     6.4772    -1.7832 H       
  43 H43            4.5677     4.0804    -3.5223 H       
  44 H44            5.1208     4.3626    -1.8541 H       
  45 H45            2.1969     4.1226    -2.6920 H       
  46 H46            3.5060     1.9935    -2.9466 H       
  47 H47            3.9802     2.1207    -1.2357 H       
  48 H48            1.1175     1.9549    -2.2818 H       
  49 H49            1.5917     2.0821    -0.5709 H       
  50 H50            3.0430     3.9041     0.0944 H       
  51 H51            1.8118     5.9538    -2.6412 H       
  52 H52            2.0840     5.5599     1.6199 H       
  53 H53            0.5917     8.0608    -2.3131 H       
  54 H54            1.0744     7.3112     3.0663 H       
  55 H55           -0.2293     9.5273     1.4054 H       
  56 H56           -1.2393    11.2801     2.8620 H       
  57 H57           -1.7496    12.1821     5.0919 H       
  58 H58            0.2044     8.8498     6.9089 H       
  59 H59            0.7202     7.9271     4.6888 H       
@<TRIPOS>BOND
   1    1    5 1
   2    1   28 1
   3    1   29 1
   4    1   30 1
   5    2    3 1
   6    2   31 1
   7    2   32 1
   8    2   33 1
   9    3    4 1
  10    3   34 1
  11    3   35 1
  12    4    5 1
  13    4    6 1
  14    5   36 1
  15    5   37 1
  16    6   11 1
  17    6   38 1
  18    6   39 1
  19    7    8 1
  20    7   40 1
  21    7   41 1
  22    7   42 1
  23    8    9 1
  24    8   43 1
  25    8   44 1
  26    9   10 1
  27    9   12 1
  28    9   45 1
  29   10   11 1
  30   10   46 1
  31   10   47 1
  32   11   48 1
  33   11   49 1
  34   12   13 1
  35   12   50 1
  36   13   14 ar
  37   13   15 ar
  38   14   18 ar
  39   14   51 1
  40   15   16 ar
  41   15   52 1
  42   16   17 ar
  43   16   19 1
  44   17   18 ar
  45   18   53 1
  46   19   20 2
  47   19   54 1
  48   20   21 1
  49   20   55 1
  50   21   22 ar
  51   21   26 ar
  52   22   23 ar
  53   22   56 1
  54   23   24 ar
  55   23   57 1
  56   24   25 ar
  57   24   27 1
  58   25   26 ar
  59   25   58 1
  60   26   59 1

#	End of record

