#	Name: ASD01150807
#	Creating user name:	WinNT
#	Creation time:	15. 06. 2019 19:05

#	Modifying user name:	WinNT
#	Modification time:	15. 06. 2019 19:05

#	Program:	/corina/corina34_cracker 3.40 0067  02.08.2006

@<TRIPOS>MOLECULE
ASD01150807
  51   52    0    0    0
SMALL
NO_CHARGES


@<TRIPOS>ATOM
   1 N1             0.2272     1.2258     0.1205 N.3     
   2 C2             0.3207    -0.2394     0.1519 C.3     
   3 C3             1.1326    -0.6739     1.3743 C.3     
   4 C4             2.5315    -0.0561     1.2977 C.3     
   5 C5             2.4042     1.4677     1.2172 C.3     
   6 C6             1.5555     1.8401    -0.0006 C.3     
   7 O7             3.2753    -0.4122     2.4648 O.3     
   8 C8            -0.6604     1.6736    -0.9609 C.3     
   9 C9            -0.9679     5.0947     0.3585 C.ar    
  10 N10           -0.8217     3.7869     0.2844 N.ar    
  11 C11           -0.8288     3.1692    -0.8858 C.ar    
  12 C12           -0.9926     3.9166    -2.0417 C.ar    
  13 C13           -1.1433     5.2891    -1.9233 C.ar    
  14 N14           -1.1259     5.8371    -0.7188 N.ar    
  15 C15           -1.3241     6.1461    -3.1497 C.3     
  16 S16            0.0645     1.2263    -2.5625 S.3     
  17 C17           -2.3826     0.3455    -3.4096 C.3     
  18 C18           -0.9709    -0.1604    -3.1061 C.3     
  19 C19           -0.3695    -0.7818    -4.3683 C.3     
  20 C20            0.9904    -1.3985    -4.0349 C.3     
  21 C21            1.5919    -2.0199    -5.2970 C.3     
  22 C22            2.9518    -2.6366    -4.9636 C.3     
  23 H23           -0.6806    -0.6660     0.2106 H       
  24 H24            0.8128    -0.5914    -0.7547 H       
  25 H25            0.6338    -0.3341     2.2819 H       
  26 H26            1.2150    -1.7607     1.3888 H       
  27 H27            3.0451    -0.4261     0.4104 H       
  28 H28            1.9255     1.8412     2.1224 H       
  29 H29            3.3952     1.9110     1.1195 H       
  30 H30            2.0418     1.4783    -0.9065 H       
  31 H31            1.4510     2.9239    -0.0527 H       
  32 H32            4.1733    -0.0539     2.4834 H       
  33 H33           -1.6329     1.1927    -0.8553 H       
  34 H34           -0.9624     5.5701     1.3282 H       
  35 H35           -1.0023     3.4408    -3.0112 H       
  36 H36           -2.3863     6.2350    -3.3775 H       
  37 H37           -0.9079     7.1365    -2.9654 H       
  38 H38           -0.8089     5.6866    -3.9932 H       
  39 H39           -2.3478     1.0361    -4.2522 H       
  40 H40           -3.0255    -0.4989    -3.6584 H       
  41 H41           -2.7803     0.8596    -2.5346 H       
  42 H42           -1.0159    -0.9113    -2.3173 H       
  43 H43           -1.0371    -1.5566    -4.7454 H       
  44 H44           -0.2423    -0.0105    -5.1279 H       
  45 H45            1.6580    -0.6238    -3.6578 H       
  46 H46            0.8632    -2.1698    -3.2753 H       
  47 H47            0.9243    -2.7947    -5.6741 H       
  48 H48            1.7191    -1.2486    -6.0566 H       
  49 H49            2.8246    -3.4079    -4.2040 H       
  50 H50            3.3803    -3.0793    -5.8628 H       
  51 H51            3.6194    -1.8618    -4.5865 H       
@<TRIPOS>BOND
   1    1    2 1
   2    1    6 1
   3    1    8 1
   4    2    3 1
   5    2   23 1
   6    2   24 1
   7    3    4 1
   8    3   25 1
   9    3   26 1
  10    4    5 1
  11    4    7 1
  12    4   27 1
  13    5    6 1
  14    5   28 1
  15    5   29 1
  16    6   30 1
  17    6   31 1
  18    7   32 1
  19    8   11 1
  20    8   16 1
  21    8   33 1
  22    9   10 ar
  23    9   14 ar
  24    9   34 1
  25   10   11 ar
  26   11   12 ar
  27   12   13 ar
  28   12   35 1
  29   13   14 ar
  30   13   15 1
  31   15   36 1
  32   15   37 1
  33   15   38 1
  34   16   18 1
  35   17   18 1
  36   17   39 1
  37   17   40 1
  38   17   41 1
  39   18   19 1
  40   18   42 1
  41   19   20 1
  42   19   43 1
  43   19   44 1
  44   20   21 1
  45   20   45 1
  46   20   46 1
  47   21   22 1
  48   21   47 1
  49   21   48 1
  50   22   49 1
  51   22   50 1
  52   22   51 1

#	End of record

