#	Name: ASD01918128
#	Creating user name:	WinNT
#	Creation time:	15. 06. 2019 20:10

#	Modifying user name:	WinNT
#	Modification time:	15. 06. 2019 20:10

#	Program:	/corina/corina34_cracker 3.40 0067  02.08.2006

@<TRIPOS>MOLECULE
ASD01918128
  38   41    0    0    0
SMALL
NO_CHARGES


@<TRIPOS>ATOM
   1 N1             4.8198    -0.4116    -2.1418 N.ar    
   2 C2             5.2869     0.2863    -3.1581 C.ar    
   3 C3             5.1749     1.6654    -3.1836 C.ar    
   4 C4             4.5621     2.3140    -2.1226 C.ar    
   5 C5             4.0809     1.5454    -1.0671 C.ar    
   6 C6             4.2307     0.1669    -1.1140 C.ar    
   7 O7             3.4733     2.1368    -0.0051 O.3     
   8 C8             3.4546     3.4961     0.0444 C.2     
   9 N9             2.2034     5.5121    -0.0211 N.pl3   
  10 C10            2.2732     4.1515    -0.0649 C.2     
  11 C11            4.6560     4.1967     0.2135 C.2     
  12 C12            4.6316     5.5849     0.2635 C.2     
  13 C13            3.3390     6.2634     0.1362 C.2     
  14 C14            5.8734     6.3551     0.4404 C.2     
  15 N15            5.8306     7.7014     0.4866 N.am    
  16 O16            6.9382     5.7765     0.5449 O.2     
  17 C17            1.1550     6.3894    -0.1065 C.2     
  18 C18            1.6684     7.6342    -0.0094 C.2     
  19 N19            2.9932     7.5380     0.1439 N.2     
  20 Cl20           5.7948     2.5724    -4.5278 Cl      
  21 C21            6.9894     8.4267     0.7596 C.ar    
  22 N22            8.1479     7.7953     0.8651 N.ar    
  23 C23            6.9176     9.8064     0.9127 C.ar    
  24 C24            8.0749    10.5153     1.1834 C.ar    
  25 C25            9.2706     9.8153     1.2922 C.ar    
  26 C26            9.2683     8.4425     1.1223 C.ar    
  27 F27           10.4232    10.4690     1.5557 F       
  28 H28            5.7636    -0.2249    -3.9814 H       
  29 H29            4.4609     3.3892    -2.1153 H       
  30 H30            3.8608    -0.4387    -0.2999 H       
  31 H31            1.3645     3.5814    -0.1903 H       
  32 H32            5.5908     3.6635     0.3042 H       
  33 H33            4.9934     8.1657     0.3300 H       
  34 H34            0.1136     6.1336    -0.2349 H       
  35 H35            1.1027     8.5537    -0.0413 H       
  36 H36            5.9711    10.3185     0.8212 H       
  37 H37            8.0495    11.5879     1.3070 H       
  38 H38           10.1952     7.8938     1.2013 H       
@<TRIPOS>BOND
   1    1    2 ar
   2    1    6 ar
   3    2    3 ar
   4    2   28 1
   5    3    4 ar
   6    3   20 1
   7    4    5 ar
   8    4   29 1
   9    5    6 ar
  10    5    7 1
  11    6   30 1
  12    7    8 1
  13    8   11 1
  14    8   10 2
  15    9   10 1
  16    9   17 1
  17    9   13 1
  18   10   31 1
  19   11   12 2
  20   11   32 1
  21   12   13 1
  22   12   14 1
  23   13   19 2
  24   14   15 am
  25   14   16 2
  26   15   21 1
  27   15   33 1
  28   17   18 2
  29   17   34 1
  30   18   19 1
  31   18   35 1
  32   21   23 ar
  33   21   22 ar
  34   22   26 ar
  35   23   24 ar
  36   23   36 1
  37   24   25 ar
  38   24   37 1
  39   25   26 ar
  40   25   27 1
  41   26   38 1

#	End of record

