#	Name: ASD01148855
#	Creating user name:	WinNT
#	Creation time:	15. 06. 2019 19:03

#	Modifying user name:	WinNT
#	Modification time:	15. 06. 2019 19:03

#	Program:	/corina/corina34_cracker 3.40 0067  02.08.2006

@<TRIPOS>MOLECULE
ASD01148855
  23   23    0    0    0
SMALL
NO_CHARGES


@<TRIPOS>ATOM
   1 C1            -0.0167     1.3784     0.0096 C.ar    
   2 C2             0.0021    -0.0041     0.0020 C.ar    
   3 C3             1.2082    -0.6788    -0.0132 C.ar    
   4 C4             2.3960     0.0287    -0.0212 C.ar    
   5 C5             2.3773     1.4107    -0.0145 C.ar    
   6 C6             1.1708     2.0856     0.0021 C.ar    
   7 N7             1.2283    -2.1588    -0.0203 N.pl3   
   8 O8             0.1819    -2.7821    -0.0128 O.2     
   9 O9             2.2913    -2.7534    -0.0337 O.2     
  10 S10           -1.5544     2.2385     0.0216 S.o2    
  11 O11           -1.2592     3.4924    -0.5782 O.2     
  12 O12           -2.4670     1.3333    -0.5842 O.2     
  13 C13           -1.9411     2.4499     1.7812 C.3     
  14 C14           -3.2706     3.1932     1.9255 C.3     
  15 H15           -0.9258    -0.5567     0.0083 H       
  16 H16            3.3385    -0.4985    -0.0324 H       
  17 H17            3.3051     1.9634    -0.0201 H       
  18 H18            1.1561     3.1655     0.0077 H       
  19 H19           -2.0182     1.4720     2.2564 H       
  20 H20           -1.1492     3.0254     2.2607 H       
  21 H21           -3.1935     4.1712     1.4504 H       
  22 H22           -4.0625     2.6178     1.4461 H       
  23 H23           -3.5030     3.3203     2.9829 H       
@<TRIPOS>BOND
   1    1    2 ar
   2    1    6 ar
   3    1   10 1
   4    2    3 ar
   5    2   15 1
   6    3    4 ar
   7    3    7 1
   8    4    5 ar
   9    4   16 1
  10    5    6 ar
  11    5   17 1
  12    6   18 1
  13    7    8 2
  14    7    9 2
  15   10   11 2
  16   10   12 2
  17   10   13 1
  18   13   14 1
  19   13   19 1
  20   13   20 1
  21   14   21 1
  22   14   22 1
  23   14   23 1

#	End of record

