#	Name: ASD08710061
#	Creating user name:	WinNT
#	Creation time:	15. 06. 2019 21:19

#	Modifying user name:	WinNT
#	Modification time:	15. 06. 2019 21:19

#	Program:	/corina/corina34_cracker 3.40 0067  02.08.2006

@<TRIPOS>MOLECULE
ASD08710061
  65   68    0    0    0
SMALL
NO_CHARGES


@<TRIPOS>ATOM
   1 C1             3.2907    -0.9111     1.7190 C.ar    
   2 C2             3.2445    -2.2225     1.2835 C.ar    
   3 C3             2.4308     0.0269     1.1796 C.ar    
   4 C4             1.5245    -0.3462     0.2045 C.ar    
   5 C5             1.4786    -1.6570    -0.2313 C.ar    
   6 C6             2.3385    -2.5954     0.3086 C.ar    
   7 S7             2.2805    -4.2664    -0.2472 S.o2    
   8 O8             3.3083    -4.9571     0.4497 O.2     
   9 O9             0.9147    -4.6564    -0.2041 O.2     
  10 N10            2.7168    -4.2671    -1.8447 N.am    
  11 C11            4.1342    -4.2606    -2.2330 C.3     
  12 C12            1.6935    -4.2803    -2.8995 C.3     
  13 C13            1.9585    -5.4746    -3.8245 C.3     
  14 N14            3.3759    -5.4625    -4.2127 N.am    
  15 C15            4.3941    -5.4550    -3.1593 C.3     
  16 C16            3.7310    -5.4639    -5.5129 C.2     
  17 O17            2.8789    -5.3770    -6.3759 O.2     
  18 C18            5.1537    -5.5710    -5.8889 C.ar    
  19 C19            0.4901    -2.0639    -1.2935 C.3     
  20 C20            2.4808     1.4562     1.6547 C.3     
  21 F21            3.4690     1.5871     2.6362 F       
  22 F22            2.7803     2.2958     0.5764 F       
  23 F23            1.2394     1.8125     2.1924 F       
  24 C24            1.6394    -6.7763    -3.0864 C.3     
  25 C25            5.7186    -4.6669    -6.8012 C.ar    
  26 C26            7.0426    -4.8033    -7.1209 C.ar    
  27 C27            7.7852    -5.8273    -6.5362 C.ar    
  28 N28            7.2268    -6.6688    -5.6764 N.ar    
  29 C29            5.9585    -6.5696    -5.3378 C.ar    
  30 N30            9.1246    -5.9685    -6.8576 N.3     
  31 C31            9.7225    -7.1021    -6.1374 C.3     
  32 C32           11.1839    -7.2585    -6.5662 C.3     
  33 O33           11.8808    -6.0337    -6.3220 O.3     
  34 C34           11.3255    -4.9087    -7.0085 C.3     
  35 C35            9.8655    -4.7285    -6.5842 C.3     
  36 C36            4.8864    -3.5709    -7.4155 C.3     
  37 H37            3.9956    -0.6207     2.4840 H       
  38 H38            3.9167    -2.9554     1.7047 H       
  39 H39            0.8521     0.3867    -0.2166 H       
  40 H40            4.3655    -3.3336    -2.7577 H       
  41 H41            4.7577    -4.3455    -1.3429 H       
  42 H42            0.7056    -4.3781    -2.4496 H       
  43 H43            1.7471    -3.3547    -3.4728 H       
  44 H44            1.3347    -5.3935    -4.7146 H       
  45 H45            5.3830    -5.3564    -3.6070 H       
  46 H46            4.3384    -6.3829    -2.5901 H       
  47 H47            0.9460    -1.9499    -2.2769 H       
  48 H48            0.2041    -3.1050    -1.1440 H       
  49 H49           -0.3949    -1.4309    -1.2277 H       
  50 H50            0.5916    -6.7763    -2.7863 H       
  51 H51            1.8285    -7.6235    -3.7457 H       
  52 H52            2.2709    -6.8565    -2.2016 H       
  53 H53            7.5073    -4.1238    -7.8200 H       
  54 H54            5.5352    -7.2716    -4.6346 H       
  55 H55            9.6759    -6.9170    -5.0643 H       
  56 H56            9.1741    -8.0139    -6.3743 H       
  57 H57           11.6474    -8.0615    -5.9930 H       
  58 H58           11.2279    -7.4967    -7.6289 H       
  59 H59           11.8914    -4.0122    -6.7553 H       
  60 H60           11.3736    -5.0786    -8.0841 H       
  61 H61            9.4216    -3.9076    -7.1473 H       
  62 H62            9.8212    -4.5055    -5.5182 H       
  63 H63            4.8546    -2.7165    -6.7394 H       
  64 H64            5.3288    -3.2672    -8.3642 H       
  65 H65            3.8739    -3.9363    -7.5872 H       
@<TRIPOS>BOND
   1    1    2 ar
   2    1    3 ar
   3    1   37 1
   4    2    6 ar
   5    2   38 1
   6    3    4 ar
   7    3   20 1
   8    4    5 ar
   9    4   39 1
  10    5    6 ar
  11    5   19 1
  12    6    7 1
  13    7    8 2
  14    7    9 2
  15    7   10 am
  16   10   11 1
  17   10   12 1
  18   11   15 1
  19   11   40 1
  20   11   41 1
  21   12   13 1
  22   12   42 1
  23   12   43 1
  24   13   14 1
  25   13   24 1
  26   13   44 1
  27   14   15 1
  28   14   16 am
  29   15   45 1
  30   15   46 1
  31   16   17 2
  32   16   18 1
  33   18   25 ar
  34   18   29 ar
  35   19   47 1
  36   19   48 1
  37   19   49 1
  38   20   21 1
  39   20   22 1
  40   20   23 1
  41   24   50 1
  42   24   51 1
  43   24   52 1
  44   25   26 ar
  45   25   36 1
  46   26   27 ar
  47   26   53 1
  48   27   28 ar
  49   27   30 1
  50   28   29 ar
  51   29   54 1
  52   30   31 1
  53   30   35 1
  54   31   32 1
  55   31   55 1
  56   31   56 1
  57   32   33 1
  58   32   57 1
  59   32   58 1
  60   33   34 1
  61   34   35 1
  62   34   59 1
  63   34   60 1
  64   35   61 1
  65   35   62 1
  66   36   63 1
  67   36   64 1
  68   36   65 1

#	End of record

