#	Name: ASD00840152
#	Creating user name:	WinNT
#	Creation time:	15. 06. 2019 18:37

#	Modifying user name:	WinNT
#	Modification time:	15. 06. 2019 18:37

#	Program:	/corina/corina34_cracker 3.40 0067  02.08.2006

@<TRIPOS>MOLECULE
ASD00840152
  25   26    0    0    0
SMALL
NO_CHARGES


@<TRIPOS>ATOM
   1 C1            -0.0167     1.3781     0.0096 C.ar    
   2 C2             0.0021    -0.0041     0.0020 C.ar    
   3 C3             1.2084    -0.6789    -0.0132 C.ar    
   4 C4             2.3960     0.0285    -0.0212 C.ar    
   5 C5             2.3773     1.4107    -0.0145 C.ar    
   6 C6             1.1710     2.0855     0.0021 C.ar    
   7 C7             3.6720     2.1819    -0.0228 C.3     
   8 C8             4.0969     2.4497    -1.4680 C.3     
   9 N9             5.3555     3.1994    -1.4761 N.pl3   
  10 C10            6.6001     2.6756    -1.4904 C.2     
  11 N11            7.4652     3.6526    -1.4936 N.2     
  12 C12            6.8105     4.8232    -1.4815 C.2     
  13 C13            5.4895     4.5616    -1.4764 C.2     
  14 H14           -0.9592     1.9054     0.0170 H       
  15 H15           -0.9258    -0.5567     0.0083 H       
  16 H16            1.2231    -1.7588    -0.0184 H       
  17 H17            3.3386    -0.4987    -0.0324 H       
  18 H18            1.1563     3.1654     0.0069 H       
  19 H19            3.5335     3.1300     0.4968 H       
  20 H20            4.4443     1.6008     0.4812 H       
  21 H21            4.2354     1.5016    -1.9876 H       
  22 H22            3.3246     3.0308    -1.9720 H       
  23 H23            6.8399     1.6226    -1.4975 H       
  24 H24            7.2634     5.8037    -1.4802 H       
  25 H25            4.6896     5.2872    -1.4671 H       
@<TRIPOS>BOND
   1    1    2 ar
   2    1    6 ar
   3    1   14 1
   4    2    3 ar
   5    2   15 1
   6    3    4 ar
   7    3   16 1
   8    4    5 ar
   9    4   17 1
  10    5    6 ar
  11    5    7 1
  12    6   18 1
  13    7    8 1
  14    7   19 1
  15    7   20 1
  16    8    9 1
  17    8   21 1
  18    8   22 1
  19    9   10 1
  20    9   13 1
  21   10   11 2
  22   10   23 1
  23   11   12 1
  24   12   13 2
  25   12   24 1
  26   13   25 1

#	End of record

