#	Name: ASD01120143
#	Creating user name:	WinNT
#	Creation time:	15. 06. 2019 18:59

#	Modifying user name:	WinNT
#	Modification time:	15. 06. 2019 18:59

#	Program:	/corina/corina34_cracker 3.40 0067  02.08.2006

@<TRIPOS>MOLECULE
ASD01120143
  36   38    0    0    0
SMALL
NO_CHARGES


@<TRIPOS>ATOM
   1 C1            -0.0585     1.4177     0.6826 C.ar    
   2 C2            -0.0452     0.0189     0.7722 C.ar    
   3 C3            -1.2119    -0.7044     0.6585 C.ar    
   4 C4            -2.4228    -0.0326     0.4517 C.ar    
   5 C5            -2.4284     1.3816     0.3627 C.ar    
   6 C6            -1.2293     2.0936     0.4863 C.ar    
   7 N7            -3.5867    -0.6907     0.3339 N.ar    
   8 C8            -4.7054    -0.0337     0.1401 C.ar    
   9 N9            -4.7590     1.2857     0.0501 N.ar    
  10 C10           -3.6674     2.0325     0.1530 C.ar    
  11 C11           -6.0862     3.4971     0.6120 C.ar    
  12 C12           -4.9820     4.0391    -0.0332 C.ar    
  13 C13           -5.1163     5.2100    -0.7684 C.ar    
  14 C14           -6.3475     5.8317    -0.8556 C.ar    
  15 C15           -7.4455     5.2883    -0.2111 C.ar    
  16 C16           -7.3140     4.1233     0.5215 C.ar    
  17 O17            1.1062     2.1100     0.7980 O.3     
  18 C18            1.0276     3.5333     0.6980 C.3     
  19 O19            1.1310    -0.6304     0.9729 O.3     
  20 C20            1.0792    -2.0561     1.0553 C.3     
  21 N21           -3.7382     3.4079     0.0575 N.pl3   
  22 Cl22          -6.5171     7.2954    -1.7734 Cl      
  23 H23           -1.1928    -1.7820     0.7280 H       
  24 H24           -1.2290     3.1715     0.4195 H       
  25 H25           -5.6239    -0.5946     0.0497 H       
  26 H26           -5.9856     2.5844     1.1806 H       
  27 H27           -4.2596     5.6342    -1.2709 H       
  28 H28           -8.4068     5.7757    -0.2805 H       
  29 H29           -8.1726     3.7019     1.0231 H       
  30 H30            0.6193     3.8072    -0.2748 H       
  31 H31            0.3793     3.9176     1.4854 H       
  32 H32            2.0243     3.9608     0.8070 H       
  33 H33            2.0837    -2.4475     1.2164 H       
  34 H34            0.4376    -2.3489     1.8863 H       
  35 H35            0.6769    -2.4594     0.1260 H       
  36 H36           -2.9247     3.9363     0.0533 H       
@<TRIPOS>BOND
   1    1    2 ar
   2    1   17 1
   3    1    6 ar
   4    2    3 ar
   5    2   19 1
   6    3    4 ar
   7    3   23 1
   8    4    5 ar
   9    4    7 ar
  10    5    6 ar
  11    5   10 ar
  12    6   24 1
  13    7    8 ar
  14    8    9 ar
  15    8   25 1
  16    9   10 ar
  17   10   21 1
  18   11   12 ar
  19   11   16 ar
  20   11   26 1
  21   12   13 ar
  22   12   21 1
  23   13   14 ar
  24   13   27 1
  25   14   15 ar
  26   14   22 1
  27   15   16 ar
  28   15   28 1
  29   16   29 1
  30   17   18 1
  31   18   30 1
  32   18   31 1
  33   18   32 1
  34   19   20 1
  35   20   33 1
  36   20   34 1
  37   20   35 1
  38   21   36 1

#	End of record

