#	Name: ASD01940240
#	Creating user name:	WinNT
#	Creation time:	15. 06. 2019 20:12

#	Modifying user name:	WinNT
#	Modification time:	15. 06. 2019 20:12

#	Program:	/corina/corina34_cracker 3.40 0067  02.08.2006

@<TRIPOS>MOLECULE
ASD01940240
  32   33    0    0    0
SMALL
NO_CHARGES


@<TRIPOS>ATOM
   1 F1             1.9021     1.6002     2.2854 F       
   2 C2             1.0632     2.1517     1.3813 C.ar    
   3 C3             1.3877     2.1344     0.0314 C.ar    
   4 C4             0.5190     2.7047    -0.8977 C.ar    
   5 C5            -0.6650     3.2864    -0.4699 C.ar    
   6 C6            -0.9828     3.3011     0.8758 C.ar    
   7 C7            -0.1246     2.7299     1.7999 C.ar    
   8 N8             2.5859     1.5456    -0.3960 N.pl3   
   9 N9             0.8416     2.6905    -2.2613 N.am    
  10 C10            2.6328     0.1756    -0.6690 C.ar    
  11 C11            1.4776    -0.5906    -0.5854 C.ar    
  12 C12            1.5269    -1.9443    -0.8564 C.ar    
  13 C13            2.7254    -2.5374    -1.2107 C.ar    
  14 C14            3.8789    -1.7774    -1.2947 C.ar    
  15 C15            3.8352    -0.4220    -1.0306 C.ar    
  16 Cl16           5.2823     0.5312    -1.1361 Cl      
  17 F17           -0.4428     2.7416     3.1128 F       
  18 S18            0.4248     3.9718    -3.2241 S.o2    
  19 O19            0.9901     3.6578    -4.4894 O.2     
  20 O20           -0.9816     4.0910    -3.0593 O.2     
  21 Br21           2.7877    -4.3909    -1.5806 Br      
  22 C22            1.2753     5.3916    -2.4815 C.3     
  23 F23            0.9917     6.5444    -3.2217 F       
  24 H24           -1.3393     3.7287    -1.1883 H       
  25 H25           -1.9053     3.7551     1.2063 H       
  26 H26            3.3824     2.0889    -0.5022 H       
  27 H27            1.3091     1.9303    -2.6412 H       
  28 H28            0.5416    -0.1285    -0.3085 H       
  29 H29            0.6287    -2.5404    -0.7910 H       
  30 H30            4.8132    -2.2434    -1.5710 H       
  31 H31            0.9320     5.5249    -1.4556 H       
  32 H32            2.3506     5.2132    -2.4845 H       
@<TRIPOS>BOND
   1    1    2 1
   2    2    3 ar
   3    2    7 ar
   4    3    4 ar
   5    3    8 1
   6    4    5 ar
   7    4    9 1
   8    5    6 ar
   9    5   24 1
  10    6    7 ar
  11    6   25 1
  12    7   17 1
  13    8   10 1
  14    8   26 1
  15    9   18 am
  16    9   27 1
  17   10   11 ar
  18   10   15 ar
  19   11   12 ar
  20   11   28 1
  21   12   13 ar
  22   12   29 1
  23   13   14 ar
  24   13   21 1
  25   14   15 ar
  26   14   30 1
  27   15   16 1
  28   18   19 2
  29   18   20 2
  30   18   22 1
  31   22   23 1
  32   22   31 1
  33   22   32 1

#	End of record

