#	Name: ASD03092744
#	Creating user name:	WinNT
#	Creation time:	15. 06. 2019 20:33

#	Modifying user name:	WinNT
#	Modification time:	15. 06. 2019 20:33

#	Program:	/corina/corina34_cracker 3.40 0067  02.08.2006

@<TRIPOS>MOLECULE
ASD03092744
  50   50    0    0    0
SMALL
NO_CHARGES


@<TRIPOS>ATOM
   1 N1            -0.4079     1.2973    -0.0386 N.3     
   2 C2            -0.1820    -0.1386     0.0216 C.3     
   3 C3             0.9608    -0.4905     0.9757 C.3     
   4 C4             2.2095     0.3174     0.6177 C.3     
   5 C5             1.8780     1.8052     0.7470 C.3     
   6 C6             0.7406     2.1740    -0.2071 C.3     
   7 C7             1.2473     2.1972    -1.6482 C.3     
   8 C8             0.2924     3.6105     0.1467 C.3     
   9 C9            -1.4653    -0.7944     0.5806 C.3     
  10 C10            0.0757    -0.7445    -1.3569 C.3     
  11 O11            3.2771    -0.0164     1.5488 O.3     
  12 C12            4.5353     0.0661     1.0884 C.2     
  13 C13            5.6927    -0.2644     1.9951 C.3     
  14 O14            4.7398     0.4053    -0.0531 O.2     
  15 C15            7.0060    -0.0913     1.2295 C.3     
  16 C16            8.1811    -0.4268     2.1501 C.3     
  17 C17            9.4943    -0.2537     1.3845 C.3     
  18 C18           10.6694    -0.5893     2.3051 C.3     
  19 C19           11.9827    -0.4161     1.5394 C.3     
  20 H20           -1.1619     1.5361    -0.6652 H       
  21 H21            0.6613    -0.2614     1.9997 H       
  22 H22            1.1828    -1.5560     0.8975 H       
  23 H23            2.5363     0.0864    -0.3918 H       
  24 H24            1.5751     2.0220     1.7727 H       
  25 H25            2.7619     2.3967     0.5026 H       
  26 H26            1.7358     1.2500    -1.8768 H       
  27 H27            0.4070     2.3456    -2.3264 H       
  28 H28            1.9605     3.0124    -1.7696 H       
  29 H29            1.1324     4.2940     0.0233 H       
  30 H30           -0.5205     3.9106    -0.5146 H       
  31 H31           -0.0509     3.6397     1.1808 H       
  32 H32           -2.3043    -0.5704    -0.0782 H       
  33 H33           -1.3263    -1.8739     0.6378 H       
  34 H34           -1.6701    -0.4012     1.5764 H       
  35 H35            1.0204    -0.3673    -1.7488 H       
  36 H36            0.1247    -1.8302    -1.2733 H       
  37 H37           -0.7340    -0.4682    -2.0324 H       
  38 H38            5.6828     0.4047     2.8555 H       
  39 H39            5.6041    -1.2960     2.3360 H       
  40 H40            7.0159    -0.7604     0.3691 H       
  41 H41            7.0945     0.9402     0.8886 H       
  42 H42            8.1711     0.2423     3.0105 H       
  43 H43            8.0925    -1.4584     2.4910 H       
  44 H44            9.5043    -0.9228     0.5241 H       
  45 H45            9.5829     0.7778     1.0436 H       
  46 H46           10.6595     0.0799     3.1655 H       
  47 H47           10.5809    -1.6208     2.6460 H       
  48 H48           11.9926    -1.0853     0.6791 H       
  49 H49           12.0713     0.6154     1.1985 H       
  50 H50           12.8199    -0.6552     2.1953 H       
@<TRIPOS>BOND
   1    1    2 1
   2    1    6 1
   3    1   20 1
   4    2    3 1
   5    2    9 1
   6    2   10 1
   7    3    4 1
   8    3   21 1
   9    3   22 1
  10    4    5 1
  11    4   11 1
  12    4   23 1
  13    5    6 1
  14    5   24 1
  15    5   25 1
  16    6    7 1
  17    6    8 1
  18    7   26 1
  19    7   27 1
  20    7   28 1
  21    8   29 1
  22    8   30 1
  23    8   31 1
  24    9   32 1
  25    9   33 1
  26    9   34 1
  27   10   35 1
  28   10   36 1
  29   10   37 1
  30   11   12 1
  31   12   13 1
  32   12   14 2
  33   13   15 1
  34   13   38 1
  35   13   39 1
  36   15   16 1
  37   15   40 1
  38   15   41 1
  39   16   17 1
  40   16   42 1
  41   16   43 1
  42   17   18 1
  43   17   44 1
  44   17   45 1
  45   18   19 1
  46   18   46 1
  47   18   47 1
  48   19   48 1
  49   19   49 1
  50   19   50 1

#	End of record

