#	Name: ASD09740235
#	Creating user name:	WinNT
#	Creation time:	15. 06. 2019 21:23

#	Modifying user name:	WinNT
#	Modification time:	15. 06. 2019 21:23

#	Program:	/corina/corina34_cracker 3.40 0067  02.08.2006

@<TRIPOS>MOLECULE
ASD09740235
  33   36    0    0    0
SMALL
NO_CHARGES


@<TRIPOS>ATOM
   1 C1            -0.0161     1.3381     0.0094 C.2     
   2 O2             0.0021    -0.0041     0.0020 O.3     
   3 N3            -1.1324    -0.4326     0.0105 N.2     
   4 C4            -1.9915     0.5543     0.0240 C.2     
   5 N5            -1.2848     1.7037     0.0293 N.2     
   6 C6            -3.4707     0.4318     0.0375 C.ar    
   7 C7            -4.0678    -0.8271     0.0370 C.ar    
   8 C8            -4.2665     1.5753     0.0566 C.ar    
   9 C9            -5.6413     1.4562     0.0695 C.ar    
  10 C10           -6.2298     0.2034     0.0636 C.ar    
  11 C11           -5.4434    -0.9357     0.0500 C.ar    
  12 C12            1.1579     2.2341     0.0030 C.ar    
  13 C13            0.9817     3.6191     0.0126 C.ar    
  14 Br14          -8.1143     0.0473     0.0821 Br      
  15 C15            2.0792     4.4528     0.0051 C.ar    
  16 C16            3.3623     3.9210    -0.0124 C.ar    
  17 C17            3.5448     2.5405    -0.0191 C.ar    
  18 C18            2.4475     1.6986    -0.0069 C.ar    
  19 O19            4.4307     4.7629    -0.0277 O.3     
  20 O20            4.7958     2.0035    -0.0285 O.3     
  21 C21            5.6978     4.2025     0.3325 C.3     
  22 C22            5.8658     2.8727    -0.4149 C.3     
  23 H23           -3.4551    -1.7164     0.0261 H       
  24 H24           -3.8082     2.5532     0.0615 H       
  25 H25           -6.2590     2.3419     0.0846 H       
  26 H26           -5.9073    -1.9110     0.0451 H       
  27 H27           -0.0141     4.0369     0.0256 H       
  28 H28            1.9410     5.5239     0.0125 H       
  29 H29            2.5879     0.6278    -0.0141 H       
  30 H30            6.4966     4.8874     0.0481 H       
  31 H31            5.7294     4.0263     1.4077 H       
  32 H32            6.8212     2.4201    -0.1496 H       
  33 H33            5.8272     3.0478    -1.4900 H       
@<TRIPOS>BOND
   1    1    2 1
   2    1   12 1
   3    1    5 2
   4    2    3 1
   5    3    4 2
   6    4    5 1
   7    4    6 1
   8    6    7 ar
   9    6    8 ar
  10    7   11 ar
  11    7   23 1
  12    8    9 ar
  13    8   24 1
  14    9   10 ar
  15    9   25 1
  16   10   11 ar
  17   10   14 1
  18   11   26 1
  19   12   13 ar
  20   12   18 ar
  21   13   15 ar
  22   13   27 1
  23   15   16 ar
  24   15   28 1
  25   16   17 ar
  26   16   19 1
  27   17   18 ar
  28   17   20 1
  29   18   29 1
  30   19   21 1
  31   20   22 1
  32   21   22 1
  33   21   30 1
  34   21   31 1
  35   22   32 1
  36   22   33 1

#	End of record

