#	Name: ASD08070201
#	Creating user name:	WinNT
#	Creation time:	15. 06. 2019 21:14

#	Modifying user name:	WinNT
#	Modification time:	15. 06. 2019 21:14

#	Program:	/corina/corina34_cracker 3.40 0067  02.08.2006

@<TRIPOS>MOLECULE
ASD08070201
  38   39    0    0    0
SMALL
NO_CHARGES


@<TRIPOS>ATOM
   1 C1            -0.0169     1.3917     0.0097 C.ar    
   2 C2             0.0021    -0.0041     0.0020 C.ar    
   3 C3            -1.2662    -0.7638     0.0096 C.2     
   4 O4            -2.3285    -0.1731     0.0225 O.2     
   5 N5            -1.2445    -2.1114     0.0021 N.am    
   6 C6            -2.5013    -2.8643     0.0096 C.3     
   7 C7            -2.2726    -4.2446    -0.6096 C.3     
   8 C8            -3.5851    -5.0308    -0.6018 C.3     
   9 C9             1.2234    -0.6792    -0.0133 C.ar    
  10 C10            2.4034     0.0359    -0.0207 C.ar    
  11 C11            2.3776     1.4190    -0.0130 C.ar    
  12 C12            1.1700     2.0946     0.0021 C.ar    
  13 C13            1.1515     3.6014     0.0104 C.3     
  14 C14           -2.9902    -3.0262     1.4503 C.3     
  15 C15           -4.3027    -3.8125     1.4581 C.3     
  16 C16           -4.0740    -5.1928     0.8389 C.3     
  17 C17           -1.7837    -4.0826    -2.0503 C.3     
  18 F18            2.4646     4.0840     0.0005 F       
  19 F19            0.4755     4.0657    -1.1230 F       
  20 F20            0.4973     4.0535     1.1614 F       
  21 H21           -0.9587     1.9202     0.0170 H       
  22 H22           -0.3968    -2.5828    -0.0082 H       
  23 H23           -3.2509    -2.3257    -0.5701 H       
  24 H24           -1.5230    -4.7831    -0.0299 H       
  25 H25           -4.3347    -4.4922    -1.1815 H       
  26 H26           -3.4222    -6.0142    -1.0429 H       
  27 H27            1.2448    -1.7590    -0.0189 H       
  28 H28            3.3492    -0.4853    -0.0322 H       
  29 H29            3.3041     1.9740    -0.0185 H       
  30 H30           -2.2406    -3.5648     2.0300 H       
  31 H31           -3.1531    -2.0429     1.8914 H       
  32 H32           -4.6510    -3.9278     2.4845 H       
  33 H33           -5.0523    -3.2739     0.8784 H       
  34 H34           -5.0091    -5.7529     0.8445 H       
  35 H35           -3.3244    -5.7314     1.4186 H       
  36 H36           -0.8486    -3.5225    -2.0558 H       
  37 H37           -1.6208    -5.0659    -2.4914 H       
  38 H38           -2.5333    -3.5440    -2.6300 H       
@<TRIPOS>BOND
   1    1    2 ar
   2    1   12 ar
   3    1   21 1
   4    2    3 1
   5    2    9 ar
   6    3    4 2
   7    3    5 am
   8    5    6 1
   9    5   22 1
  10    6    7 1
  11    6   14 1
  12    6   23 1
  13    7    8 1
  14    7   17 1
  15    7   24 1
  16    8   16 1
  17    8   25 1
  18    8   26 1
  19    9   10 ar
  20    9   27 1
  21   10   11 ar
  22   10   28 1
  23   11   12 ar
  24   11   29 1
  25   12   13 1
  26   13   18 1
  27   13   19 1
  28   13   20 1
  29   14   15 1
  30   14   30 1
  31   14   31 1
  32   15   16 1
  33   15   32 1
  34   15   33 1
  35   16   34 1
  36   16   35 1
  37   17   36 1
  38   17   37 1
  39   17   38 1

#	End of record

