#	Name: ASD03240726
#	Creating user name:	WinNT
#	Creation time:	15. 06. 2019 20:35

#	Modifying user name:	WinNT
#	Modification time:	15. 06. 2019 20:35

#	Program:	/corina/corina34_cracker 3.40 0067  02.08.2006

@<TRIPOS>MOLECULE
ASD03240726
  85   91    0    0    0
SMALL
NO_CHARGES


@<TRIPOS>ATOM
   1 C1             2.1278     1.3308    -1.6955 C.2     
   2 N2             2.1781    -0.0127    -1.7238 N.2     
   3 C3             3.2736    -0.6720    -1.4477 C.2     
   4 C4             4.4813     0.0726    -1.0973 C.ar    
   5 C5             4.4220     1.4825    -1.0693 C.ar    
   6 N6             3.2200     2.0911    -1.3759 N.pl3   
   7 C7             5.6824    -0.5755    -0.7917 C.ar    
   8 C8             6.7833     0.2114    -0.4685 C.ar    
   9 C9             6.6469     1.6130    -0.4617 C.ar    
  10 N10            5.4926     2.1916    -0.7576 N.ar    
  11 N11            2.8388     3.4369    -1.4371 N.2     
  12 C12            1.5741     3.5030    -1.7776 C.2     
  13 C13            1.0853     2.2133    -1.9443 C.2     
  14 C14            8.0837    -0.4179    -0.1349 C.ar    
  15 C15            8.1434    -1.4437     0.8070 C.ar    
  16 C16            9.3565    -2.0260     1.1132 C.ar    
  17 C17           10.5119    -1.5933     0.4877 C.ar    
  18 C18           10.4588    -0.5754    -0.4475 C.ar    
  19 C19            9.2505     0.0102    -0.7662 C.ar    
  20 C20            7.8154     2.4554    -0.1184 C.ar    
  21 C21            7.9999     3.6868    -0.7471 C.ar    
  22 C22            9.0906     4.4672    -0.4230 C.ar    
  23 C23           10.0004     4.0305     0.5235 C.ar    
  24 C24            9.8229     2.8102     1.1506 C.ar    
  25 C25            8.7331     2.0233     0.8392 C.ar    
  26 C26           11.1898     4.8876     0.8724 C.3     
  27 N27           10.8382     5.7852     1.9809 N.3     
  28 C28           12.0293     6.4651     2.5055 C.3     
  29 C29           11.6501     7.2764     3.7465 C.3     
  30 C30           10.5775     8.3026     3.3713 C.3     
  31 C31            9.3672     7.5723     2.7828 C.3     
  32 C32            9.8126     6.7524     1.5698 C.3     
  33 C33           10.1567     9.0642     4.6018 C.2     
  34 N34            9.2166    10.0255     4.5107 N.am    
  35 O35           10.6641     8.8119     5.6741 O.2     
  36 C36            8.8076    10.7659     5.7069 C.3     
  37 C37            7.7358    11.7909     5.3306 C.3     
  38 N38            6.4154    13.6982     6.1979 N.3     
  39 C39            7.3578    12.6104     6.5661 C.3     
  40 C40            6.5732    11.7394     7.5706 C.3     
  41 C41            5.5056    12.6793     8.1677 C.3     
  42 C42            5.7350    14.0391     7.4737 C.3     
  43 C43            7.1362    14.8592     5.6590 C.3     
  44 C44            0.7788     4.7710    -1.9525 C.3     
  45 H45            3.2854    -1.7515    -1.4779 H       
  46 H46            5.7530    -1.6531    -0.8059 H       
  47 H47            0.0762     1.9454    -2.2204 H       
  48 H48            7.2420    -1.7819     1.2965 H       
  49 H49            9.4039    -2.8209     1.8428 H       
  50 H50           11.4591    -2.0517     0.7307 H       
  51 H51           11.3642    -0.2413    -0.9325 H       
  52 H52            9.2096     0.8018    -1.4998 H       
  53 H53            7.2906     4.0286    -1.4864 H       
  54 H54            9.2347     5.4206    -0.9093 H       
  55 H55           10.5365     2.4747     1.8886 H       
  56 H56            8.5933     1.0728     1.3326 H       
  57 H57           12.0219     4.2500     1.1712 H       
  58 H58           11.4789     5.4790     0.0037 H       
  59 H59           12.7826     5.7239     2.7724 H       
  60 H60           12.4313     7.1332     1.7438 H       
  61 H61           11.2610     6.6072     4.5139 H       
  62 H62           12.5313     7.7934     4.1266 H       
  63 H63           10.9793     8.9959     2.6324 H       
  64 H64            8.9421     6.9077     3.5350 H       
  65 H65            8.6173     8.3006     2.4743 H       
  66 H66           10.2249     7.4191     0.8124 H       
  67 H67            8.9558     6.2198     1.1570 H       
  68 H68            8.8108    10.2273     3.6531 H       
  69 H69            8.4035    10.0714     6.4435 H       
  70 H70            9.6708    11.2809     6.1283 H       
  71 H71            8.1237    12.4554     4.5585 H       
  72 H72            6.8536    11.2728     4.9545 H       
  73 H73            8.2508    13.0236     7.0350 H       
  74 H74            6.0974    10.9042     7.0566 H       
  75 H75            7.2370    11.3742     8.3542 H       
  76 H76            4.5059    12.3054     7.9468 H       
  77 H77            5.6454    12.7754     9.2444 H       
  78 H78            6.3732    14.6758     8.0865 H       
  79 H79            4.7824    14.5310     7.2769 H       
  80 H80            7.6137    14.5858     4.7181 H       
  81 H81            6.4340    15.6749     5.4866 H       
  82 H82            7.8958    15.1785     6.3726 H       
  83 H83            0.8552     5.1081    -2.9863 H       
  84 H84           -0.2665     4.5808    -1.7088 H       
  85 H85            1.1723     5.5411    -1.2892 H       
@<TRIPOS>BOND
   1    1    2 1
   2    1    6 1
   3    1   13 2
   4    2    3 2
   5    3    4 1
   6    3   45 1
   7    4    5 ar
   8    4    7 ar
   9    5    6 1
  10    5   10 ar
  11    6   11 1
  12    7    8 ar
  13    7   46 1
  14    8    9 ar
  15    8   14 1
  16    9   10 ar
  17    9   20 1
  18   11   12 2
  19   12   13 1
  20   12   44 1
  21   13   47 1
  22   14   15 ar
  23   14   19 ar
  24   15   16 ar
  25   15   48 1
  26   16   17 ar
  27   16   49 1
  28   17   18 ar
  29   17   50 1
  30   18   19 ar
  31   18   51 1
  32   19   52 1
  33   20   21 ar
  34   20   25 ar
  35   21   22 ar
  36   21   53 1
  37   22   23 ar
  38   22   54 1
  39   23   24 ar
  40   23   26 1
  41   24   25 ar
  42   24   55 1
  43   25   56 1
  44   26   27 1
  45   26   57 1
  46   26   58 1
  47   27   28 1
  48   27   32 1
  49   28   29 1
  50   28   59 1
  51   28   60 1
  52   29   30 1
  53   29   61 1
  54   29   62 1
  55   30   31 1
  56   30   33 1
  57   30   63 1
  58   31   32 1
  59   31   64 1
  60   31   65 1
  61   32   66 1
  62   32   67 1
  63   33   34 am
  64   33   35 2
  65   34   36 1
  66   34   68 1
  67   36   37 1
  68   36   69 1
  69   36   70 1
  70   37   39 1
  71   37   71 1
  72   37   72 1
  73   38   39 1
  74   38   42 1
  75   38   43 1
  76   39   40 1
  77   39   73 1
  78   40   41 1
  79   40   74 1
  80   40   75 1
  81   41   42 1
  82   41   76 1
  83   41   77 1
  84   42   78 1
  85   42   79 1
  86   43   80 1
  87   43   81 1
  88   43   82 1
  89   44   83 1
  90   44   84 1
  91   44   85 1

#	End of record

