#	Name: ASD01028799
#	Creating user name:	WinNT
#	Creation time:	15. 06. 2019 18:58

#	Modifying user name:	WinNT
#	Modification time:	15. 06. 2019 18:58

#	Program:	/corina/corina34_cracker 3.40 0067  02.08.2006

@<TRIPOS>MOLECULE
ASD01028799
  19   20    0    0    0
SMALL
NO_CHARGES


@<TRIPOS>ATOM
   1 C1            -0.0168     1.3850     0.0097 C.ar    
   2 C2             0.0021    -0.0041     0.0020 C.ar    
   3 C3             1.2331    -0.6392    -0.0132 C.ar    
   4 C4             2.3820     0.1598    -0.0199 C.ar    
   5 N5             2.2620     1.4828    -0.0117 N.ar    
   6 N6             1.1168     2.0622     0.0025 N.ar    
   7 S7             4.1142    -2.1936    -0.0486 S.3     
   8 N8             5.7963    -1.9697    -0.0623 N.2     
   9 C9             6.0219    -0.6892    -0.0572 C.2     
  10 C10            4.9468     0.1647    -0.0430 C.2     
  11 C11            3.7219    -0.4651    -0.0356 C.2     
  12 C12            7.4309    -0.1546    -0.0662 C.3     
  13 Cl13          -1.5324     2.2315     0.0214 Cl      
  14 H14           -0.9163    -0.5723     0.0081 H       
  15 H15            1.3039    -1.7169    -0.0193 H       
  16 H16            5.0527     1.2395    -0.0374 H       
  17 H17            7.7617    -0.0197    -1.0960 H       
  18 H18            7.4593     0.8033     0.4530 H       
  19 H19            8.0906    -0.8608     0.4379 H       
@<TRIPOS>BOND
   1    1    2 ar
   2    1    6 ar
   3    1   13 1
   4    2    3 ar
   5    2   14 1
   6    3    4 ar
   7    3   15 1
   8    4    5 ar
   9    4   11 1
  10    5    6 ar
  11    7    8 1
  12    7   11 1
  13    8    9 2
  14    9   10 1
  15    9   12 1
  16   10   11 2
  17   10   16 1
  18   12   17 1
  19   12   18 1
  20   12   19 1

#	End of record

