#	Name: ASD02038188
#	Creating user name:	WinNT
#	Creation time:	15. 06. 2019 20:16

#	Modifying user name:	WinNT
#	Modification time:	15. 06. 2019 20:16

#	Program:	/corina/corina34_cracker 3.40 0067  02.08.2006

@<TRIPOS>MOLECULE
ASD02038188
  45   48    0    0    0
SMALL
NO_CHARGES


@<TRIPOS>ATOM
   1 C1            -0.0187     1.5282     0.0104 C.3     
   2 C2             0.0021    -0.0041     0.0020 C.3     
   3 N3             0.8206    -0.4540    -1.1341 N.am    
   4 C4             0.3481    -1.3626    -2.0103 C.2     
   5 C5             1.2039    -1.8095    -3.1674 C.3     
   6 O6             0.4873    -2.7688    -3.9472 O.3     
   7 C7             1.1222    -3.2768    -5.0370 C.ar    
   8 C8             2.4094    -2.8576    -5.3461 C.ar    
   9 C9             0.4851    -4.2154    -5.8325 C.ar    
  10 C10            1.1328    -4.7328    -6.9432 C.ar    
  11 C11            2.4233    -4.3054    -7.2539 C.ar    
  12 C12            3.0585    -3.3701    -6.4520 C.ar    
  13 C13            2.1683     0.1143    -1.2890 C.3     
  14 C14            2.0623     1.6419    -1.2298 C.3     
  15 N15            1.3606     2.0335    -0.0000 N.3     
  16 C16            1.3873     3.4207     0.1720 C.ar    
  17 C17            0.7766     3.9960     1.2789 C.ar    
  18 C18            0.8035     5.3667     1.4480 C.ar    
  19 C19            1.4382     6.1683     0.5149 C.ar    
  20 C20            2.0485     5.5972    -0.5915 C.ar    
  21 C21            2.0292     4.2244    -0.7605 C.ar    
  22 F22            2.6672     6.3812    -1.5014 F       
  23 F23            1.4628     7.5087     0.6823 F       
  24 O24           -0.7658    -1.8205    -1.8675 O.2     
  25 O25            0.7714    -5.6397    -7.8837 O.3     
  26 C26            1.7768    -5.7924    -8.7597 C.2     
  27 N27            2.8038    -4.9935    -8.4083 N.am    
  28 O28            1.7632    -6.5363    -9.7216 O.2     
  29 H29           -0.5452     1.8896    -0.8729 H       
  30 H30           -0.5282     1.8801     0.9075 H       
  31 H31            0.4355    -0.3695     0.9330 H       
  32 H32           -1.0141    -0.3834    -0.1058 H       
  33 H33            1.4529    -0.9493    -3.7887 H       
  34 H34            2.1205    -2.2613    -2.7882 H       
  35 H35            2.9037    -2.1291    -4.7206 H       
  36 H36           -0.5142    -4.5434    -5.5873 H       
  37 H37            4.0579    -3.0399    -6.6939 H       
  38 H38            2.8100    -0.2398    -0.4821 H       
  39 H39            2.5844    -0.1868    -2.2504 H       
  40 H40            3.0620     2.0763    -1.2322 H       
  41 H41            1.5068     2.0018    -2.0958 H       
  42 H42            0.2804     3.3717     2.0073 H       
  43 H43            0.3285     5.8135     2.3088 H       
  44 H44            2.5044     3.7791    -1.6221 H       
  45 H45            3.6518    -4.9114    -8.8720 H       
@<TRIPOS>BOND
   1    1    2 1
   2    1   15 1
   3    1   29 1
   4    1   30 1
   5    2    3 1
   6    2   31 1
   7    2   32 1
   8    3    4 am
   9    3   13 1
  10    4    5 1
  11    4   24 2
  12    5    6 1
  13    5   33 1
  14    5   34 1
  15    6    7 1
  16    7    8 ar
  17    7    9 ar
  18    8   12 ar
  19    8   35 1
  20    9   10 ar
  21    9   36 1
  22   10   11 ar
  23   10   25 1
  24   11   12 ar
  25   11   27 1
  26   12   37 1
  27   13   14 1
  28   13   38 1
  29   13   39 1
  30   14   15 1
  31   14   40 1
  32   14   41 1
  33   15   16 1
  34   16   17 ar
  35   16   21 ar
  36   17   18 ar
  37   17   42 1
  38   18   19 ar
  39   18   43 1
  40   19   20 ar
  41   19   23 1
  42   20   21 ar
  43   20   22 1
  44   21   44 1
  45   25   26 1
  46   26   27 am
  47   26   28 2
  48   27   45 1

#	End of record

