#	Name: ASD07270001
#	Creating user name:	WinNT
#	Creation time:	15. 06. 2019 21:09

#	Modifying user name:	WinNT
#	Modification time:	15. 06. 2019 21:09

#	Program:	/corina/corina34_cracker 3.40 0067  02.08.2006

@<TRIPOS>MOLECULE
ASD07270001
  49   53    0    0    0
SMALL
NO_CHARGES


@<TRIPOS>ATOM
   1 C1            -0.0232     1.3936     0.1272 C.ar    
   2 C2            -0.0088     0.0056     0.1750 C.ar    
   3 C3             1.1832    -0.6848     0.1439 C.ar    
   4 C4             2.3833     0.0190     0.0637 C.ar    
   5 C5             2.3729     1.4325     0.0149 C.ar    
   6 C6             1.1499     2.1090     0.0479 C.ar    
   7 C7             3.6821    -0.6671     0.0280 C.2     
   8 N8             4.7931     0.1019    -0.0498 N.am    
   9 C9             4.6897     1.4661    -0.0928 C.2     
  10 N10            3.5429     2.0963    -0.0621 N.2     
  11 O11            3.7562    -1.8819     0.0675 O.2     
  12 N12            6.0567    -0.5020    -0.0863 N.2     
  13 C13            6.3625    -1.3127    -1.0569 C.2     
  14 C14            7.7169    -1.8731    -1.1463 C.ar    
  15 C15            8.6508    -1.6459    -0.1346 C.ar    
  16 C16            9.9351    -2.1813    -0.2264 C.ar    
  17 C17           10.3225    -2.9344    -1.2892 C.ar    
  18 C18            9.4321    -3.2027    -2.3442 C.ar    
  19 C19            8.1146    -2.6863    -2.2945 C.ar    
  20 C20            9.8225    -3.9803    -3.4477 C.ar    
  21 C21            8.9338    -4.2198    -4.4513 C.ar    
  22 C22            7.6408    -3.7050    -4.4023 C.ar    
  23 C23            7.2267    -2.9525    -3.3435 C.ar    
  24 O24            8.3071    -0.8990     0.9452 O.3     
  25 C25            5.9305     2.2645    -0.1771 C.ar    
  26 C26            7.0868     1.8343     0.4760 C.ar    
  27 C27            8.2418     2.5841     0.3928 C.ar    
  28 C28            8.2557     3.7601    -0.3361 C.ar    
  29 C29            7.1131     4.1925    -0.9855 C.ar    
  30 C30            5.9530     3.4493    -0.9152 C.ar    
  31 N31            9.4985     4.5595    -0.4210 N.pl3   
  32 O32           10.5058     4.1816     0.1499 O.2     
  33 O33            9.5138     5.5951    -1.0619 O.2     
  34 H34           -0.9672     1.9180     0.1480 H       
  35 H35           -0.9403    -0.5374     0.2374 H       
  36 H36            1.1874    -1.7642     0.1817 H       
  37 H37            1.1257     3.1881     0.0110 H       
  38 H38            5.6203    -1.5734    -1.7968 H       
  39 H39           10.6412    -1.9919     0.5686 H       
  40 H40           11.3263    -3.3314    -1.3242 H       
  41 H41           10.8222    -4.3856    -3.4997 H       
  42 H42            9.2364    -4.8178    -5.2982 H       
  43 H43            6.9552    -3.9088    -5.2115 H       
  44 H44            6.2214    -2.5588    -3.3171 H       
  45 H45            8.0049    -1.4185     1.7028 H       
  46 H46            7.0771     0.9167     1.0456 H       
  47 H47            9.1369     2.2526     0.8979 H       
  48 H48            7.1306     5.1115    -1.5524 H       
  49 H49            5.0618     3.7877    -1.4228 H       
@<TRIPOS>BOND
   1    1    2 ar
   2    1    6 ar
   3    1   34 1
   4    2    3 ar
   5    2   35 1
   6    3    4 ar
   7    3   36 1
   8    4    5 ar
   9    4    7 1
  10    5    6 ar
  11    5   10 1
  12    6   37 1
  13    7    8 am
  14    7   11 2
  15    8    9 1
  16    8   12 1
  17    9   10 2
  18    9   25 1
  19   12   13 2
  20   13   14 1
  21   13   38 1
  22   14   15 ar
  23   14   19 ar
  24   15   16 ar
  25   15   24 1
  26   16   17 ar
  27   16   39 1
  28   17   18 ar
  29   17   40 1
  30   18   19 ar
  31   18   20 ar
  32   19   23 ar
  33   20   21 ar
  34   20   41 1
  35   21   22 ar
  36   21   42 1
  37   22   23 ar
  38   22   43 1
  39   23   44 1
  40   24   45 1
  41   25   26 ar
  42   25   30 ar
  43   26   27 ar
  44   26   46 1
  45   27   28 ar
  46   27   47 1
  47   28   29 ar
  48   28   31 1
  49   29   30 ar
  50   29   48 1
  51   30   49 1
  52   31   32 2
  53   31   33 2

#	End of record

