#	Name: ASD04560069
#	Creating user name:	WinNT
#	Creation time:	15. 06. 2019 20:49

#	Modifying user name:	WinNT
#	Modification time:	15. 06. 2019 20:49

#	Program:	/corina/corina34_cracker 3.40 0067  02.08.2006

@<TRIPOS>MOLECULE
ASD04560069
  46   49    0    0    0
SMALL
NO_CHARGES


@<TRIPOS>ATOM
   1 C1            -0.0173     1.3666     0.0244 C.ar    
   2 C2             0.0010    -0.0041     0.0240 C.ar    
   3 C3             1.2157    -0.6859     0.0136 C.ar    
   4 C4             2.4151     0.0225     0.0034 C.ar    
   5 C5             2.4031     1.3933     0.0042 C.ar    
   6 C6             1.1852     2.0805     0.0143 C.ar    
   7 C7             1.1690     3.5549     0.0146 C.2     
   8 O8             2.2154     4.1746     0.0062 O.2     
   9 N9            -0.0055     4.2159     0.0243 N.am    
  10 C10           -0.0226     5.6108     0.1376 C.ar    
  11 C11           -0.9920     6.3506    -0.5268 C.ar    
  12 C12            0.9074     7.6331     1.0301 C.ar    
  13 C13            0.9263     6.2566     0.9193 C.ar    
  14 S14            1.2351    -2.4478     0.0137 S.3     
  15 C15           -1.0073     7.7269    -0.4133 C.ar    
  16 C16           -0.0567     8.3693     0.3621 C.ar    
  17 C17            3.0069    -2.8364    -0.0017 C.3     
  18 C18            3.1932    -4.3318    -0.0030 C.2     
  19 N19            3.2890    -5.0719     1.0628 N.2     
  20 N20            3.2798    -5.1053    -1.1188 N.pl3   
  21 C21            3.4456    -6.4109    -0.7016 C.ar    
  22 C22            3.4492    -6.3715     0.7033 C.ar    
  23 C23            3.2097    -4.6393    -2.5059 C.3     
  24 F24           -0.0734     9.7157     0.4718 F       
  25 C25            3.5909    -7.6247    -1.3587 C.ar    
  26 C26            3.7412    -8.7838    -0.6270 C.ar    
  27 C27            3.7480    -8.7439     0.7598 C.ar    
  28 C28            3.6019    -7.5586     1.4237 C.ar    
  29 H29           -0.9594     1.8947     0.0280 H       
  30 H30           -0.9274    -0.5560     0.0322 H       
  31 H31            3.3553    -0.5088    -0.0047 H       
  32 H32            3.3333     1.9420    -0.0029 H       
  33 H33           -0.8390     3.7249    -0.0472 H       
  34 H34           -1.7331     5.8500    -1.1322 H       
  35 H35            1.6452     8.1357     1.6379 H       
  36 H36            1.6784     5.6828     1.4404 H       
  37 H37           -1.7610     8.3026    -0.9299 H       
  38 H38            3.4641    -2.4125    -0.8957 H       
  39 H39            3.4796    -2.4122     0.8841 H       
  40 H40            4.2120    -4.3971    -2.8590 H       
  41 H41            2.7837    -5.4237    -3.1316 H       
  42 H42            2.5810    -3.7505    -2.5593 H       
  43 H43            3.5859    -7.6613    -2.4381 H       
  44 H44            3.8540    -9.7291    -1.1369 H       
  45 H45            3.8666    -9.6595     1.3202 H       
  46 H46            3.6087    -7.5391     2.5035 H       
@<TRIPOS>BOND
   1    1    2 ar
   2    1    6 ar
   3    1   29 1
   4    2    3 ar
   5    2   30 1
   6    3    4 ar
   7    3   14 1
   8    4    5 ar
   9    4   31 1
  10    5    6 ar
  11    5   32 1
  12    6    7 1
  13    7    8 2
  14    7    9 am
  15    9   10 1
  16    9   33 1
  17   10   11 ar
  18   10   13 ar
  19   11   15 ar
  20   11   34 1
  21   12   13 ar
  22   12   16 ar
  23   12   35 1
  24   13   36 1
  25   14   17 1
  26   15   16 ar
  27   15   37 1
  28   16   24 1
  29   17   18 1
  30   17   38 1
  31   17   39 1
  32   18   20 1
  33   18   19 2
  34   19   22 1
  35   20   21 1
  36   20   23 1
  37   21   22 ar
  38   21   25 ar
  39   22   28 ar
  40   23   40 1
  41   23   41 1
  42   23   42 1
  43   25   26 ar
  44   25   43 1
  45   26   27 ar
  46   26   44 1
  47   27   28 ar
  48   27   45 1
  49   28   46 1

#	End of record

