#	Name: ASD01200327
#	Creating user name:	WinNT
#	Creation time:	15. 06. 2019 19:08

#	Modifying user name:	WinNT
#	Modification time:	15. 06. 2019 19:08

#	Program:	/corina/corina34_cracker 3.40 0067  02.08.2006

@<TRIPOS>MOLECULE
ASD01200327
  45   48    0    0    0
SMALL
NO_CHARGES


@<TRIPOS>ATOM
   1 C1            -0.0167     1.3773     0.0096 C.ar    
   2 C2             0.0021    -0.0041     0.0020 C.ar    
   3 C3             1.2131    -0.6803    -0.0132 C.ar    
   4 C4             2.4036     0.0335    -0.0207 C.ar    
   5 C5             2.3791     1.4158    -0.0130 C.ar    
   6 C6             1.1704     2.0865     0.0021 C.ar    
   7 C7             1.1463     3.5933     0.0104 C.3     
   8 C8             1.8712     4.1081     1.2555 C.3     
   9 C9             1.8369     4.1135    -1.2239 C.2     
  10 C10            1.7396     5.6306     1.3294 C.3     
  11 C11            0.4505     7.4432     2.2832 C.3     
  12 C12            0.2820     6.0330     1.6649 C.3     
  13 C13            2.5664     6.1875     2.5067 C.3     
  14 C14            1.7468     7.3400     3.1131 C.3     
  15 C15            1.2192     4.4622    -2.3635 C.2     
  16 N16            3.1868     4.3061    -1.3474 N.pl3   
  17 C17            2.2599     4.9085    -3.2913 C.ar    
  18 C18            2.2576     5.3849    -4.6044 C.ar    
  19 C19            3.4805     4.7898    -2.5997 C.ar    
  20 N20            4.6141     5.1301    -3.1988 N.ar    
  21 C21            4.6344     5.5783    -4.4358 C.ar    
  22 C22            3.4704     5.7200    -5.1761 C.ar    
  23 Cl23           3.9216    -0.8087    -0.0391 Cl      
  24 O24            1.2339    -2.0393    -0.0202 O.3     
  25 H25           -0.9595     1.9039     0.0169 H       
  26 H26           -0.9256    -0.5571     0.0082 H       
  27 H27            3.3049     1.9720    -0.0188 H       
  28 H28            0.1131     3.9401     0.0221 H       
  29 H29            1.4272     3.6614     2.1452 H       
  30 H30            2.9255     3.8368     1.2004 H       
  31 H31            2.0569     6.0860     0.3913 H       
  32 H32            0.5580     8.1930     1.4994 H       
  33 H33           -0.3965     7.6813     2.9266 H       
  34 H34           -0.3243     6.0778     0.7603 H       
  35 H35           -0.1523     5.3433     2.3887 H       
  36 H36            2.7249     5.4090     3.2530 H       
  37 H37            3.5251     6.5605     2.1462 H       
  38 H38            2.3077     8.2723     3.0470 H       
  39 H39            1.5075     7.1208     4.1537 H       
  40 H40            0.1578     4.4211    -2.5586 H       
  41 H41            3.8399     4.1279    -0.6527 H       
  42 H42            1.3353     5.4881    -5.1568 H       
  43 H43            5.5801     5.8439    -4.8847 H       
  44 H44            3.5110     6.0920    -6.1892 H       
  45 H45            1.2314    -2.4282    -0.9056 H       
@<TRIPOS>BOND
   1    1    2 ar
   2    1    6 ar
   3    1   25 1
   4    2    3 ar
   5    2   26 1
   6    3    4 ar
   7    3   24 1
   8    4    5 ar
   9    4   23 1
  10    5    6 ar
  11    5   27 1
  12    6    7 1
  13    7    8 1
  14    7    9 1
  15    7   28 1
  16    8   10 1
  17    8   29 1
  18    8   30 1
  19    9   16 1
  20    9   15 2
  21   10   13 1
  22   10   12 1
  23   10   31 1
  24   11   12 1
  25   11   14 1
  26   11   32 1
  27   11   33 1
  28   12   34 1
  29   12   35 1
  30   13   14 1
  31   13   36 1
  32   13   37 1
  33   14   38 1
  34   14   39 1
  35   15   17 1
  36   15   40 1
  37   16   19 1
  38   16   41 1
  39   17   19 ar
  40   17   18 ar
  41   18   22 ar
  42   18   42 1
  43   19   20 ar
  44   20   21 ar
  45   21   22 ar
  46   21   43 1
  47   22   44 1
  48   24   45 1

#	End of record

