#	Name: ASD04590683
#	Creating user name:	WinNT
#	Creation time:	15. 06. 2019 20:51

#	Modifying user name:	WinNT
#	Modification time:	15. 06. 2019 20:51

#	Program:	/corina/corina34_cracker 3.40 0067  02.08.2006

@<TRIPOS>MOLECULE
ASD04590683
  76   81    0    0    0
SMALL
NO_CHARGES


@<TRIPOS>ATOM
   1 N1            -2.3794    -2.7066     0.0213 N.ar    
   2 C2            -1.2128    -2.0750     0.0045 C.ar    
   3 N3            -0.0586    -2.7213    -0.0182 N.ar    
   4 C4            -0.0276    -4.0507    -0.0249 C.ar    
   5 C5            -1.2494    -4.7501    -0.0075 C.ar    
   6 C6            -2.4378    -4.0286     0.0161 C.ar    
   7 N7             0.9950    -4.9682    -0.0466 N.pl3   
   8 C8             0.4931    -6.2557    -0.0441 C.ar    
   9 C9            -0.9082    -6.1814    -0.0199 C.ar    
  10 N10           -1.2028    -0.6890     0.0103 N.pl3   
  11 C11           -2.4021     0.0173    -0.0793 C.ar    
  12 C12            2.4199    -4.6285    -0.0696 C.3     
  13 C13            2.7434    -3.7972    -1.3234 C.3     
  14 N14            1.0901    -7.4420    -0.0597 N.ar    
  15 C15            0.4002    -8.5678    -0.0533 C.ar    
  16 C16           -0.9907    -8.5635    -0.0301 C.ar    
  17 C17           -1.6613    -7.3554    -0.0122 C.ar    
  18 C18            3.2816    -2.4399    -0.8254 C.3     
  19 C19            3.8147    -2.7416     0.5972 C.3     
  20 C20            2.7728    -3.7475     1.1465 C.3     
  21 N21           -3.5350    -0.6390    -0.2707 N.ar    
  22 C22           -4.6927    -0.0122    -0.3616 C.ar    
  23 C23           -4.7612     1.3690    -0.2590 C.ar    
  24 C24           -3.5879     2.0945    -0.0570 C.ar    
  25 C25           -2.3943     1.4029     0.0393 C.ar    
  26 N26           -5.9931     2.0268    -0.3574 N.3     
  27 C27           -7.0861     1.0684    -0.5687 C.3     
  28 C28           -8.4282     1.8039    -0.4899 C.3     
  29 N29           -8.3989     2.9318    -1.4333 N.am    
  30 C30           -7.2597     3.8601    -1.3730 C.3     
  31 C31           -5.9637     3.0437    -1.4170 C.3     
  32 O32            1.0611    -9.7526    -0.0700 O.3     
  33 C33            2.4889    -9.6987    -0.0940 C.3     
  34 O34           -9.3452     4.1490    -3.1845 O.3     
  35 C35          -10.4467     4.2792    -4.1217 C.3     
  36 C36          -11.7575     4.4391    -3.3490 C.3     
  37 C37          -10.2222     5.5080    -5.0051 C.3     
  38 C38          -10.5209     3.0275    -4.9984 C.3     
  39 C39           -9.3900     3.1103    -2.3291 C.2     
  40 O40          -10.3239     2.3338    -2.3647 O.2     
  41 H41           -3.3903    -4.5374     0.0302 H       
  42 H42           -0.3618    -0.2103     0.0767 H       
  43 H43            3.0205    -5.5381    -0.0595 H       
  44 H44            3.5016    -4.3028    -1.9213 H       
  45 H45            1.8402    -3.6464    -1.9147 H       
  46 H46           -1.5400    -9.4934    -0.0257 H       
  47 H47           -2.7406    -7.3211     0.0060 H       
  48 H48            4.0888    -2.0902    -1.4690 H       
  49 H49            2.4792    -1.7033    -0.7838 H       
  50 H50            4.8040    -3.1969     0.5506 H       
  51 H51            3.8335    -1.8355     1.2029 H       
  52 H52            1.8883    -3.2221     1.5065 H       
  53 H53            3.2087    -4.3520     1.9419 H       
  54 H54           -5.5971    -0.5814    -0.5181 H       
  55 H55           -3.6112     3.1710     0.0264 H       
  56 H56           -1.4664     1.9329     0.1961 H       
  57 H57           -6.9810     0.6076    -1.5509 H       
  58 H58           -7.0480     0.2976     0.2011 H       
  59 H59           -9.2354     1.1225    -0.7587 H       
  60 H60           -8.5822     2.1772     0.5225 H       
  61 H61           -7.2944     4.5383    -2.2256 H       
  62 H62           -7.3014     4.4311    -0.4454 H       
  63 H63           -5.1115     3.7055    -1.2625 H       
  64 H64           -5.8742     2.5554    -2.3874 H       
  65 H65            2.8175    -9.1674    -0.9872 H       
  66 H66            2.8477    -9.1757     0.7925 H       
  67 H67            2.8906   -10.7119    -0.1056 H       
  68 H68          -11.7046     5.3308    -2.7244 H       
  69 H69          -12.5843     4.5368    -4.0525 H       
  70 H70          -11.9174     3.5637    -2.7196 H       
  71 H71           -9.2883     5.3941    -5.5555 H       
  72 H72          -11.0490     5.6057    -5.7086 H       
  73 H73          -10.1693     6.3997    -4.3805 H       
  74 H74          -10.6808     2.1520    -4.3690 H       
  75 H75          -11.3477     3.1252    -5.7019 H       
  76 H76           -9.5870     2.9135    -5.5489 H       
@<TRIPOS>BOND
   1    1    2 ar
   2    1    6 ar
   3    2    3 ar
   4    2   10 1
   5    3    4 ar
   6    4    5 ar
   7    4    7 1
   8    5    6 ar
   9    5    9 1
  10    6   41 1
  11    7    8 1
  12    7   12 1
  13    8    9 ar
  14    8   14 ar
  15    9   17 ar
  16   10   11 1
  17   10   42 1
  18   11   21 ar
  19   11   25 ar
  20   12   13 1
  21   12   20 1
  22   12   43 1
  23   13   18 1
  24   13   44 1
  25   13   45 1
  26   14   15 ar
  27   15   16 ar
  28   15   32 1
  29   16   17 ar
  30   16   46 1
  31   17   47 1
  32   18   19 1
  33   18   48 1
  34   18   49 1
  35   19   20 1
  36   19   50 1
  37   19   51 1
  38   20   52 1
  39   20   53 1
  40   21   22 ar
  41   22   23 ar
  42   22   54 1
  43   23   24 ar
  44   23   26 1
  45   24   25 ar
  46   24   55 1
  47   25   56 1
  48   26   27 1
  49   26   31 1
  50   27   28 1
  51   27   57 1
  52   27   58 1
  53   28   29 1
  54   28   59 1
  55   28   60 1
  56   29   30 1
  57   29   39 am
  58   30   31 1
  59   30   61 1
  60   30   62 1
  61   31   63 1
  62   31   64 1
  63   32   33 1
  64   33   65 1
  65   33   66 1
  66   33   67 1
  67   34   35 1
  68   34   39 1
  69   35   36 1
  70   35   37 1
  71   35   38 1
  72   36   68 1
  73   36   69 1
  74   36   70 1
  75   37   71 1
  76   37   72 1
  77   37   73 1
  78   38   74 1
  79   38   75 1
  80   38   76 1
  81   39   40 2

#	End of record

