#	Name: ASD07930087
#	Creating user name:	WinNT
#	Creation time:	15. 06. 2019 21:11

#	Modifying user name:	WinNT
#	Modification time:	15. 06. 2019 21:11

#	Program:	/corina/corina34_cracker 3.40 0067  02.08.2006

@<TRIPOS>MOLECULE
ASD07930087
  37   38    0    0    0
SMALL
NO_CHARGES


@<TRIPOS>ATOM
   1 C1            -0.0187     1.5258     0.0104 C.3     
   2 C2             0.0021    -0.0041     0.0020 C.3     
   3 N3             0.6059    -0.4925     1.2489 N.3     
   4 C4             0.6428    -1.9607     1.2762 C.3     
   5 C5             1.2768    -2.4307     2.5869 C.3     
   6 O6             0.4409    -2.0531     3.6827 O.3     
   7 C7             0.8627    -2.3977     4.9277 C.ar    
   8 C8             0.0951    -2.0606     6.0468 C.ar    
   9 C9             0.5351    -2.4183     7.3186 C.ar    
  10 C10            1.7249    -3.1029     7.4687 C.ar    
  11 C11            2.4819    -3.4349     6.3597 C.ar    
  12 C12            2.0514    -3.0890     5.0921 C.ar    
  13 S13           -3.3695    -0.1242     6.2729 S.3     
  14 C14           -2.7745    -0.3231     4.6830 C.2     
  15 N15           -1.6532    -0.9571     4.6973 N.2     
  16 C16           -1.1821    -1.3247     5.8800 C.2     
  17 C17           -1.9662    -0.9716     6.9184 C.2     
  18 C18           -3.4653     0.1729     3.4389 C.3     
  19 F19           -4.3252    -0.8194     2.9559 F       
  20 F20           -4.2030     1.3223     3.7418 F       
  21 F21           -2.5089     0.4761     2.4639 F       
  22 O22            1.3220     2.0204     0.0003 O.3     
  23 H23           -0.5459     1.8868    -0.8726 H       
  24 H24           -0.5289     1.8773     0.9072 H       
  25 H25           -1.0175    -0.3808    -0.0798 H       
  26 H26            0.5883    -0.3548    -0.8473 H       
  27 H27            1.5284    -0.1051     1.3799 H       
  28 H28           -0.3723    -2.3511     1.2032 H       
  29 H29            1.2334    -2.3251     0.4357 H       
  30 H30            1.3854    -3.5152     2.5697 H       
  31 H31            2.2575    -1.9692     2.7021 H       
  32 H32           -0.0533    -2.1604     8.1867 H       
  33 H33            2.0656    -3.3797     8.4554 H       
  34 H34            3.4117    -3.9701     6.4843 H       
  35 H35            2.6445    -3.3549     4.2296 H       
  36 H36           -1.7690    -1.1722     7.9611 H       
  37 H37            1.3852     2.9853     0.0049 H       
@<TRIPOS>BOND
   1    1    2 1
   2    1   22 1
   3    1   23 1
   4    1   24 1
   5    2    3 1
   6    2   25 1
   7    2   26 1
   8    3    4 1
   9    3   27 1
  10    4    5 1
  11    4   28 1
  12    4   29 1
  13    5    6 1
  14    5   30 1
  15    5   31 1
  16    6    7 1
  17    7    8 ar
  18    7   12 ar
  19    8    9 ar
  20    8   16 1
  21    9   10 ar
  22    9   32 1
  23   10   11 ar
  24   10   33 1
  25   11   12 ar
  26   11   34 1
  27   12   35 1
  28   13   14 1
  29   13   17 1
  30   14   15 2
  31   14   18 1
  32   15   16 1
  33   16   17 2
  34   17   36 1
  35   18   19 1
  36   18   20 1
  37   18   21 1
  38   22   37 1

#	End of record

