#	Name: ASD01914149
#	Creating user name:	WinNT
#	Creation time:	15. 06. 2019 20:02

#	Modifying user name:	WinNT
#	Modification time:	15. 06. 2019 20:02

#	Program:	/corina/corina34_cracker 3.40 0067  02.08.2006

@<TRIPOS>MOLECULE
ASD01914149
  46   49    0    0    0
SMALL
NO_CHARGES


@<TRIPOS>ATOM
   1 C1            -0.9703     1.6471    -0.2085 C.2     
   2 C2            -0.7885     0.1899    -0.2010 C.2     
   3 N3            -1.7420    -0.7272    -0.1261 N.2     
   4 C4            -1.1068    -1.9080    -0.1520 C.2     
   5 N5             0.1688    -1.6690    -0.2390 N.2     
   6 O6             0.3772    -0.4747    -0.2745 O.3     
   7 C7            -1.7545    -3.2674    -0.0913 C.3     
   8 C8            -1.4063    -4.0561    -1.3558 C.3     
   9 C9            -2.0903    -5.4244    -1.3102 C.3     
  10 C10           -1.5786    -6.2064    -0.0964 C.3     
  11 N11           -1.7784    -5.3914     1.1097 N.am    
  12 C12           -1.2390    -4.0250     1.1364 C.3     
  13 C13           -0.0887    -6.5074    -0.2710 C.3     
  14 C14           -2.4438    -5.8878     2.1715 C.2     
  15 C15           -2.5252    -5.1066     3.4242 C.ar    
  16 C16           -3.7255    -5.0481     4.1358 C.ar    
  17 C17           -3.8035    -4.3189     5.3060 C.ar    
  18 C18           -2.6975    -3.6428     5.7806 C.ar    
  19 C19           -1.4901    -3.6924     5.0784 C.ar    
  20 C20           -1.4030    -4.4319     3.9004 C.ar    
  21 O21           -2.9770    -6.9778     2.0992 O.2     
  22 C22            0.0296     2.5914    -0.2868 C.2     
  23 C23           -0.5876     3.8488    -0.2631 C.2     
  24 C24           -1.9240     3.6528    -0.1727 C.2     
  25 N25           -2.1699     2.3161    -0.1447 N.pl3   
  26 Cl26           0.2180     5.3848    -0.3360 Cl      
  27 C27           -0.3437    -2.9903     5.5716 C.1     
  28 N28            0.5658    -2.4333     5.9629 N.1     
  29 H29           -2.8361    -3.1523    -0.0206 H       
  30 H30           -1.7503    -3.5071    -2.2324 H       
  31 H31           -0.3263    -4.1917    -1.4133 H       
  32 H32           -3.1688    -5.2894    -1.2278 H       
  33 H33           -1.8609    -5.9763    -2.2217 H       
  34 H34           -2.1336    -7.1398    -0.0027 H       
  35 H35           -0.1499    -4.0616     1.1125 H       
  36 H36           -1.5699    -3.5192     2.0434 H       
  37 H37            0.4633    -5.5715    -0.3580 H       
  38 H38            0.2733    -7.0638     0.5935 H       
  39 H39            0.0586    -7.1013    -1.1730 H       
  40 H40           -4.5949    -5.5740     3.7698 H       
  41 H41           -4.7343    -4.2771     5.8522 H       
  42 H42           -2.7654    -3.0741     6.6962 H       
  43 H43           -0.4724    -4.4739     3.3539 H       
  44 H44            1.0902     2.3986    -0.3534 H       
  45 H45           -2.6723     4.4307    -0.1339 H       
  46 H46           -3.0454     1.9031    -0.0833 H       
@<TRIPOS>BOND
   1    1    2 1
   2    1   22 2
   3    1   25 1
   4    2    3 2
   5    2    6 1
   6    3    4 1
   7    4    5 2
   8    4    7 1
   9    5    6 1
  10    7    8 1
  11    7   12 1
  12    7   29 1
  13    8    9 1
  14    8   30 1
  15    8   31 1
  16    9   10 1
  17    9   32 1
  18    9   33 1
  19   10   11 1
  20   10   13 1
  21   10   34 1
  22   11   12 1
  23   11   14 am
  24   12   35 1
  25   12   36 1
  26   13   37 1
  27   13   38 1
  28   13   39 1
  29   14   15 1
  30   14   21 2
  31   15   16 ar
  32   15   20 ar
  33   16   17 ar
  34   16   40 1
  35   17   18 ar
  36   17   41 1
  37   18   19 ar
  38   18   42 1
  39   19   20 ar
  40   19   27 1
  41   20   43 1
  42   22   23 1
  43   22   44 1
  44   23   24 2
  45   23   26 1
  46   24   25 1
  47   24   45 1
  48   25   46 1
  49   27   28 3

#	End of record

