#	Name: ASD04500004
#	Creating user name:	WinNT
#	Creation time:	15. 06. 2019 20:49

#	Modifying user name:	WinNT
#	Modification time:	15. 06. 2019 20:49

#	Program:	/corina/corina34_cracker 3.40 0067  02.08.2006

@<TRIPOS>MOLECULE
ASD04500004
  59   60    0    0    0
SMALL
NO_CHARGES


@<TRIPOS>ATOM
   1 C1            -0.0185     1.8949     0.1207 C.3     
   2 C2            -0.2586     0.4319     0.4989 C.3     
   3 C3             0.6155     0.0657     1.7001 C.3     
   4 C4             2.0888     0.2636     1.3380 C.3     
   5 C5             2.3289     1.7266     0.9598 C.3     
   6 C6             1.4548     2.0929    -0.2414 C.3     
   7 O7             1.7902     1.2535    -1.3482 O.3     
   8 O8             2.9051    -0.0785     2.4598 O.3     
   9 C9             4.1368    -0.5623     2.1963 C.2     
  10 C10            5.0001    -0.9221     3.2618 C.2     
  11 O11            4.5066    -0.6898     1.0444 O.2     
  12 C12            6.2333    -1.4065     2.9980 C.2     
  13 C13            7.1281    -1.7794     4.1025 C.ar    
  14 C14            6.7048    -1.6336     5.4283 C.ar    
  15 C15            7.5458    -1.9840     6.4619 C.ar    
  16 C16            8.8134    -2.4818     6.1920 C.ar    
  17 C17            9.2428    -2.6298     4.8731 C.ar    
  18 C18            8.4046    -2.2871     3.8312 C.ar    
  19 C19            1.6913     3.5338    -0.6139 C.2     
  20 O20            0.9613     4.3961    -0.1857 O.2     
  21 O21            2.7130     3.8593    -1.4214 O.3     
  22 Na22           2.9427     5.7878    -1.8552 Du      
  23 O23            9.6378    -2.8255     7.2151 O.3     
  24 S24           10.4306    -1.6601     7.7894 S.o2    
  25 O25           11.3544    -2.2196     8.7129 O.2     
  26 O26           10.8254    -0.8597     6.6837 O.2     
  27 O27            9.4630    -0.8164     8.6070 O.3     
  28 Na28           8.9709    -1.6196    10.3600 Du      
  29 O29           10.4857    -3.1171     4.6135 O.3     
  30 S30           10.5197    -4.6148     4.3448 S.o2    
  31 O31           11.8912    -4.9749     4.2531 O.2     
  32 O32            9.6203    -5.2091     5.2706 O.2     
  33 O33            9.9233    -4.8381     2.9624 O.3     
  34 Na34          11.1335    -4.3290     1.4669 Du      
  35 O35            0.0768    -0.4074    -0.6079 O.3     
  36 S36           -1.1094    -0.7754    -1.4875 S.o2    
  37 O37           -0.6417    -1.7579    -2.4015 O.2     
  38 O38           -2.2076    -0.9891    -0.6114 O.2     
  39 O39           -1.4539     0.4535    -2.3167 O.3     
  40 Na40          -0.1860     0.8038    -3.8100 Du      
  41 O41            0.3912    -1.3007     2.0533 O.3     
  42 S42            0.4625    -1.5731     3.5491 S.o2    
  43 O43            0.4200    -2.9852     3.7022 O.2     
  44 O44            1.5192    -0.7681     4.0536 O.2     
  45 O45           -0.8203    -1.0351     4.1666 O.3     
  46 Na46          -2.4207    -2.1669     3.8232 Du      
  47 H47           -0.6412     2.1558    -0.7350 H       
  48 H48           -0.2743     2.5351     0.9650 H       
  49 H49           -1.3082     0.2909     0.7569 H       
  50 H50            0.3596     0.7059     2.5443 H       
  51 H51            2.3446    -0.3766     0.4937 H       
  52 H52            2.0730     2.3668     1.8040 H       
  53 H53            3.3785     1.8676     0.7018 H       
  54 H54            2.7115     1.3272    -1.6327 H       
  55 H55            4.6718    -0.8089     4.2845 H       
  56 H56            6.5616    -1.5197     1.9753 H       
  57 H57            5.7195    -1.2462     5.6413 H       
  58 H58            7.2182    -1.8706     7.4847 H       
  59 H59            8.7359    -2.4015     2.8097 H       
@<TRIPOS>BOND
   1    1    2 1
   2    1    6 1
   3    1   47 1
   4    1   48 1
   5    2    3 1
   6    2   35 1
   7    2   49 1
   8    3    4 1
   9    3   41 1
  10    3   50 1
  11    4    5 1
  12    4    8 1
  13    4   51 1
  14    5    6 1
  15    5   52 1
  16    5   53 1
  17    6    7 1
  18    6   19 1
  19    7   54 1
  20    8    9 1
  21    9   10 1
  22    9   11 2
  23   10   12 2
  24   10   55 1
  25   12   13 1
  26   12   56 1
  27   13   14 ar
  28   13   18 ar
  29   14   15 ar
  30   14   57 1
  31   15   16 ar
  32   15   58 1
  33   16   17 ar
  34   16   23 1
  35   17   18 ar
  36   17   29 1
  37   18   59 1
  38   19   20 2
  39   19   21 1
  40   21   22 1
  41   23   24 1
  42   24   25 2
  43   24   26 2
  44   24   27 1
  45   27   28 1
  46   29   30 1
  47   30   31 2
  48   30   32 2
  49   30   33 1
  50   33   34 1
  51   35   36 1
  52   36   37 2
  53   36   38 2
  54   36   39 1
  55   39   40 1
  56   41   42 1
  57   42   43 2
  58   42   44 2
  59   42   45 1
  60   45   46 1

#	End of record

