#	Name: ASD08070203
#	Creating user name:	WinNT
#	Creation time:	15. 06. 2019 21:14

#	Modifying user name:	WinNT
#	Modification time:	15. 06. 2019 21:14

#	Program:	/corina/corina34_cracker 3.40 0067  02.08.2006

@<TRIPOS>MOLECULE
ASD08070203
  38   39    0    0    0
SMALL
NO_CHARGES


@<TRIPOS>ATOM
   1 C1            -0.0180     1.4727     0.0101 C.ar    
   2 C2             0.0021    -0.0041     0.0020 C.2     
   3 O3            -1.0424    -0.6262     0.0086 O.2     
   4 N4             1.1783    -0.6620    -0.0127 N.am    
   5 C5             1.1981    -2.1268    -0.0208 C.3     
   6 C6             2.5064    -2.6157    -0.6456 C.3     
   7 C7             2.5271    -4.1455    -0.6540 C.3     
   8 C8             1.1795     2.1907     0.0026 C.ar    
   9 C9             1.1538     3.5694     0.0097 C.ar    
  10 C10           -0.0550     4.2436     0.0244 C.ar    
  11 C11           -1.2460     3.5417     0.0320 C.ar    
  12 C12           -2.5569     4.2849     0.0480 C.3     
  13 C13            1.0930    -2.6462     1.4145 C.3     
  14 C14            1.1138    -4.1760     1.4061 C.3     
  15 C15            2.4221    -4.6649     0.7813 C.3     
  16 F16           -2.3120     5.6623     0.0526 F       
  17 F17           -3.2984     3.9469    -1.0891 F       
  18 F18           -3.2771     3.9354     1.1953 F       
  19 C19           -1.2366     2.1590     0.0196 C.ar    
  20 F20           -2.4006     1.4733     0.0266 F       
  21 C21            2.6114    -2.0963    -2.0809 C.3     
  22 H22            2.0116    -0.1656    -0.0180 H       
  23 H23            0.3557    -2.4984    -0.6042 H       
  24 H24            3.3488    -2.2441    -0.0622 H       
  25 H25            1.6847    -4.5171    -1.2374 H       
  26 H26            3.4592    -4.4938    -1.0991 H       
  27 H27            2.1241     1.6672    -0.0085 H       
  28 H28            2.0799     4.1250     0.0042 H       
  29 H29           -0.0677     5.3235     0.0303 H       
  30 H30            1.9354    -2.2746     1.9979 H       
  31 H31            0.1610    -2.2979     1.8596 H       
  32 H32            1.0389    -4.5461     2.4286 H       
  33 H33            0.2714    -4.5476     0.8227 H       
  34 H34            2.4368    -5.7548     0.7753 H       
  35 H35            3.2645    -4.2933     1.3647 H       
  36 H36            2.5967    -1.0065    -2.0749 H       
  37 H37            3.5435    -2.4446    -2.5260 H       
  38 H38            1.7691    -2.4679    -2.6643 H       
@<TRIPOS>BOND
   1    1    2 1
   2    1    8 ar
   3    1   19 ar
   4    2    3 2
   5    2    4 am
   6    4    5 1
   7    4   22 1
   8    5    6 1
   9    5   13 1
  10    5   23 1
  11    6    7 1
  12    6   21 1
  13    6   24 1
  14    7   15 1
  15    7   25 1
  16    7   26 1
  17    8    9 ar
  18    8   27 1
  19    9   10 ar
  20    9   28 1
  21   10   11 ar
  22   10   29 1
  23   11   19 ar
  24   11   12 1
  25   12   16 1
  26   12   17 1
  27   12   18 1
  28   13   14 1
  29   13   30 1
  30   13   31 1
  31   14   15 1
  32   14   32 1
  33   14   33 1
  34   15   34 1
  35   15   35 1
  36   19   20 1
  37   21   36 1
  38   21   37 1
  39   21   38 1

#	End of record

