#	Name: ASD01911991
#	Creating user name:	WinNT
#	Creation time:	15. 06. 2019 19:58

#	Modifying user name:	WinNT
#	Modification time:	15. 06. 2019 19:58

#	Program:	/corina/corina34_cracker 3.40 0067  02.08.2006

@<TRIPOS>MOLECULE
ASD01911991
  39   41    0    0    0
SMALL
NO_CHARGES


@<TRIPOS>ATOM
   1 C1             0.7736     1.1509    -0.1319 C.ar    
   2 C2             0.5657    -0.2264    -0.1284 C.ar    
   3 C3             1.6744    -1.0608    -0.2497 C.ar    
   4 N4             2.8756    -0.5189    -0.3628 N.ar    
   5 C5             3.0305     0.7899    -0.3618 C.ar    
   6 N6             2.0072     1.6130    -0.2493 N.ar    
   7 N7            -0.7214    -0.7572    -0.0061 N.pl3   
   8 C8            -0.9091    -2.1430    -0.0048 C.ar    
   9 C9            -1.3086    -4.1883    -1.2010 C.ar    
  10 C10           -1.2824    -4.8905    -0.0105 C.ar    
  11 C11           -1.0748    -4.2210     1.1883 C.ar    
  12 C12           -0.8882    -2.8456     1.1911 C.ar    
  13 N13           -1.0485    -4.9334     2.3926 N.am    
  14 C14           -1.5517    -4.3803     3.5139 C.2     
  15 C15           -1.6186    -5.1699     4.7617 C.ar    
  16 O16           -1.9505    -3.2320     3.4991 O.2     
  17 C17           -2.1392    -4.5999     5.9246 C.ar    
  18 C18           -1.1227    -2.8183    -1.2027 C.ar    
  19 C19           -1.8739     0.1382     0.1207 C.3     
  20 C20           -2.1995    -5.3421     7.0863 C.ar    
  21 C21           -1.7452    -6.6484     7.1008 C.ar    
  22 C22           -1.2274    -7.2206     5.9508 C.ar    
  23 C23           -1.1668    -6.4905     4.7806 C.ar    
  24 Cl24          -0.6591    -8.8607     5.9792 Cl      
  25 F25           -1.1489    -2.1349    -2.3678 F       
  26 H26           -0.0605     1.8313    -0.0445 H       
  27 H27            1.5551    -2.1342    -0.2509 H       
  28 H28            4.0251     1.2000    -0.4556 H       
  29 H29           -1.4699    -4.7116    -2.1319 H       
  30 H30           -1.4283    -5.9606    -0.0123 H       
  31 H31           -0.7266    -2.3234     2.1225 H       
  32 H32           -0.6682    -5.8253     2.4203 H       
  33 H33           -2.4937    -3.5799     5.9153 H       
  34 H34           -2.2623     0.3732    -0.8703 H       
  35 H35           -2.6507    -0.3505     0.7088 H       
  36 H36           -1.5664     1.0582     0.6179 H       
  37 H37           -2.6022    -4.9017     7.9865 H       
  38 H38           -1.7941    -7.2246     8.0130 H       
  39 H39           -0.7629    -6.9373     3.8841 H       
@<TRIPOS>BOND
   1    1    2 ar
   2    1    6 ar
   3    1   26 1
   4    2    3 ar
   5    2    7 1
   6    3    4 ar
   7    3   27 1
   8    4    5 ar
   9    5    6 ar
  10    5   28 1
  11    7    8 1
  12    7   19 1
  13    8   18 ar
  14    8   12 ar
  15    9   10 ar
  16    9   18 ar
  17    9   29 1
  18   10   11 ar
  19   10   30 1
  20   11   12 ar
  21   11   13 1
  22   12   31 1
  23   13   14 am
  24   13   32 1
  25   14   15 1
  26   14   16 2
  27   15   17 ar
  28   15   23 ar
  29   17   20 ar
  30   17   33 1
  31   18   25 1
  32   19   34 1
  33   19   35 1
  34   19   36 1
  35   20   21 ar
  36   20   37 1
  37   21   22 ar
  38   21   38 1
  39   22   23 ar
  40   22   24 1
  41   23   39 1

#	End of record

