#	Name: ASD03092322
#	Creating user name:	WinNT
#	Creation time:	15. 06. 2019 20:32

#	Modifying user name:	WinNT
#	Modification time:	15. 06. 2019 20:32

#	Program:	/corina/corina34_cracker 3.40 0067  02.08.2006

@<TRIPOS>MOLECULE
ASD03092322
  60   63    0    0    0
SMALL
NO_CHARGES


@<TRIPOS>ATOM
   1 O1            -0.0391     1.7390    -0.9935 O.3     
   2 C2            -0.0044     0.3152    -0.7990 C.3     
   3 C3             1.3031    -0.2016    -1.4298 C.3     
   4 C4             2.0085     1.0775    -1.9426 C.3     
   5 C5             1.3307     2.1840    -1.0950 C.3     
   6 C6             1.0036    -1.1340    -2.5753 C.2     
   7 O7             1.3766    -0.8575    -3.6957 O.2     
   8 N8             0.3212    -2.2751    -2.3546 N.am    
   9 C9             0.0300    -3.1814    -3.4682 C.3     
  10 S10           -1.3965    -6.6508    -2.0803 S.3     
  11 C11           -2.5903    -5.4585    -2.3549 C.2     
  12 N12           -2.0436    -4.3683    -2.8028 N.2     
  13 C13           -0.7375    -4.3738    -2.9579 C.2     
  14 C14           -0.1429    -5.5375    -2.6213 C.2     
  15 C15            3.1312    -7.2327    -3.3359 C.ar    
  16 C16            1.7731    -7.0039    -3.2899 C.ar    
  17 C17            1.3027    -5.8264    -2.6933 C.ar    
  18 C18            2.2433    -4.9308    -2.1673 C.ar    
  19 C19            3.5831    -5.2406    -2.2568 C.ar    
  20 N20            3.9833    -6.3616    -2.8279 N.ar    
  21 C21            4.6056    -4.2865    -1.6954 C.3     
  22 C22            3.6506    -8.4978    -3.9690 C.3     
  23 N23           -3.9444    -5.6299    -2.1324 N.3     
  24 C24           -4.2282    -6.9801    -1.6248 C.3     
  25 C25           -5.7400    -7.1464    -1.4496 C.3     
  26 O26           -6.2287    -6.1255    -0.5754 O.3     
  27 C27           -5.9700    -4.7977    -1.0395 C.3     
  28 C28           -4.4605    -4.6076    -1.2105 C.3     
  29 C29           -6.4998    -3.7877    -0.0196 C.3     
  30 C30           -6.0363    -8.5207    -0.8461 C.3     
  31 H31           -0.0176     0.0863     0.2666 H       
  32 H32           -0.8608    -0.1469    -1.2901 H       
  33 H33            1.9168    -0.7014    -0.6804 H       
  34 H34            3.0796     1.0370    -1.7444 H       
  35 H35            1.8163     1.2285    -3.0048 H       
  36 H36            1.3850     3.1457    -1.6052 H       
  37 H37            1.7884     2.2458    -0.1076 H       
  38 H38            0.0228    -2.4962    -1.4585 H       
  39 H39           -0.5662    -2.6585    -4.2159 H       
  40 H40            0.9646    -3.5164    -3.9180 H       
  41 H41            1.0818    -7.7208    -3.7078 H       
  42 H42            1.9232    -4.0115    -1.6994 H       
  43 H43            4.8017    -4.5363    -0.6527 H       
  44 H44            5.5296    -4.3659    -2.2680 H       
  45 H45            4.2249    -3.2671    -1.7594 H       
  46 H46            3.8251    -8.3273    -5.0313 H       
  47 H47            4.5856    -8.7869    -3.4890 H       
  48 H48            2.9169    -9.2942    -3.8444 H       
  49 H49           -3.8604    -7.7207    -2.3350 H       
  50 H50           -3.7330    -7.1192    -0.6638 H       
  51 H51           -6.2303    -7.0606    -2.4193 H       
  52 H52           -6.4670    -4.6436    -1.9972 H       
  53 H53           -3.9690    -4.7087    -0.2429 H       
  54 H54           -4.2624    -3.6164    -1.6183 H       
  55 H55           -6.0006    -3.9415     0.9371 H       
  56 H56           -6.3023    -2.7760    -0.3739 H       
  57 H57           -7.5738    -3.9261     0.1045 H       
  58 H58           -5.5470    -8.6046     0.1243 H       
  59 H59           -7.1127    -8.6385    -0.7216 H       
  60 H60           -5.6602    -9.2983    -1.5110 H       
@<TRIPOS>BOND
   1    1    2 1
   2    1    5 1
   3    2    3 1
   4    2   31 1
   5    2   32 1
   6    3    4 1
   7    3    6 1
   8    3   33 1
   9    4    5 1
  10    4   34 1
  11    4   35 1
  12    5   36 1
  13    5   37 1
  14    6    7 2
  15    6    8 am
  16    8    9 1
  17    8   38 1
  18    9   13 1
  19    9   39 1
  20    9   40 1
  21   10   11 1
  22   10   14 1
  23   11   12 2
  24   11   23 1
  25   12   13 1
  26   13   14 2
  27   14   17 1
  28   15   16 ar
  29   15   20 ar
  30   15   22 1
  31   16   17 ar
  32   16   41 1
  33   17   18 ar
  34   18   19 ar
  35   18   42 1
  36   19   20 ar
  37   19   21 1
  38   21   43 1
  39   21   44 1
  40   21   45 1
  41   22   46 1
  42   22   47 1
  43   22   48 1
  44   23   24 1
  45   23   28 1
  46   24   25 1
  47   24   49 1
  48   24   50 1
  49   25   26 1
  50   25   30 1
  51   25   51 1
  52   26   27 1
  53   27   28 1
  54   27   29 1
  55   27   52 1
  56   28   53 1
  57   28   54 1
  58   29   55 1
  59   29   56 1
  60   29   57 1
  61   30   58 1
  62   30   59 1
  63   30   60 1

#	End of record

