#	Name: ASD01840492
#	Creating user name:	WinNT
#	Creation time:	15. 06. 2019 19:37

#	Modifying user name:	WinNT
#	Modification time:	15. 06. 2019 19:37

#	Program:	/corina/corina34_cracker 3.40 0067  02.08.2006

@<TRIPOS>MOLECULE
ASD01840492
  43   46    0    0    0
SMALL
NO_CHARGES


@<TRIPOS>ATOM
   1 C1            -0.1545     1.6395    -0.0459 C.3     
   2 C2            -0.0903     0.1109    -0.0438 C.3     
   3 H3            -1.0901    -0.3008     0.0941 H       
   4 N4             0.4734    -0.3653    -1.3122 N.am    
   5 C5             1.6939    -1.1091    -0.9810 C.3     
   6 C6             1.8589    -1.0743     0.5157 C.ar    
   7 N7             2.7819    -1.5856     1.3194 N.ar    
   8 C8             2.7103    -1.4186     2.6248 C.ar    
   9 C9             3.7820    -2.0178     3.4987 C.3     
  10 N10            1.7295    -0.7430     3.1882 N.ar    
  11 C11            0.7666    -0.2005     2.4473 C.ar    
  12 N12           -0.2645     0.5099     3.0402 N.3     
  13 C13            0.2537     1.6776     3.7772 C.3     
  14 C14           -0.7504     1.3501     4.8913 C.3     
  15 C15           -0.6315    -0.0784     4.3419 C.3     
  16 C16            0.8129    -0.3605     1.0635 C.ar    
  17 C17           -0.0327    -0.1593    -2.5442 C.2     
  18 O18           -1.1074     0.3933    -2.6751 O.2     
  19 C19            0.7192    -0.6055    -3.7365 C.ar    
  20 C20            0.2799    -0.2544    -5.0134 C.ar    
  21 C21            0.9875    -0.6742    -6.1241 C.ar    
  22 F22            0.5638    -0.3353    -7.3614 F       
  23 C23            2.1305    -1.4415    -5.9706 C.ar    
  24 C24            2.5704    -1.7926    -4.7056 C.ar    
  25 Cl25           4.0043    -2.7540    -4.5231 Cl      
  26 C26            1.8744    -1.3748    -3.5887 C.ar    
  27 H27            0.8552     2.0455    -0.1078 H       
  28 H28           -0.7353     1.9776    -0.9040 H       
  29 H29           -0.6290     1.9845     0.8728 H       
  30 H30            1.6005    -2.1414    -1.3185 H       
  31 H31            2.5539    -0.6396    -1.4585 H       
  32 H32            4.5895    -1.2973     3.6288 H       
  33 H33            3.3592    -2.2693     4.4713 H       
  34 H34            4.1724    -2.9200     3.0278 H       
  35 H35            1.2939     1.5702     4.0849 H       
  36 H36            0.0563     2.6274     3.2802 H       
  37 H37           -0.3551     1.4749     5.8993 H       
  38 H38           -1.7331     1.8010     4.7531 H       
  39 H39           -1.5790    -0.6168     4.3233 H       
  40 H40            0.1725    -0.6544     4.8002 H       
  41 H41           -0.6112     0.3439    -5.1337 H       
  42 H42            2.6805    -1.7675    -6.8410 H       
  43 H43            2.2214    -1.6457    -2.6025 H       
@<TRIPOS>BOND
   1    1    2 1
   2    1   27 1
   3    1   28 1
   4    1   29 1
   5    2    3 1
   6    2   16 1
   7    2    4 1
   8    4    5 1
   9    4   17 am
  10    5    6 1
  11    5   30 1
  12    5   31 1
  13    6   16 ar
  14    6    7 ar
  15    7    8 ar
  16    8    9 1
  17    8   10 ar
  18    9   32 1
  19    9   33 1
  20    9   34 1
  21   10   11 ar
  22   11   12 1
  23   11   16 ar
  24   12   15 1
  25   12   13 1
  26   13   14 1
  27   13   35 1
  28   13   36 1
  29   14   15 1
  30   14   37 1
  31   14   38 1
  32   15   39 1
  33   15   40 1
  34   17   18 2
  35   17   19 1
  36   19   26 ar
  37   19   20 ar
  38   20   21 ar
  39   20   41 1
  40   21   22 1
  41   21   23 ar
  42   23   24 ar
  43   23   42 1
  44   24   25 1
  45   24   26 ar
  46   26   43 1

#	End of record

