#	Name: ASD05720053
#	Creating user name:	WinNT
#	Creation time:	15. 06. 2019 21:01

#	Modifying user name:	WinNT
#	Modification time:	15. 06. 2019 21:01

#	Program:	/corina/corina34_cracker 3.40 0067  02.08.2006

@<TRIPOS>MOLECULE
ASD05720053
  74   79    0    0    0
SMALL
NO_CHARGES


@<TRIPOS>ATOM
   1 O1             1.5101     1.5274    -0.5227 O.3     
   2 C2             1.8860     0.2576    -0.7114 C.2     
   3 N3             1.1367    -0.6337    -0.0481 N.am    
   4 C4             0.0987     0.0850     0.7067 C.3     
   5 C5             0.3630     1.5663     0.3748 C.3     
   6 O6             2.8209    -0.0588    -1.4199 O.2     
   7 C7             2.6972    -3.8439    -0.2981 C.2     
   8 N8             2.5117    -2.5205    -0.2734 N.2     
   9 C9             1.3113    -2.0111    -0.0702 C.2     
  10 C10            0.2063    -2.8646     0.1248 C.2     
  11 C11            0.3906    -4.2042     0.1009 C.2     
  12 N12            1.6459    -4.7021    -0.1123 N.pl3   
  13 N13            2.1385    -6.0097    -0.1900 N.2     
  14 C14            3.4293    -5.9733    -0.4126 C.2     
  15 C15            3.8362    -4.6361    -0.4958 C.2     
  16 C16            5.2120    -4.1502    -0.7441 C.ar    
  17 C17            6.2578    -4.5605     0.0848 C.ar    
  18 C18            7.5375    -4.1080    -0.1467 C.ar    
  19 C19            7.7891    -3.2399    -1.2091 C.ar    
  20 C20            6.7448    -2.8296    -2.0376 C.ar    
  21 C21            5.4655    -3.2858    -1.8107 C.ar    
  22 N22           10.9138    -1.7394    -2.2875 N.pl3   
  23 N23            9.5298    -1.9353    -2.4225 N.2     
  24 C24            9.1676    -2.7526    -1.4575 C.2     
  25 N25           10.2508    -3.0713    -0.7357 N.2     
  26 C26           11.3017    -2.4687    -1.2259 C.2     
  27 C27           11.7685    -0.9090    -3.1396 C.3     
  28 O28           13.1167    -0.9750    -2.6706 O.3     
  29 C29           14.0375    -0.1957    -3.4367 C.3     
  30 C30           15.4420    -0.3407    -2.8475 C.3     
  31 Si31          16.6424     0.6753    -3.8463 Si      
  32 C32           16.1306     2.4660    -3.7980 C.3     
  33 C33           18.3526     0.4987    -3.1288 C.3     
  34 C34           16.6443     0.0773    -5.6107 C.3     
  35 C35            0.2553    -0.1657     2.2079 C.3     
  36 C36           -0.0267    -1.6155     2.5072 C.ar    
  37 C37            1.0197    -2.5040     2.6692 C.ar    
  38 C38            0.7610    -3.8339     2.9437 C.ar    
  39 C39           -0.5441    -4.2751     3.0567 C.ar    
  40 C40           -1.5906    -3.3864     2.8956 C.ar    
  41 C41           -1.3318    -2.0556     2.6254 C.ar    
  42 H42           -0.8945    -0.2116     0.3695 H       
  43 H43            0.6048     2.1235     1.2800 H       
  44 H44           -0.4996     2.0055    -0.1263 H       
  45 H45           -0.7779    -2.4526     0.2922 H       
  46 H46           -0.4444    -4.8730     0.2488 H       
  47 H47            4.0733    -6.8339    -0.5183 H       
  48 H48            6.0630    -5.2324     0.9076 H       
  49 H49            8.3465    -4.4251     0.4946 H       
  50 H50            6.9403    -2.1574    -2.8600 H       
  51 H51            4.6578    -2.9718    -2.4552 H       
  52 H52           12.3092    -2.5436    -0.8441 H       
  53 H53           11.7226    -1.2737    -4.1658 H       
  54 H54           11.4220     0.1239    -3.1053 H       
  55 H55           14.0386    -0.5455    -4.4690 H       
  56 H56           13.7380     0.8520    -3.4085 H       
  57 H57           15.4409     0.0092    -1.8152 H       
  58 H58           15.7414    -1.3884    -2.8757 H       
  59 H59           16.1295     2.8159    -2.7657 H       
  60 H60           16.8329     3.0605    -4.3824 H       
  61 H61           15.1300     2.5694    -4.2177 H       
  62 H62           18.6520    -0.5490    -3.1571 H       
  63 H63           19.0549     1.0932    -3.7132 H       
  64 H64           18.3515     0.8486    -2.0965 H       
  65 H65           15.6437     0.1807    -6.0304 H       
  66 H66           17.3466     0.6718    -6.1950 H       
  67 H67           16.9437    -0.9703    -5.6389 H       
  68 H68            1.2733     0.0769     2.5125 H       
  69 H69           -0.4473     0.4619     2.7563 H       
  70 H70            2.0394    -2.1593     2.5810 H       
  71 H71            1.5786    -4.5283     3.0696 H       
  72 H72           -0.7462    -5.3143     3.2705 H       
  73 H73           -2.6103    -3.7312     2.9835 H       
  74 H74           -2.1493    -1.3605     2.5032 H       
@<TRIPOS>BOND
   1    1    2 1
   2    1    5 1
   3    2    3 am
   4    2    6 2
   5    3    4 1
   6    3    9 1
   7    4    5 1
   8    4   35 1
   9    4   42 1
  10    5   43 1
  11    5   44 1
  12    7    8 1
  13    7   12 1
  14    7   15 2
  15    8    9 2
  16    9   10 1
  17   10   11 2
  18   10   45 1
  19   11   12 1
  20   11   46 1
  21   12   13 1
  22   13   14 2
  23   14   15 1
  24   14   47 1
  25   15   16 1
  26   16   17 ar
  27   16   21 ar
  28   17   18 ar
  29   17   48 1
  30   18   19 ar
  31   18   49 1
  32   19   20 ar
  33   19   24 1
  34   20   21 ar
  35   20   50 1
  36   21   51 1
  37   22   23 1
  38   22   26 1
  39   22   27 1
  40   23   24 2
  41   24   25 1
  42   25   26 2
  43   26   52 1
  44   27   28 1
  45   27   53 1
  46   27   54 1
  47   28   29 1
  48   29   30 1
  49   29   55 1
  50   29   56 1
  51   30   31 1
  52   30   57 1
  53   30   58 1
  54   31   32 1
  55   31   33 1
  56   31   34 1
  57   32   59 1
  58   32   60 1
  59   32   61 1
  60   33   62 1
  61   33   63 1
  62   33   64 1
  63   34   65 1
  64   34   66 1
  65   34   67 1
  66   35   36 1
  67   35   68 1
  68   35   69 1
  69   36   37 ar
  70   36   41 ar
  71   37   38 ar
  72   37   70 1
  73   38   39 ar
  74   38   71 1
  75   39   40 ar
  76   39   72 1
  77   40   41 ar
  78   40   73 1
  79   41   74 1

#	End of record

