#	Name: ASD01913450
#	Creating user name:	WinNT
#	Creation time:	15. 06. 2019 20:01

#	Modifying user name:	WinNT
#	Modification time:	15. 06. 2019 20:01

#	Program:	/corina/corina34_cracker 3.40 0067  02.08.2006

@<TRIPOS>MOLECULE
ASD01913450
  35   37    0    0    0
SMALL
NO_CHARGES


@<TRIPOS>ATOM
   1 C1             0.9013     0.0770    -1.0338 C.ar    
   2 C2             0.0285    -0.0127     0.0457 C.ar    
   3 C3             0.3741     0.6333     1.2282 C.ar    
   4 N4             1.5122     1.3052     1.2838 N.ar    
   5 C5             2.3130     1.3668     0.2389 C.ar    
   6 N6             2.0209     0.7685    -0.8985 N.ar    
   7 C7            -1.0546    -2.0640    -0.1503 C.ar    
   8 C8            -2.2190    -2.8191    -0.1662 C.ar    
   9 C9            -2.1308    -4.1982    -0.2720 C.ar    
  10 C10           -0.8753    -4.7767    -0.3588 C.ar    
  11 C11            0.2501    -3.9619    -0.3371 C.ar    
  12 N12            0.1304    -2.6471    -0.2349 N.ar    
  13 N13            1.5173    -4.5341    -0.4238 N.am    
  14 C14            2.6081    -3.7468    -0.5063 C.2     
  15 O15           -1.1322    -0.7130    -0.0526 O.3     
  16 C16            3.9398    -4.3496    -0.7260 C.ar    
  17 C17            4.0695    -5.7349    -0.8483 C.ar    
  18 C18            5.3128    -6.2999    -1.0535 C.ar    
  19 C19            6.4354    -5.5010    -1.1398 C.ar    
  20 C20            6.3201    -4.1134    -1.0197 C.ar    
  21 C21            5.0678    -3.5365    -0.8173 C.ar    
  22 O22            2.4967    -2.5411    -0.4001 O.2     
  23 C23            7.4855    -3.2860    -1.1090 C.1     
  24 N24            8.4100    -2.6297    -1.1797 N.1     
  25 H25            0.6704    -0.4144    -1.9674 H       
  26 H26           -0.2775     0.5873     2.0883 H       
  27 H27            3.2349     1.9239     0.3167 H       
  28 H28           -3.1831    -2.3374    -0.0964 H       
  29 H29           -3.0216    -4.8085    -0.2862 H       
  30 H30           -0.7722    -5.8485    -0.4419 H       
  31 H31            1.6146    -5.4993    -0.4248 H       
  32 H32            3.1955    -6.3658    -0.7817 H       
  33 H33            5.4075    -7.3717    -1.1467 H       
  34 H34            7.4048    -5.9493    -1.3001 H       
  35 H35            4.9730    -2.4647    -0.7242 H       
@<TRIPOS>BOND
   1    1    2 ar
   2    1    6 ar
   3    1   25 1
   4    2    3 ar
   5    2   15 1
   6    3    4 ar
   7    3   26 1
   8    4    5 ar
   9    5    6 ar
  10    5   27 1
  11    7    8 ar
  12    7   12 ar
  13    7   15 1
  14    8    9 ar
  15    8   28 1
  16    9   10 ar
  17    9   29 1
  18   10   11 ar
  19   10   30 1
  20   11   12 ar
  21   11   13 1
  22   13   14 am
  23   13   31 1
  24   14   16 1
  25   14   22 2
  26   16   17 ar
  27   16   21 ar
  28   17   18 ar
  29   17   32 1
  30   18   19 ar
  31   18   33 1
  32   19   20 ar
  33   19   34 1
  34   20   21 ar
  35   20   23 1
  36   21   35 1
  37   23   24 3

#	End of record

