#	Name: ASD04550003
#	Creating user name:	WinNT
#	Creation time:	15. 06. 2019 20:49

#	Modifying user name:	WinNT
#	Modification time:	15. 06. 2019 20:49

#	Program:	/corina/corina34_cracker 3.40 0067  02.08.2006

@<TRIPOS>MOLECULE
ASD04550003
  30   30    0    0    0
SMALL
NO_CHARGES


@<TRIPOS>ATOM
   1 C1            -0.0167     1.3781     0.0096 C.ar    
   2 C2             0.0021    -0.0041     0.0020 C.ar    
   3 C3             1.2084    -0.6789    -0.0132 C.ar    
   4 C4             2.3960     0.0285    -0.0212 C.ar    
   5 C5             2.3773     1.4107    -0.0145 C.ar    
   6 C6             1.1710     2.0855     0.0021 C.ar    
   7 C7            -1.2926    -0.7753     0.0108 C.3     
   8 C8            -1.3742    -1.6492    -1.2424 C.3     
   9 C9            -1.3493    -1.6626     1.2559 C.3     
  10 C10            3.6720     2.1819    -0.0228 C.3     
  11 C11            3.7296     3.0684    -1.2685 C.3     
  12 C12            3.7514     3.0435     1.2111 C.2     
  13 O13            2.8492     3.0325     2.0147 O.2     
  14 O14            4.8244     3.8232     1.4173 O.3     
  15 H15           -0.9592     1.9054     0.0170 H       
  16 H16            1.2231    -1.7588    -0.0184 H       
  17 H17            3.3386    -0.4987    -0.0324 H       
  18 H18            1.1563     3.1654     0.0069 H       
  19 H19           -2.1306    -0.0783     0.0229 H       
  20 H20           -2.3106    -2.2070    -1.2361 H       
  21 H21           -1.3338    -1.0170    -2.1295 H       
  22 H22           -0.5362    -2.3461    -1.2545 H       
  23 H23           -1.2912    -1.0400     2.1487 H       
  24 H24           -2.2857    -2.2204     1.2623 H       
  25 H25           -0.5113    -2.3595     1.2438 H       
  26 H26            4.5100     1.4850    -0.0338 H       
  27 H27            2.8916     3.7654    -1.2575 H       
  28 H28            4.6661     3.6262    -1.2744 H       
  29 H29            3.6722     2.4453    -2.1609 H       
  30 H30            4.8300     4.3581     2.2229 H       
@<TRIPOS>BOND
   1    1    2 ar
   2    1    6 ar
   3    1   15 1
   4    2    3 ar
   5    2    7 1
   6    3    4 ar
   7    3   16 1
   8    4    5 ar
   9    4   17 1
  10    5    6 ar
  11    5   10 1
  12    6   18 1
  13    7    8 1
  14    7    9 1
  15    7   19 1
  16    8   20 1
  17    8   21 1
  18    8   22 1
  19    9   23 1
  20    9   24 1
  21    9   25 1
  22   10   11 1
  23   10   12 1
  24   10   26 1
  25   11   27 1
  26   11   28 1
  27   11   29 1
  28   12   13 2
  29   12   14 1
  30   14   30 1

#	End of record

