#	Name: ASD01510013
#	Creating user name:	WinNT
#	Creation time:	15. 06. 2019 19:21

#	Modifying user name:	WinNT
#	Modification time:	15. 06. 2019 19:21

#	Program:	/corina/corina34_cracker 3.40 0067  02.08.2006

@<TRIPOS>MOLECULE
ASD01510013
  67   70    0    0    0
SMALL
NO_CHARGES


@<TRIPOS>ATOM
   1 C1            -0.0173     1.4248     0.0099 C.3     
   2 O2             0.0021    -0.0041     0.0020 O.3     
   3 C3             0.6046    -0.6059    -1.0536 C.ar    
   4 N4             1.1457     0.1215    -2.0251 N.ar    
   5 C5             1.7358    -0.4582    -3.0592 C.ar    
   6 N6             1.8125    -1.7755    -3.1708 N.ar    
   7 C7             1.2949    -2.5695    -2.2396 C.ar    
   8 C8             0.6699    -1.9970    -1.1318 C.ar    
   9 S9            -0.0316    -3.0061     0.1308 S.3     
  10 C10            1.3600    -3.1717     1.1988 C.ar    
  11 N11            1.2406    -3.8863     2.3085 N.ar    
  12 C12            2.2706    -4.0333     3.1384 C.ar    
  13 N13            2.1374    -4.7829     4.2969 N.pl3   
  14 C14            3.4834    -3.4249     2.8276 C.ar    
  15 C15            3.5708    -2.6823     1.6536 C.ar    
  16 N16            2.5005    -2.5828     0.8688 N.ar    
  17 N17            4.7585    -2.0589     1.3037 N.pl3   
  18 O18            1.3779    -3.9177    -2.3618 O.3     
  19 C19            2.0389    -4.4244    -3.5230 C.3     
  20 N20            2.2879     0.3358    -4.0524 N.pl3   
  21 C21            2.9454    -0.2846    -5.2052 C.3     
  22 C22            1.9337    -0.5107    -6.2990 C.ar    
  23 C23            1.7109     0.4710    -7.2467 C.ar    
  24 C24            0.7840     0.2662    -8.2504 C.ar    
  25 C25            0.0764    -0.9258    -8.3068 C.ar    
  26 C26            0.3018    -1.9093    -7.3546 C.ar    
  27 C27            1.2339    -1.7018    -6.3563 C.ar    
  28 O28           -0.8363    -1.1295    -9.2929 O.3     
  29 C29           -1.5274    -2.3802    -9.2888 C.3     
  30 C30            2.2139     1.7953    -3.9492 C.3     
  31 C31            3.4257     2.3091    -3.2154 C.ar    
  32 C32            4.5666     2.6477    -3.9192 C.ar    
  33 C33            5.6788     3.1189    -3.2488 C.ar    
  34 C34            5.6502     3.2524    -1.8682 C.ar    
  35 C35            4.5042     2.9120    -1.1643 C.ar    
  36 C36            3.3927     2.4465    -1.8399 C.ar    
  37 O37            6.7432     3.7153    -1.2064 O.3     
  38 C38            6.6421     3.8268     0.2147 C.3     
  39 H39            1.0053     1.8021     0.0021 H       
  40 H40           -0.5445     1.7859    -0.8732 H       
  41 H41           -0.5275     1.7763     0.9067 H       
  42 H42            1.2895    -5.2043     4.5071 H       
  43 H43            2.8923    -4.8859     4.8973 H       
  44 H44            4.3364    -3.5264     3.4822 H       
  45 H45            5.5357    -2.1386     1.8786 H       
  46 H46            4.8123    -1.5430     0.4841 H       
  47 H47            2.0354    -5.5141    -3.4966 H       
  48 H48            1.5179    -4.0808    -4.4166 H       
  49 H49            3.0677    -4.0647    -3.5414 H       
  50 H50            3.7346     0.3726    -5.5705 H       
  51 H51            3.3773    -1.2398    -4.9066 H       
  52 H52            2.2617     1.3989    -7.2022 H       
  53 H53            0.6100     1.0335    -8.9902 H       
  54 H54           -0.2477    -2.8381    -7.3964 H       
  55 H55            1.4097    -2.4671    -5.6148 H       
  56 H56           -2.2245    -2.4129   -10.1262 H       
  57 H57           -0.8077    -3.1934    -9.3833 H       
  58 H58           -2.0773    -2.4885    -8.3539 H       
  59 H59            2.1833     2.2291    -4.9487 H       
  60 H60            1.3128     2.0757    -3.4037 H       
  61 H61            4.5885     2.5433    -4.9939 H       
  62 H62            6.5699     3.3829    -3.7990 H       
  63 H63            4.4795     3.0150    -0.0895 H       
  64 H64            2.5004     2.1814    -1.2925 H       
  65 H65            5.8337     4.5124     0.4687 H       
  66 H66            6.4345     2.8459     0.6422 H       
  67 H67            7.5810     4.2072     0.6170 H       
@<TRIPOS>BOND
   1    1    2 1
   2    1   39 1
   3    1   40 1
   4    1   41 1
   5    2    3 1
   6    3    4 ar
   7    3    8 ar
   8    4    5 ar
   9    5    6 ar
  10    5   20 1
  11    6    7 ar
  12    7    8 ar
  13    7   18 1
  14    8    9 1
  15    9   10 1
  16   10   11 ar
  17   10   16 ar
  18   11   12 ar
  19   12   13 1
  20   12   14 ar
  21   13   42 1
  22   13   43 1
  23   14   15 ar
  24   14   44 1
  25   15   16 ar
  26   15   17 1
  27   17   45 1
  28   17   46 1
  29   18   19 1
  30   19   47 1
  31   19   48 1
  32   19   49 1
  33   20   21 1
  34   20   30 1
  35   21   22 1
  36   21   50 1
  37   21   51 1
  38   22   23 ar
  39   22   27 ar
  40   23   24 ar
  41   23   52 1
  42   24   25 ar
  43   24   53 1
  44   25   26 ar
  45   25   28 1
  46   26   27 ar
  47   26   54 1
  48   27   55 1
  49   28   29 1
  50   29   56 1
  51   29   57 1
  52   29   58 1
  53   30   31 1
  54   30   59 1
  55   30   60 1
  56   31   32 ar
  57   31   36 ar
  58   32   33 ar
  59   32   61 1
  60   33   34 ar
  61   33   62 1
  62   34   35 ar
  63   34   37 1
  64   35   36 ar
  65   35   63 1
  66   36   64 1
  67   37   38 1
  68   38   65 1
  69   38   66 1
  70   38   67 1

#	End of record

