#	Name: ASD01915859
#	Creating user name:	WinNT
#	Creation time:	15. 06. 2019 20:06

#	Modifying user name:	WinNT
#	Modification time:	15. 06. 2019 20:06

#	Program:	/corina/corina34_cracker 3.40 0067  02.08.2006

@<TRIPOS>MOLECULE
ASD01915859
  46   50    0    0    0
SMALL
NO_CHARGES


@<TRIPOS>ATOM
   1 C1            -0.0042     1.4690     0.2365 C.2     
   2 N2             0.0666     0.1200    -0.0302 N.pl3   
   3 C3            -1.1422    -0.6627    -0.3148 C.3     
   4 C4            -2.3278    -0.0488     0.4277 C.3     
   5 N5            -2.4044     1.3988     0.2637 N.am    
   6 C6            -1.2936     2.1744     0.2880 C.2     
   7 C7             1.2762     1.9063     0.4289 C.2     
   8 C8             2.0760     0.7658     0.2757 C.2     
   9 N9             1.2869    -0.2493     0.0110 N.2     
  10 C10            3.5774     0.7139     0.3939 C.3     
  11 O11            4.0773     2.0194     0.6903 O.3     
  12 C12            5.4230     2.1477     0.8302 C.ar    
  13 O13           -1.3593     3.3875     0.3490 O.2     
  14 C14            5.9766     3.3867     1.1183 C.ar    
  15 C15            6.2449     1.0388     0.6909 C.ar    
  16 C16            7.6125     1.1718     0.8336 C.ar    
  17 C17            8.1623     2.4089     1.1151 C.ar    
  18 C18            7.3448     3.5145     1.2600 C.ar    
  19 C19           -3.6514     1.9991     0.0774 C.ar    
  20 C20           -3.9503     2.5872    -1.1323 C.ar    
  21 C21           -5.2040     3.1905    -1.3190 C.ar    
  22 C22           -6.1405     3.1820    -0.2545 C.ar    
  23 C23           -5.8045     2.5743     0.9667 C.ar    
  24 C24           -4.5858     1.9915     1.1200 C.ar    
  25 N25           -5.5232     3.7698    -2.4815 N.ar    
  26 C26           -6.6921     4.3355    -2.6629 C.ar    
  27 C27           -7.6568     4.3619    -1.6587 C.ar    
  28 C28           -7.3958     3.7879    -0.4466 C.ar    
  29 H29           -1.3389    -0.6514    -1.3868 H       
  30 H30           -0.9970    -1.6904     0.0182 H       
  31 H31           -3.2484    -0.4950     0.0514 H       
  32 H32           -2.2358    -0.2786     1.4893 H       
  33 H33            1.6010     2.9121     0.6507 H       
  34 H34            3.8553     0.0281     1.1942 H       
  35 H35            4.0042     0.3664    -0.5469 H       
  36 H36            5.3385     4.2507     1.2313 H       
  37 H37            5.8159     0.0722     0.4714 H       
  38 H38            8.2527     0.3088     0.7256 H       
  39 H39            9.2317     2.5108     1.2263 H       
  40 H40            7.7766     4.4798     1.4795 H       
  41 H41           -3.2243     2.5843    -1.9319 H       
  42 H42           -6.5146     2.5659     1.7804 H       
  43 H43           -4.3319     1.5251     2.0605 H       
  44 H44           -6.9125     4.7933    -3.6159 H       
  45 H45           -8.6104     4.8361    -1.8379 H       
  46 H46           -8.1328     3.7993     0.3427 H       
@<TRIPOS>BOND
   1    1    2 1
   2    1    7 2
   3    1    6 1
   4    2    3 1
   5    2    9 1
   6    3    4 1
   7    3   29 1
   8    3   30 1
   9    4    5 1
  10    4   31 1
  11    4   32 1
  12    5    6 am
  13    5   19 1
  14    6   13 2
  15    7    8 1
  16    7   33 1
  17    8    9 2
  18    8   10 1
  19   10   11 1
  20   10   34 1
  21   10   35 1
  22   11   12 1
  23   12   14 ar
  24   12   15 ar
  25   14   18 ar
  26   14   36 1
  27   15   16 ar
  28   15   37 1
  29   16   17 ar
  30   16   38 1
  31   17   18 ar
  32   17   39 1
  33   18   40 1
  34   19   20 ar
  35   19   24 ar
  36   20   21 ar
  37   20   41 1
  38   21   22 ar
  39   21   25 ar
  40   22   23 ar
  41   22   28 ar
  42   23   24 ar
  43   23   42 1
  44   24   43 1
  45   25   26 ar
  46   26   27 ar
  47   26   44 1
  48   27   28 ar
  49   27   45 1
  50   28   46 1

#	End of record

