#	Name: ASD01901380
#	Creating user name:	WinNT
#	Creation time:	15. 06. 2019 19:53

#	Modifying user name:	WinNT
#	Modification time:	15. 06. 2019 19:53

#	Program:	/corina/corina34_cracker 3.40 0067  02.08.2006

@<TRIPOS>MOLECULE
ASD01901380
  40   43    0    0    0
SMALL
NO_CHARGES


@<TRIPOS>ATOM
   1 C1            -0.0169     1.3957     0.0097 C.ar    
   2 C2             1.1777     2.1001     0.0021 C.ar    
   3 C3             2.3821     1.4202    -0.0135 C.ar    
   4 C4             2.4025     0.0357    -0.0216 C.ar    
   5 C5             1.2203    -0.6775    -0.0137 C.ar    
   6 C6             0.0021    -0.0041     0.0020 C.ar    
   7 C7            -1.2707    -0.7665     0.0106 C.2     
   8 N8            -3.1788    -1.5379    -1.1468 N.2     
   9 C9            -2.0555    -0.8629    -1.1593 C.2     
  10 C10           -1.6974    -1.3904     1.1496 C.2     
  11 N11           -2.8718    -2.0833     1.1226 N.pl3   
  12 C12           -3.6079    -2.1488    -0.0322 C.2     
  13 C13           -3.5487    -2.7967     2.0748 C.2     
  14 C14           -4.6675    -3.2759     1.4906 C.2     
  15 N15           -4.6890    -2.8745     0.2162 N.2     
  16 C16           -5.7170    -4.1225     2.1634 C.3     
  17 O17           -5.3481    -4.3448     3.5260 O.3     
  18 C18           -6.1941    -5.0960     4.2798 C.ar    
  19 C19           -7.3519    -5.6127     3.7173 C.ar    
  20 C20           -5.8974    -5.3511     5.6105 C.ar    
  21 C21           -6.7578    -6.1150     6.3752 C.ar    
  22 C22           -7.9156    -6.6262     5.8138 C.ar    
  23 C23           -8.2106    -6.3763     4.4843 C.ar    
  24 F24           -8.7556    -7.3738     6.5625 F       
  25 N25           -1.2331     2.0796     0.0308 N.pl3   
  26 Cl26           3.8748     2.3065    -0.0236 Cl      
  27 H27            1.1676     3.1800     0.0080 H       
  28 H28            3.3467    -0.4884    -0.0345 H       
  29 H29            1.2407    -1.7573    -0.0204 H       
  30 H30           -1.7291    -0.3782    -2.0676 H       
  31 H31           -1.1134    -1.3359     2.0565 H       
  32 H32           -3.2449    -2.9479     3.1001 H       
  33 H33           -6.6774    -3.6083     2.1263 H       
  34 H34           -5.7972    -5.0796     1.6479 H       
  35 H35           -7.5823    -5.4180     2.6803 H       
  36 H36           -4.9940    -4.9531     6.0485 H       
  37 H37           -6.5270    -6.3138     7.4114 H       
  38 H38           -9.1121    -6.7788     4.0466 H       
  39 H39           -2.0675     1.5850     0.0401 H       
  40 H40           -1.2441     3.0495     0.0361 H       
@<TRIPOS>BOND
   1    1    6 ar
   2    1    2 ar
   3    1   25 1
   4    2    3 ar
   5    2   27 1
   6    3    4 ar
   7    3   26 1
   8    4    5 ar
   9    4   28 1
  10    5    6 ar
  11    5   29 1
  12    6    7 1
  13    7   10 2
  14    7    9 1
  15    8    9 2
  16    8   12 1
  17    9   30 1
  18   10   11 1
  19   10   31 1
  20   11   13 1
  21   11   12 1
  22   12   15 2
  23   13   14 2
  24   13   32 1
  25   14   15 1
  26   14   16 1
  27   16   17 1
  28   16   33 1
  29   16   34 1
  30   17   18 1
  31   18   20 ar
  32   18   19 ar
  33   19   23 ar
  34   19   35 1
  35   20   21 ar
  36   20   36 1
  37   21   22 ar
  38   21   37 1
  39   22   23 ar
  40   22   24 1
  41   23   38 1
  42   25   39 1
  43   25   40 1

#	End of record

