#	Name: ASD04591008
#	Creating user name:	WinNT
#	Creation time:	15. 06. 2019 20:51

#	Modifying user name:	WinNT
#	Modification time:	15. 06. 2019 20:51

#	Program:	/corina/corina34_cracker 3.40 0067  02.08.2006

@<TRIPOS>MOLECULE
ASD04591008
  66   71    0    0    0
SMALL
NO_CHARGES


@<TRIPOS>ATOM
   1 N1            -0.0171     1.3232    -0.0119 N.ar    
   2 C2             0.0017    -0.0035    -0.0051 C.ar    
   3 N3             1.1298    -0.6949    -0.0118 N.ar    
   4 C4             2.3050    -0.0728    -0.0262 C.ar    
   5 C5             2.3189     1.3366    -0.0341 C.ar    
   6 C6             1.1072     2.0202    -0.0262 C.ar    
   7 N7             3.6031    -0.5195    -0.0358 N.pl3   
   8 C8             4.4823     0.5495    -0.0499 C.ar    
   9 C9             3.7312     1.7385    -0.0495 C.ar    
  10 C10            5.8680     0.6418    -0.0633 C.ar    
  11 N11            6.4613     1.8181    -0.0753 N.ar    
  12 C12            5.7850     2.9533    -0.0753 C.ar    
  13 C13            4.4064     2.9585    -0.0621 C.ar    
  14 N14           -1.2019    -0.6887     0.0098 N.pl3   
  15 C15           -2.4019     0.0120     0.1303 C.ar    
  16 N16           -2.3783     1.3196     0.3309 N.ar    
  17 C17           -3.4885     2.0229     0.4509 C.ar    
  18 C18           -4.7291     1.4087     0.3703 C.ar    
  19 C19           -4.7935     0.0321     0.1596 C.ar    
  20 C20           -3.6094    -0.6709     0.0326 C.ar    
  21 N21           -5.9023     2.1615     0.4995 N.3     
  22 C22           -5.5953     3.5824     0.7148 C.3     
  23 C23           -6.9000     4.3806     0.7711 C.3     
  24 N24           -7.7449     3.8574     1.8537 N.3     
  25 C25           -8.0519     2.4365     1.6384 C.3     
  26 C26           -6.7473     1.6383     1.5820 C.3     
  27 C27            4.0018    -1.9292    -0.0312 C.3     
  28 C28            3.4353    -2.6234    -1.2715 C.3     
  29 C29            3.4578    -2.6090     1.2269 C.3     
  30 C30            3.8742    -4.0812     1.2316 C.3     
  31 C31            3.3302    -4.7610     2.4898 C.3     
  32 C32            3.8967    -4.0668     3.7300 C.3     
  33 C33            3.4803    -2.5946     3.7252 C.3     
  34 C34            4.0243    -1.9148     2.4671 C.3     
  35 H35            1.0848     3.1000    -0.0323 H       
  36 H36            6.4645    -0.2585    -0.0635 H       
  37 H37            6.3203     3.8912    -0.0851 H       
  38 H38            3.8596     3.8899    -0.0625 H       
  39 H39           -1.2103    -1.6559    -0.0635 H       
  40 H40           -3.4301     3.0889     0.6140 H       
  41 H41           -5.7459    -0.4729     0.0926 H       
  42 H42           -3.6221    -1.7382    -0.1317 H       
  43 H43           -5.0564     3.6996     1.6549 H       
  44 H44           -4.9794     3.9498    -0.1061 H       
  45 H45           -6.6760     5.4305     0.9597 H       
  46 H46           -7.4258     4.2855    -0.1789 H       
  47 H47           -7.3106     4.0013     2.7530 H       
  48 H48           -8.6679     2.0691     2.4592 H       
  49 H49           -8.5909     2.3193     0.6982 H       
  50 H50           -6.9712     0.5883     1.3935 H       
  51 H51           -6.2214     1.7334     2.5321 H       
  52 H52            5.0895    -1.9992    -0.0406 H       
  53 H53            3.8228    -2.1391    -2.1678 H       
  54 H54            3.7319    -3.6723    -1.2681 H       
  55 H55            2.3476    -2.5534    -1.2621 H       
  56 H56            2.3701    -2.5390     1.2363 H       
  57 H57            3.4706    -4.5758     0.3481 H       
  58 H58            4.9619    -4.1513     1.2222 H       
  59 H59            2.2425    -4.6910     2.4991 H       
  60 H60            3.6268    -5.8099     2.4931 H       
  61 H61            3.5091    -4.5511     4.6263 H       
  62 H62            4.9844    -4.1369     3.7206 H       
  63 H63            2.3926    -2.5246     3.7346 H       
  64 H64            3.8839    -2.1000     4.6088 H       
  65 H65            5.1120    -1.9848     2.4577 H       
  66 H66            3.7277    -0.8659     2.4637 H       
@<TRIPOS>BOND
   1    1    2 ar
   2    1    6 ar
   3    2    3 ar
   4    2   14 1
   5    3    4 ar
   6    4    5 ar
   7    4    7 1
   8    5    6 ar
   9    5    9 1
  10    6   35 1
  11    7    8 1
  12    7   27 1
  13    8    9 ar
  14    8   10 ar
  15    9   13 ar
  16   10   11 ar
  17   10   36 1
  18   11   12 ar
  19   12   13 ar
  20   12   37 1
  21   13   38 1
  22   14   15 1
  23   14   39 1
  24   15   16 ar
  25   15   20 ar
  26   16   17 ar
  27   17   18 ar
  28   17   40 1
  29   18   19 ar
  30   18   21 1
  31   19   20 ar
  32   19   41 1
  33   20   42 1
  34   21   22 1
  35   21   26 1
  36   22   23 1
  37   22   43 1
  38   22   44 1
  39   23   24 1
  40   23   45 1
  41   23   46 1
  42   24   25 1
  43   24   47 1
  44   25   26 1
  45   25   48 1
  46   25   49 1
  47   26   50 1
  48   26   51 1
  49   27   28 1
  50   27   29 1
  51   27   52 1
  52   28   53 1
  53   28   54 1
  54   28   55 1
  55   29   30 1
  56   29   34 1
  57   29   56 1
  58   30   31 1
  59   30   57 1
  60   30   58 1
  61   31   32 1
  62   31   59 1
  63   31   60 1
  64   32   33 1
  65   32   61 1
  66   32   62 1
  67   33   34 1
  68   33   63 1
  69   33   64 1
  70   34   65 1
  71   34   66 1

#	End of record

