#	Name: ASD01190176
#	Creating user name:	WinNT
#	Creation time:	15. 06. 2019 19:07

#	Modifying user name:	WinNT
#	Modification time:	15. 06. 2019 19:07

#	Program:	/corina/corina34_cracker 3.40 0067  02.08.2006

@<TRIPOS>MOLECULE
ASD01190176
  49   53    0    0    0
SMALL
NO_CHARGES


@<TRIPOS>ATOM
   1 C1            -0.0187     1.5258     0.0104 C.3     
   2 C2             0.0146     0.0355     0.3553 C.3     
   3 N3             5.2695     3.4189    -0.2394 N.pl3   
   4 N4             5.6868     2.7423    -1.3903 N.2     
   5 C5             4.7119     2.0163    -1.8611 C.2     
   6 C6             3.5566     2.2001    -0.9889 C.ar    
   7 C7             2.2523     1.6927    -0.9822 C.ar    
   8 C8             1.3862     2.0710     0.0023 C.ar    
   9 C9             1.7873     2.9546     0.9972 C.ar    
  10 C10            3.0551     3.4632     1.0118 C.ar    
  11 C11            3.9609     3.0956     0.0205 C.ar    
  12 C12            6.0594     4.2807     0.5261 C.2     
  13 C13            7.3744     4.1345     0.7463 C.2     
  14 C14            7.9420     5.1171     1.5387 C.2     
  15 C15            7.0968     6.0578     1.9618 C.2     
  16 S16            5.4840     5.7281     1.3430 S.3     
  17 C17            7.4686     7.2293     2.8338 C.3     
  18 N18           -1.6002     1.2940    -3.3065 N.pl3   
  19 C19           -1.1152     0.7459    -2.1504 C.2     
  20 C20           -0.6379     1.7127    -1.3507 C.2     
  21 C21           -0.8331     2.9838    -2.0521 C.ar    
  22 C22           -0.5483     4.3157    -1.7445 C.ar    
  23 C23           -0.8637     5.3004    -2.6376 C.ar    
  24 C24           -1.4654     4.9876    -3.8490 C.ar    
  25 C25           -1.7555     3.6804    -4.1724 C.ar    
  26 C26           -1.4427     2.6615    -3.2782 C.ar    
  27 C27           -2.1929     0.5378    -4.4124 C.3     
  28 F28            0.5895    -0.1380     1.6189 F       
  29 F29           -1.2896    -0.4706     0.3628 F       
  30 F30            0.7744    -0.6475    -0.6005 F       
  31 O31           -0.7947     2.2234     0.9867 O.3     
  32 H32            4.7520     1.3905    -2.7404 H       
  33 H33            1.9330     1.0057    -1.7519 H       
  34 H34            1.0880     3.2429     1.7680 H       
  35 H35            3.3540     4.1494     1.7905 H       
  36 H36            7.9455     3.3141     0.3376 H       
  37 H37            8.9911     5.1215     1.7955 H       
  38 H38            7.7611     8.0710     2.2061 H       
  39 H39            6.6123     7.5128     3.4458 H       
  40 H40            8.3011     6.9514     3.4801 H       
  41 H41           -1.1166    -0.3083    -1.9158 H       
  42 H42           -0.0807     4.5667    -0.8039 H       
  43 H43           -0.6436     6.3305    -2.3991 H       
  44 H44           -1.7087     5.7770    -4.5447 H       
  45 H45           -2.2240     3.4472    -5.1172 H       
  46 H46           -3.2672     0.4440    -4.2538 H       
  47 H47           -2.0086     1.0614    -5.3505 H       
  48 H48           -1.7440    -0.4545    -4.4558 H       
  49 H49           -0.8591     3.1756     0.8308 H       
@<TRIPOS>BOND
   1    1    2 1
   2    1    8 1
   3    1   20 1
   4    1   31 1
   5    2   28 1
   6    2   29 1
   7    2   30 1
   8    3    4 1
   9    3   11 1
  10    3   12 1
  11    4    5 2
  12    5    6 1
  13    5   32 1
  14    6    7 ar
  15    6   11 ar
  16    7    8 ar
  17    7   33 1
  18    8    9 ar
  19    9   10 ar
  20    9   34 1
  21   10   11 ar
  22   10   35 1
  23   12   13 2
  24   12   16 1
  25   13   14 1
  26   13   36 1
  27   14   15 2
  28   14   37 1
  29   15   16 1
  30   15   17 1
  31   17   38 1
  32   17   39 1
  33   17   40 1
  34   18   19 1
  35   18   26 1
  36   18   27 1
  37   19   20 2
  38   19   41 1
  39   20   21 1
  40   21   22 ar
  41   21   26 ar
  42   22   23 ar
  43   22   42 1
  44   23   24 ar
  45   23   43 1
  46   24   25 ar
  47   24   44 1
  48   25   26 ar
  49   25   45 1
  50   27   46 1
  51   27   47 1
  52   27   48 1
  53   31   49 1

#	End of record

