#	Name: ASD01815563
#	Creating user name:	WinNT
#	Creation time:	15. 06. 2019 19:33

#	Modifying user name:	WinNT
#	Modification time:	15. 06. 2019 19:33

#	Program:	/corina/corina34_cracker 3.40 0067  02.08.2006

@<TRIPOS>MOLECULE
ASD01815563
  65   70    0    0    0
SMALL
NO_CHARGES


@<TRIPOS>ATOM
   1 C1            -0.0346     1.3576     0.2389 C.ar    
   2 C2            -0.0050    -0.0332     0.2326 C.ar    
   3 C3             1.1752    -0.7094     0.1431 C.ar    
   4 C4             2.3811     0.0029     0.0557 C.ar    
   5 C5             2.3470     1.4187     0.0623 C.ar    
   6 C6             1.1189     2.0814     0.1554 C.ar    
   7 C7             3.6176    -0.6695    -0.0385 C.ar    
   8 C8             4.7829     0.0156    -0.1235 C.ar    
   9 C9             4.8046     1.4190    -0.1211 C.ar    
  10 C10            3.6068     2.1510    -0.0291 C.ar    
  11 C11            6.0619     2.1721    -0.2137 C.2     
  12 N12            5.9817     3.5230    -0.2047 N.am    
  13 C13            4.7775     4.1406    -0.1125 C.2     
  14 N14            3.6516     3.4938    -0.0299 N.2     
  15 O15            7.1354     1.6029    -0.2951 O.2     
  16 C16            7.2048     4.3245    -0.2946 C.3     
  17 C17            7.3324     5.2062     0.9514 C.3     
  18 C18            8.5702     6.0964     0.8124 C.3     
  19 O19            8.4605     6.8800    -0.3775 O.3     
  20 C20            8.3857     6.1095    -1.5787 C.3     
  21 C21            7.1405     5.2198    -1.5358 C.3     
  22 O22            7.4661     4.3798     2.1095 O.3     
  23 C23            3.6424    -2.1763    -0.0442 C.3     
  24 N24            3.4194    -2.6748     1.3195 N.3     
  25 C25            3.0728    -4.1018     1.3080 C.3     
  26 C26            2.7066    -4.5505     2.7246 C.3     
  27 C27            3.8958    -4.3025     3.6567 C.3     
  28 C28            4.2672    -2.8177     3.6133 C.3     
  29 C29            4.5882    -2.4191     2.1710 C.3     
  30 C30            3.5206    -4.6867     5.0648 C.ar    
  31 N31            2.2515    -4.8694     5.3839 N.ar    
  32 C32            1.9226    -5.2069     6.6186 C.ar    
  33 C33            2.9070    -5.3683     7.5771 C.ar    
  34 N34            4.1763    -5.1856     7.2581 N.ar    
  35 C35            4.5057    -4.8538     6.0223 C.ar    
  36 C36            5.0443    -5.1100     3.2145 C.1     
  37 N37            5.9306    -5.7333     2.8733 N.1     
  38 H38           -0.9826     1.8706     0.3062 H       
  39 H39           -0.9307    -0.5854     0.3001 H       
  40 H40            1.1822    -1.7894     0.1398 H       
  41 H41            1.0838     3.1608     0.1608 H       
  42 H42            5.7132    -0.5284    -0.1941 H       
  43 H43            4.7521     5.2203    -0.1075 H       
  44 H44            8.0691     3.6641    -0.3642 H       
  45 H45            6.4440     5.8302     1.0486 H       
  46 H46            8.6422     6.7563     1.6769 H       
  47 H47            9.4621     5.4724     0.7559 H       
  48 H48            8.3248     6.7789    -2.4368 H       
  49 H49            9.2752     5.4857    -1.6665 H       
  50 H50            7.1052     4.5992    -2.4312 H       
  51 H51            6.2482     5.8441    -1.4888 H       
  52 H52            7.5517     4.8730     2.9369 H       
  53 H53            2.8568    -2.5501    -0.7007 H       
  54 H54            4.6115    -2.5223    -0.4036 H       
  55 H55            2.2232    -4.2638     0.6447 H       
  56 H56            3.9260    -4.6799     0.9531 H       
  57 H57            1.8449    -3.9824     3.0749 H       
  58 H58            2.4645    -5.6133     2.7184 H       
  59 H59            3.4301    -2.2223     3.9776 H       
  60 H60            5.1401    -2.6424     4.2421 H       
  61 H61            5.4343    -3.0052     1.8120 H       
  62 H62            4.8393    -1.3591     2.1344 H       
  63 H63            0.8853    -5.3562     6.8794 H       
  64 H64            2.6381    -5.6434     8.5863 H       
  65 H65            5.5431    -4.7044     5.7615 H       
@<TRIPOS>BOND
   1    1    2 ar
   2    1    6 ar
   3    1   38 1
   4    2    3 ar
   5    2   39 1
   6    3    4 ar
   7    3   40 1
   8    4    5 ar
   9    4    7 ar
  10    5    6 ar
  11    5   10 ar
  12    6   41 1
  13    7    8 ar
  14    7   23 1
  15    8    9 ar
  16    8   42 1
  17    9   10 ar
  18    9   11 1
  19   10   14 1
  20   11   12 am
  21   11   15 2
  22   12   13 1
  23   12   16 1
  24   13   14 2
  25   13   43 1
  26   16   17 1
  27   16   21 1
  28   16   44 1
  29   17   18 1
  30   17   22 1
  31   17   45 1
  32   18   19 1
  33   18   46 1
  34   18   47 1
  35   19   20 1
  36   20   21 1
  37   20   48 1
  38   20   49 1
  39   21   50 1
  40   21   51 1
  41   22   52 1
  42   23   24 1
  43   23   53 1
  44   23   54 1
  45   24   25 1
  46   24   29 1
  47   25   26 1
  48   25   55 1
  49   25   56 1
  50   26   27 1
  51   26   57 1
  52   26   58 1
  53   27   28 1
  54   27   30 1
  55   27   36 1
  56   28   29 1
  57   28   59 1
  58   28   60 1
  59   29   61 1
  60   29   62 1
  61   30   31 ar
  62   30   35 ar
  63   31   32 ar
  64   32   33 ar
  65   32   63 1
  66   33   34 ar
  67   33   64 1
  68   34   35 ar
  69   35   65 1
  70   36   37 3

#	End of record

