#	Name: ASD08150681
#	Creating user name:	WinNT
#	Creation time:	15. 06. 2019 21:16

#	Modifying user name:	WinNT
#	Modification time:	15. 06. 2019 21:16

#	Program:	/corina/corina34_cracker 3.40 0067  02.08.2006

@<TRIPOS>MOLECULE
ASD08150681
  61   64    0    0    0
SMALL
NO_CHARGES


@<TRIPOS>ATOM
   1 C1            -0.0173     1.3319     0.1141 C.2     
   2 N2            -0.0005     0.0025     0.2069 N.2     
   3 C3             1.1327    -0.6707     0.2936 C.2     
   4 C4             2.3483     0.0114     0.2891 C.2     
   5 C5             2.3334     1.4188     0.1910 C.2     
   6 N6             1.1443     2.0531     0.1051 N.am    
   7 C7            -1.2507     2.0011     0.0182 C.2     
   8 C8            -1.2710     3.3607    -0.0770 C.2     
   9 C9            -0.0631     4.0721    -0.0778 C.2     
  10 C10            1.1135     3.4117     0.0094 C.2     
  11 O11            3.3765     2.0516     0.1843 O.2     
  12 C12            1.1113    -2.1740     0.3976 C.3     
  13 C13            0.4492    -2.5848     1.7143 C.3     
  14 N14            0.3523    -2.7304    -0.7251 N.pl3   
  15 N15           -1.0991    -4.1230    -3.0500 N.2     
  16 C16           -1.4156    -5.0571    -3.8991 C.2     
  17 N17           -0.6543    -6.1658    -3.6770 N.pl3   
  18 C18            0.1800    -5.8877    -2.6239 C.ar    
  19 N19            1.1220    -6.5595    -1.9701 N.ar    
  20 C20            1.7699    -6.0032    -0.9683 C.ar    
  21 N21            1.5252    -4.7705    -0.5631 N.ar    
  22 C22            0.6011    -4.0217    -1.1563 C.ar    
  23 C23           -0.1172    -4.5715    -2.2315 C.ar    
  24 C24            2.4054     4.1875     0.0008 C.3     
  25 C25            3.6291    -0.7261     0.3859 C.ar    
  26 C26            4.5278    -0.7096    -0.6799 C.ar    
  27 C27            5.7236    -1.4008    -0.5825 C.ar    
  28 C28            6.0253    -2.1078     0.5740 C.ar    
  29 C29            5.1347    -2.1252     1.6311 C.ar    
  30 C30            3.9426    -1.4346     1.5459 C.ar    
  31 O31            6.6022    -1.3876    -1.6193 O.3     
  32 C32            7.8162    -2.1223    -1.4503 C.3     
  33 H33           -2.1747     1.4419     0.0195 H       
  34 H34           -2.2115     3.8864    -0.1516 H       
  35 H35           -0.0723     5.1494    -0.1529 H       
  36 H36            2.1323    -2.5547     0.3701 H       
  37 H37            0.4337    -3.6720     1.7895 H       
  38 H38            1.0139    -2.1708     2.5496 H       
  39 H39           -0.5718    -2.2041     1.7418 H       
  40 H40           -0.3248    -2.1938    -1.1662 H       
  41 H41           -2.1707    -4.9673    -4.6661 H       
  42 H42           -0.6951    -6.9987    -4.1725 H       
  43 H43            2.5297    -6.5767    -0.4582 H       
  44 H44            3.0121     3.8734    -0.8485 H       
  45 H45            2.1892     5.2526    -0.0812 H       
  46 H46            2.9495     3.9974     0.9260 H       
  47 H47            4.2919    -0.1596    -1.5789 H       
  48 H48            6.9586    -2.6462     0.6476 H       
  49 H49            5.3742    -2.6773     2.5278 H       
  50 H50            3.2511    -1.4461     2.3754 H       
  51 H51            8.3650    -1.7255    -0.5962 H       
  52 H52            7.5838    -3.1729    -1.2766 H       
  53 H53            8.4256    -2.0287    -2.3491 H       
  54 C54           14.5971    12.2409     8.6964 C.2     
  55 C55           14.6175    10.7340     8.6882 C.3     
  56 O56           15.6351    12.8592     8.6899 O.2     
  57 O57           13.4256    12.8961     8.7056 O.3     
  58 F58           15.9426    10.2857     8.6731 F       
  59 F59           13.9753    10.2526     9.8341 F       
  60 F60           13.9535    10.2649     7.5496 F       
  61 H61           13.4631    13.8624     8.7106 H       
@<TRIPOS>BOND
   1    1    2 2
   2    1    6 1
   3    1    7 1
   4    2    3 1
   5    3    4 2
   6    3   12 1
   7    4    5 1
   8    4   25 1
   9    5    6 am
  10    5   11 2
  11    6   10 1
  12    7    8 2
  13    7   33 1
  14    8    9 1
  15    8   34 1
  16    9   10 2
  17    9   35 1
  18   10   24 1
  19   12   13 1
  20   12   14 1
  21   12   36 1
  22   13   37 1
  23   13   38 1
  24   13   39 1
  25   14   22 1
  26   14   40 1
  27   15   16 2
  28   15   23 1
  29   16   17 1
  30   16   41 1
  31   17   18 1
  32   17   42 1
  33   18   19 ar
  34   18   23 ar
  35   19   20 ar
  36   20   21 ar
  37   20   43 1
  38   21   22 ar
  39   22   23 ar
  40   24   44 1
  41   24   45 1
  42   24   46 1
  43   25   26 ar
  44   25   30 ar
  45   26   27 ar
  46   26   47 1
  47   27   28 ar
  48   27   31 1
  49   28   29 ar
  50   28   48 1
  51   29   30 ar
  52   29   49 1
  53   30   50 1
  54   31   32 1
  55   32   51 1
  56   32   52 1
  57   32   53 1
  58   54   55 1
  59   54   56 2
  60   54   57 1
  61   55   58 1
  62   55   59 1
  63   55   60 1
  64   57   61 1

#	End of record

