#	Name: ASD01120220
#	Creating user name:	WinNT
#	Creation time:	15. 06. 2019 18:59

#	Modifying user name:	WinNT
#	Modification time:	15. 06. 2019 18:59

#	Program:	/corina/corina34_cracker 3.40 0067  02.08.2006

@<TRIPOS>MOLECULE
ASD01120220
  45   48    0    0    0
SMALL
NO_CHARGES


@<TRIPOS>ATOM
   1 C1            -0.1510     0.6866     0.8003 C.ar    
   2 C2            -0.2729    -0.6948     0.7417 C.ar    
   3 C3            -1.5239    -1.2822     0.5762 C.ar    
   4 C4            -2.6582    -0.4759     0.4692 C.ar    
   5 C5            -2.5308     0.9182     0.5288 C.ar    
   6 C6            -1.2703     1.4933     0.7003 C.ar    
   7 O7            -3.9766    -0.7334     0.3069 O.3     
   8 C8            -4.6315     0.4401     0.2680 C.2     
   9 N9            -3.7859     1.4303     0.3986 N.2     
  10 N10           -5.9923     0.5797     0.1131 N.am    
  11 S11           -6.6866     2.0803     0.2057 S.o2    
  12 O12           -5.9274     2.9269    -0.6464 O.2     
  13 O13           -8.0865     1.8844     0.0599 O.2     
  14 C14           -6.4351     2.6710     1.8465 C.ar    
  15 C15           -7.0129     2.0102     2.9157 C.ar    
  16 C16           -6.8149     2.4738     4.2044 C.ar    
  17 C17           -6.0398     3.5966     4.4233 C.ar    
  18 C18           -5.4614     4.2573     3.3538 C.ar    
  19 C19           -5.6558     3.7913     2.0659 C.ar    
  20 Cl20          -7.9867     0.5997     2.6407 Cl      
  21 Cl21          -4.4876     5.6679     3.6288 Cl      
  22 O22            1.0757     1.2503     0.9625 O.3     
  23 C23            1.1322     2.6773     1.0149 C.3     
  24 C24           -2.5862    -3.4132     1.3138 C.ar    
  25 C25           -2.7030    -4.7855     1.2536 C.ar    
  26 C26           -1.8889    -5.5164     0.3960 C.ar    
  27 C27           -0.9554    -4.8656    -0.4026 C.ar    
  28 C28           -0.8359    -3.4934    -0.3462 C.ar    
  29 C29           -1.6510    -2.7584     0.5135 C.ar    
  30 N30           -2.0085    -6.9060     0.3369 N.pl3   
  31 H31            0.6065    -1.3164     0.8244 H       
  32 H32           -1.1683     2.5675     0.7467 H       
  33 H33           -6.5444    -0.2009    -0.0503 H       
  34 H34           -7.2666     1.9584     5.0391 H       
  35 H35           -5.8856     3.9586     5.4290 H       
  36 H36           -5.2041     4.3067     1.2312 H       
  37 H37            0.7405     3.0907     0.0855 H       
  38 H38            0.5328     3.0341     1.8524 H       
  39 H39            2.1664     2.9954     1.1467 H       
  40 H40           -3.2217    -2.8454     1.9773 H       
  41 H41           -3.4273    -5.2932     1.8733 H       
  42 H42           -0.3237    -5.4355    -1.0679 H       
  43 H43           -0.1101    -2.9883    -0.9663 H       
  44 H44           -2.6594    -7.3608     0.8940 H       
  45 H45           -1.4408    -7.4167    -0.2613 H       
@<TRIPOS>BOND
   1    1    2 ar
   2    1   22 1
   3    1    6 ar
   4    2    3 ar
   5    2   31 1
   6    3    4 ar
   7    3   29 1
   8    4    5 ar
   9    4    7 1
  10    5    6 ar
  11    5    9 1
  12    6   32 1
  13    7    8 1
  14    8    9 2
  15    8   10 1
  16   10   11 am
  17   10   33 1
  18   11   12 2
  19   11   13 2
  20   11   14 1
  21   14   15 ar
  22   14   19 ar
  23   15   16 ar
  24   15   20 1
  25   16   17 ar
  26   16   34 1
  27   17   18 ar
  28   17   35 1
  29   18   19 ar
  30   18   21 1
  31   19   36 1
  32   22   23 1
  33   23   37 1
  34   23   38 1
  35   23   39 1
  36   24   25 ar
  37   24   29 ar
  38   24   40 1
  39   25   26 ar
  40   25   41 1
  41   26   27 ar
  42   26   30 1
  43   27   28 ar
  44   27   42 1
  45   28   29 ar
  46   28   43 1
  47   30   44 1
  48   30   45 1

#	End of record

