#	Name: ASD02320039
#	Creating user name:	WinNT
#	Creation time:	15. 06. 2019 20:20

#	Modifying user name:	WinNT
#	Modification time:	15. 06. 2019 20:20

#	Program:	/corina/corina34_cracker 3.40 0067  02.08.2006

@<TRIPOS>MOLECULE
ASD02320039
  89   95    0    0    0
SMALL
NO_CHARGES


@<TRIPOS>ATOM
   1 C1             1.1763    -0.3976     1.3754 C.ar    
   2 C2             1.2145    -1.7834     1.2948 C.ar    
   3 C3             2.4127    -2.4499     1.1718 C.ar    
   4 C4             3.6069    -1.7251     1.1268 C.ar    
   5 C5             3.5635    -0.3143     1.2086 C.ar    
   6 C6             2.3399     0.3396     1.3332 C.ar    
   7 N7             4.8004    -2.3403     1.0074 N.2     
   8 C8             5.9201    -1.6654     0.9654 C.2     
   9 N9             5.9721    -0.3003     1.0379 N.am    
  10 C10            4.8348     0.4232     1.1593 C.2     
  11 C11            7.1887    -2.4128     0.8338 C.ar    
  12 C12            8.2119    -2.2232     1.7630 C.ar    
  13 C13            9.3989    -2.9259     1.6362 C.ar    
  14 C14            9.5711    -3.8168     0.5870 C.ar    
  15 C15            8.5562    -4.0081    -0.3397 C.ar    
  16 C16            7.3640    -3.3143    -0.2169 C.ar    
  17 N17           10.7452     2.1622    -2.0454 N.pl3   
  18 C18           11.8500     1.7175    -2.6878 C.2     
  19 N19           11.0260     3.2909    -1.4942 N.2     
  20 N20           12.2477     3.6117    -1.7372 N.2     
  21 C21           12.8067     2.6531    -2.4843 C.2     
  22 C22           14.2232     2.6208    -2.9976 C.3     
  23 N23           14.3052     3.3727    -4.2523 N.am    
  24 C24           14.6707     4.6907    -4.2323 C.2     
  25 C25           14.0242     2.7574    -5.4247 C.2     
  26 C26           14.1227     3.5603    -6.6524 C.ar    
  27 C27           14.5023     4.9168    -6.5346 C.ar    
  28 N28           14.7645     5.4222    -5.3127 N.2     
  29 C29           13.8542     3.0197    -7.9085 C.ar    
  30 C30           13.9627     3.8184    -9.0262 C.ar    
  31 C31           14.3362     5.1509    -8.9089 C.ar    
  32 C32           14.6030     5.7014    -7.6872 C.ar    
  33 C33           14.9735     5.3181    -2.9284 C.ar    
  34 C34           15.9338     4.7554    -2.0869 C.ar    
  35 C35           16.2124     5.3488    -0.8675 C.ar    
  36 C36           15.5371     6.5000    -0.4843 C.ar    
  37 C37           14.5850     7.0584    -1.3168 C.ar    
  38 C38           14.3040     6.4786    -2.5372 C.ar    
  39 O39           13.7026     1.5840    -5.4612 O.2     
  40 O40            4.8631     1.6383     1.2247 O.2     
  41 C41            7.2671     0.3826     0.9842 C.3     
  42 C42            7.6825     0.5743    -0.4758 C.3     
  43 C43            9.0349     1.2875    -0.5318 C.3     
  44 C44            9.4503     1.4792    -1.9918 C.3     
  45 O45           10.3964    -2.7419     2.5411 O.3     
  46 C46           10.1780    -3.1882     3.7884 C.2     
  47 O47            9.1009    -3.6481     4.0855 O.2     
  48 C48           11.2761    -3.1154     4.8179 C.3     
  49 O49            8.7303    -4.8818    -1.3661 O.3     
  50 S50            8.2877    -6.3034    -1.0507 S.o2    
  51 O51            8.7203    -7.1090    -2.1384 O.2     
  52 O52            8.6631    -6.5509     0.2973 O.2     
  53 O53            6.7661    -6.3191    -1.0829 O.3     
  54 Na54           5.9946    -6.2610    -2.9163 Du      
  55 O55           17.1470     4.8040    -0.0448 O.3     
  56 S56           18.5560     5.3327    -0.2726 S.o2    
  57 O57           19.4199     4.5251     0.5152 O.2     
  58 O58           18.7039     5.4881    -1.6773 O.2     
  59 O59           18.6139     6.7321     0.3230 O.3     
  60 Na60          18.6973     6.7627     2.3111 Du      
  61 H61            0.2259     0.1071     1.4674 H       
  62 H62            0.2928    -2.3452     1.3295 H       
  63 H63            2.4299    -3.5281     1.1108 H       
  64 H64            2.3032     1.4172     1.3956 H       
  65 H65            8.0788    -1.5292     2.5798 H       
  66 H66           10.4980    -4.3628     0.4909 H       
  67 H67            6.5744    -3.4640    -0.9384 H       
  68 H68           11.9487     0.8005    -3.2496 H       
  69 H69           14.8873     3.0714    -2.2600 H       
  70 H70           14.5227     1.5876    -3.1730 H       
  71 H71           13.5641     1.9839    -8.0051 H       
  72 H72           13.7558     3.4044   -10.0020 H       
  73 H73           14.4162     5.7612    -9.7964 H       
  74 H74           14.8924     6.7392    -7.6123 H       
  75 H75           16.4579     3.8596    -2.3857 H       
  76 H76           15.7561     6.9607     0.4676 H       
  77 H77           14.0626     7.9535    -1.0130 H       
  78 H78           13.5599     6.9176    -3.1854 H       
  79 H79            7.1852     1.3552     1.4694 H       
  80 H80            8.0164    -0.2185     1.4993 H       
  81 H81            7.7643    -0.3983    -0.9610 H       
  82 H82            6.9331     1.1754    -0.9908 H       
  83 H83            8.9531     2.2602    -0.0466 H       
  84 H84            9.7842     0.6865    -0.0167 H       
  85 H85            8.7009     2.0803    -2.5068 H       
  86 H86            9.5321     0.5066    -2.4770 H       
  87 H87           11.5741    -2.0764     4.9583 H       
  88 H88           10.9154    -3.5209     5.7631 H       
  89 H89           12.1330    -3.6962     4.4767 H       
@<TRIPOS>BOND
   1    1    2 ar
   2    1    6 ar
   3    1   61 1
   4    2    3 ar
   5    2   62 1
   6    3    4 ar
   7    3   63 1
   8    4    5 ar
   9    4    7 1
  10    5    6 ar
  11    5   10 1
  12    6   64 1
  13    7    8 2
  14    8    9 1
  15    8   11 1
  16    9   10 am
  17    9   41 1
  18   10   40 2
  19   11   12 ar
  20   11   16 ar
  21   12   13 ar
  22   12   65 1
  23   13   14 ar
  24   13   45 1
  25   14   15 ar
  26   14   66 1
  27   15   16 ar
  28   15   49 1
  29   16   67 1
  30   17   18 1
  31   17   19 1
  32   17   44 1
  33   18   21 2
  34   18   68 1
  35   19   20 2
  36   20   21 1
  37   21   22 1
  38   22   23 1
  39   22   69 1
  40   22   70 1
  41   23   24 1
  42   23   25 am
  43   24   33 1
  44   24   28 2
  45   25   26 1
  46   25   39 2
  47   26   27 ar
  48   26   29 ar
  49   27   28 1
  50   27   32 ar
  51   29   30 ar
  52   29   71 1
  53   30   31 ar
  54   30   72 1
  55   31   32 ar
  56   31   73 1
  57   32   74 1
  58   33   34 ar
  59   33   38 ar
  60   34   35 ar
  61   34   75 1
  62   35   36 ar
  63   35   55 1
  64   36   37 ar
  65   36   76 1
  66   37   38 ar
  67   37   77 1
  68   38   78 1
  69   41   42 1
  70   41   79 1
  71   41   80 1
  72   42   43 1
  73   42   81 1
  74   42   82 1
  75   43   44 1
  76   43   83 1
  77   43   84 1
  78   44   85 1
  79   44   86 1
  80   45   46 1
  81   46   47 2
  82   46   48 1
  83   48   87 1
  84   48   88 1
  85   48   89 1
  86   49   50 1
  87   50   51 2
  88   50   52 2
  89   50   53 1
  90   53   54 1
  91   55   56 1
  92   56   57 2
  93   56   58 2
  94   56   59 1
  95   59   60 1

#	End of record

