#	Name: ASD01410862
#	Creating user name:	WinNT
#	Creation time:	15. 06. 2019 19:18

#	Modifying user name:	WinNT
#	Modification time:	15. 06. 2019 19:18

#	Program:	/corina/corina34_cracker 3.40 0067  02.08.2006

@<TRIPOS>MOLECULE
ASD01410862
 125  132    0    0    0
SMALL
NO_CHARGES


@<TRIPOS>ATOM
   1 C1             0.7152     1.6361     0.9562 C.3     
   2 C2             0.3791     0.3706     1.7789 C.3     
   3 N3             0.2605     0.8554     3.1696 N.am    
   4 C4            -0.1365     2.2684     3.1366 C.3     
   5 C5            -0.1771     2.6986     1.6541 C.3     
   6 O6             2.0994     1.9715     1.0726 O.3     
   7 C7            -1.5010     2.4319     3.7552 C.2     
   8 O8            -2.0918     1.4639     4.1852 O.2     
   9 N9            -2.0646     3.6538     3.8307 N.am    
  10 C10            1.5579    -0.6076     1.7280 C.3     
  11 C11            1.1255    -1.2543     4.1521 C.3     
  12 C12            0.5187     0.1162     4.2616 C.2     
  13 O13            0.2574     0.5644     5.3578 O.2     
  14 C14            0.1893    -2.2705     4.8094 C.3     
  15 C15           -1.1017    -2.3757     3.9951 C.3     
  16 C16           -3.4370     3.7983     4.3226 C.3     
  17 C17           -4.5057     3.1810     3.4578 C.2     
  18 N18           -4.1885     2.6845     2.2457 N.am    
  19 O19           -5.6514     3.1311     3.8527 O.2     
  20 S20           -5.3806     2.1212     1.2438 S.o2    
  21 C21           -6.3693     3.5893     0.8467 C.3     
  22 C22           -3.6510     3.7716     5.8373 C.3     
  23 C23           -3.7883     5.0876     5.0676 C.3     
  24 C24           -7.6385     3.3832     0.0174 C.3     
  25 C25           -7.7436     3.7152     1.5073 C.3     
  26 O26           -4.6838     1.6632     0.0931 O.2     
  27 O27           -6.1250     1.2231     2.0552 O.2     
  28 C28           -4.9340     3.1208     6.3581 C.3     
  29 C29           -4.9022     3.0829     7.8873 C.3     
  30 C30            2.6369     2.7213     0.0787 C.ar    
  31 C31            4.0061     3.0762     0.0962 C.ar    
  32 C32            1.8694     3.1505    -0.9722 C.ar    
  33 C33            2.4490     3.9239    -1.9872 C.ar    
  34 N34            3.7290     4.2543    -1.9591 N.ar    
  35 C35            4.5278     3.8606    -0.9621 C.ar    
  36 C36            1.6102     4.3804    -3.1152 C.2     
  37 S37           -0.1076     4.0432    -3.3137 S.3     
  38 C38            5.8871     4.2188    -0.9432 C.ar    
  39 C39            6.6865     3.7994     0.0967 C.ar    
  40 C40            6.1613     3.0220     1.1329 C.ar    
  41 C41            4.8477     2.6653     1.1400 C.ar    
  42 Cl42           6.5539     5.1833    -2.2233 Cl      
  43 O43            8.0004     4.1447     0.1155 O.3     
  44 C44            8.7778     3.6795     1.2207 C.3     
  45 N45            2.0210     5.1014    -4.1192 N.2     
  46 C46            1.1335     5.4146    -5.0320 C.2     
  47 C47           -0.1064     4.9537    -4.8229 C.2     
  48 C48            1.4862     6.2436    -6.2400 C.3     
  49 C49            1.8108     5.3197    -7.4155 C.3     
  50 C50            0.3015     7.1393    -6.6074 C.3     
  51 C51           10.2210     4.1642     1.0691 C.3     
  52 N52           10.2571     5.6301     1.1583 N.3     
  53 C53           11.6405     6.1180     1.2552 C.3     
  54 C54           11.6351     7.6487     1.2857 C.3     
  55 O55           10.8256     8.0959     2.3766 O.3     
  56 C56            9.4716     7.6395     2.3137 C.3     
  57 C57            9.4552     6.1087     2.2936 C.3     
  58 N58            1.3369    -1.6322     2.7565 N.am    
  59 O59            1.4083    -3.2861     1.1123 O.3     
  60 C60            1.3943    -4.7067     0.8123 C.3     
  61 C61            0.0921    -5.3237     1.3265 C.3     
  62 C62            1.4918    -4.9093    -0.7011 C.3     
  63 C63            2.5841    -5.3839     1.4952 C.3     
  64 C64            1.3289    -2.9345     2.4095 C.2     
  65 O65            1.2501    -3.7914     3.2675 O.2     
  66 H66            0.4315     1.5107    -0.0887 H       
  67 H67           -0.5481    -0.0899     1.4378 H       
  68 H68            0.5928     2.8711     3.6777 H       
  69 H69            0.2440     3.6964     1.5308 H       
  70 H70           -1.1960     2.6590     1.2691 H       
  71 H71           -1.5616     4.4375     3.5593 H       
  72 H72            1.6065    -1.0760     0.7450 H       
  73 H73            2.4877    -0.0760     1.9306 H       
  74 H74            2.0832    -1.2631     4.6725 H       
  75 H75            0.6773    -3.2445     4.8443 H       
  76 H76           -0.0458    -1.9454     5.8229 H       
  77 H77           -1.6375    -1.4275     4.0393 H       
  78 H78           -0.8593    -2.6080     2.9581 H       
  79 H79           -1.7281    -3.1665     4.4078 H       
  80 H80           -3.2618     2.6571     1.9602 H       
  81 H81           -5.8039     4.5065     0.6819 H       
  82 H82           -2.7707     3.6465     6.4678 H       
  83 H83           -2.9983     5.8283     5.1921 H       
  84 H84           -4.7926     5.4893     4.9326 H       
  85 H85           -7.9081     4.1649    -0.6927 H       
  86 H86           -7.8793     2.3654    -0.2896 H       
  87 H87           -8.0537     2.9159     2.1804 H       
  88 H88           -8.0825     4.7154     1.7773 H       
  89 H89           -5.7957     3.7003     6.0269 H       
  90 H90           -5.0090     2.1046     5.9710 H       
  91 H91           -5.8162     2.6192     8.2584 H       
  92 H92           -4.0405     2.5034     8.2185 H       
  93 H93           -4.8272     4.0990     8.2745 H       
  94 H94            0.8215     2.8933    -1.0183 H       
  95 H95            6.8050     2.7032     1.9395 H       
  96 H96            4.4549     2.0644     1.9468 H       
  97 H97            8.3593     4.0689     2.1488 H       
  98 H98            8.7610     2.5898     1.2436 H       
  99 H99           -0.9585     5.1132    -5.4671 H       
 100 H100           2.3541     6.8634    -6.0146 H       
 101 H101           0.9430     4.6999    -7.6410 H       
 102 H102           2.0659     5.9193    -8.2893 H       
 103 H103           2.6549     4.6816    -7.1538 H       
 104 H104           0.0702     7.7976    -5.7700 H       
 105 H105           0.5566     7.7390    -7.4812 H       
 106 H106          -0.5664     6.5196    -6.8329 H       
 107 H107          10.8332     3.7367     1.8632 H       
 108 H108          10.6102     3.8494     0.1008 H       
 109 H109          12.0976     5.7374     2.1686 H       
 110 H110          12.2094     5.7732     0.3917 H       
 111 H111          12.6539     8.0138     1.4149 H       
 112 H112          11.2272     8.0300     0.3495 H       
 113 H113           8.9258     7.9979     3.1865 H       
 114 H114           9.0008     8.0205     1.4075 H       
 115 H115           8.4288     5.7571     2.1882 H       
 116 H116           9.8773     5.7280     3.2236 H       
 117 H117          -0.7556    -4.8412     0.8400 H       
 118 H118           0.0816    -6.3901     1.1013 H       
 119 H119           0.0226    -5.1794     2.4047 H       
 120 H120           2.4195    -4.4697    -1.0675 H       
 121 H121           1.4813    -5.9757    -0.9264 H       
 122 H122           0.6442    -4.4268    -1.1877 H       
 123 H123           2.5146    -5.2396     2.5734 H       
 124 H124           2.5736    -6.4503     1.2700 H       
 125 H125           3.5118    -4.9443     1.1289 H       
@<TRIPOS>BOND
   1    1    2 1
   2    1    6 1
   3    1    5 1
   4    1   66 1
   5    2    3 1
   6    2   10 1
   7    2   67 1
   8    3    4 1
   9    3   12 am
  10    4    5 1
  11    4    7 1
  12    4   68 1
  13    5   69 1
  14    5   70 1
  15    6   30 1
  16    7    8 2
  17    7    9 am
  18    9   16 1
  19    9   71 1
  20   10   58 1
  21   10   72 1
  22   10   73 1
  23   11   12 1
  24   11   14 1
  25   11   58 1
  26   11   74 1
  27   12   13 2
  28   14   15 1
  29   14   75 1
  30   14   76 1
  31   15   77 1
  32   15   78 1
  33   15   79 1
  34   16   17 1
  35   16   22 1
  36   16   23 1
  37   17   18 am
  38   17   19 2
  39   18   20 am
  40   18   80 1
  41   20   21 1
  42   20   26 2
  43   20   27 2
  44   21   24 1
  45   21   25 1
  46   21   81 1
  47   22   23 1
  48   22   28 1
  49   22   82 1
  50   23   83 1
  51   23   84 1
  52   24   25 1
  53   24   85 1
  54   24   86 1
  55   25   87 1
  56   25   88 1
  57   28   29 1
  58   28   89 1
  59   28   90 1
  60   29   91 1
  61   29   92 1
  62   29   93 1
  63   30   31 ar
  64   30   32 ar
  65   31   35 ar
  66   31   41 ar
  67   32   33 ar
  68   32   94 1
  69   33   34 ar
  70   33   36 1
  71   34   35 ar
  72   35   38 ar
  73   36   45 2
  74   36   37 1
  75   37   47 1
  76   38   39 ar
  77   38   42 1
  78   39   40 ar
  79   39   43 1
  80   40   41 ar
  81   40   95 1
  82   41   96 1
  83   43   44 1
  84   44   51 1
  85   44   97 1
  86   44   98 1
  87   45   46 1
  88   46   47 2
  89   46   48 1
  90   47   99 1
  91   48   49 1
  92   48   50 1
  93   48  100 1
  94   49  101 1
  95   49  102 1
  96   49  103 1
  97   50  104 1
  98   50  105 1
  99   50  106 1
 100   51   52 1
 101   51  107 1
 102   51  108 1
 103   52   53 1
 104   52   57 1
 105   53   54 1
 106   53  109 1
 107   53  110 1
 108   54   55 1
 109   54  111 1
 110   54  112 1
 111   55   56 1
 112   56   57 1
 113   56  113 1
 114   56  114 1
 115   57  115 1
 116   57  116 1
 117   58   64 am
 118   59   60 1
 119   59   64 1
 120   60   61 1
 121   60   62 1
 122   60   63 1
 123   61  117 1
 124   61  118 1
 125   61  119 1
 126   62  120 1
 127   62  121 1
 128   62  122 1
 129   63  123 1
 130   63  124 1
 131   63  125 1
 132   64   65 2

#	End of record

