#	Name: ASD05842014
#	Creating user name:	WinNT
#	Creation time:	15. 06. 2019 21:03

#	Modifying user name:	WinNT
#	Modification time:	15. 06. 2019 21:03

#	Program:	/corina/corina34_cracker 3.40 0067  02.08.2006

@<TRIPOS>MOLECULE
ASD05842014
  50   53    0    0    0
SMALL
NO_CHARGES


@<TRIPOS>ATOM
   1 C1            -0.0167     1.3779     0.0096 C.ar    
   2 C2             0.0021    -0.0041     0.0020 C.ar    
   3 C3            -1.1857    -0.7116     0.0095 C.ar    
   4 C4            -2.3919    -0.0369     0.0251 C.ar    
   5 C5            -2.4106     1.3455     0.0336 C.ar    
   6 C6            -1.2232     2.0528     0.0305 C.ar    
   7 C7             1.2780     2.1491     0.0014 C.3     
   8 N8             1.6855     2.4071    -1.3862 N.3     
   9 C9             2.9467     3.1588    -1.4334 C.3     
  10 C10            3.3378     3.4078    -2.8915 C.3     
  11 C11            4.6316     4.1789    -2.9399 C.ar    
  12 C12            5.8376     3.5041    -2.9735 C.ar    
  13 C13            7.0244     4.2114    -3.0178 C.ar    
  14 C14            7.0053     5.5936    -3.0291 C.ar    
  15 C15            5.7993     6.2684    -2.9964 C.ar    
  16 C16            4.6123     5.5610    -2.9564 C.ar    
  17 N17           -5.1311     2.0779     3.4533 N.pl3   
  18 C18           -4.9786     1.5483     2.2009 C.2     
  19 C19           -4.1512     2.3178     1.4763 C.2     
  20 C20           -3.7401     3.4312     2.3349 C.ar    
  21 C21           -2.9068     4.5375     2.1573 C.ar    
  22 C22           -2.7234     5.4202     3.1838 C.ar    
  23 C23           -3.3591     5.2264     4.4027 C.ar    
  24 C24           -4.1850     4.1418     4.5997 C.ar    
  25 C25           -4.3865     3.2303     3.5680 C.ar    
  26 C26           -3.7258     2.0812     0.0501 C.3     
  27 H27            0.9446    -0.5313    -0.0101 H       
  28 H28           -1.1711    -1.7915     0.0029 H       
  29 H29           -3.3198    -0.5895     0.0302 H       
  30 H30           -1.2378     3.1327     0.0372 H       
  31 H31            1.1397     3.0969     0.5217 H       
  32 H32            2.0505     1.5677     0.5048 H       
  33 H33            1.7578     1.5464    -1.9078 H       
  34 H34            2.8200     4.1136    -0.9231 H       
  35 H35            3.7307     2.5844    -0.9400 H       
  36 H36            3.4645     2.4530    -3.4018 H       
  37 H37            2.5538     3.9822    -3.3849 H       
  38 H38            5.8526     2.4242    -2.9647 H       
  39 H39            7.9667     3.6842    -3.0433 H       
  40 H40            7.9326     6.1462    -3.0630 H       
  41 H41            5.7843     7.3483    -3.0049 H       
  42 H42            3.6701     6.0883    -2.9309 H       
  43 H43           -5.6845     1.6999     4.1546 H       
  44 H44           -5.4534     0.6448     1.8478 H       
  45 H45           -2.4087     4.6945     1.2119 H       
  46 H46           -2.0785     6.2755     3.0460 H       
  47 H47           -3.2042     5.9330     5.2047 H       
  48 H48           -4.6748     3.9995     5.5517 H       
  49 H49           -3.6131     3.0384    -0.4590 H       
  50 H50           -4.4820     1.4849    -0.4605 H       
@<TRIPOS>BOND
   1    1    2 ar
   2    1    7 1
   3    1    6 ar
   4    2    3 ar
   5    2   27 1
   6    3    4 ar
   7    3   28 1
   8    4    5 ar
   9    4   29 1
  10    5    6 ar
  11    5   26 1
  12    6   30 1
  13    7    8 1
  14    7   31 1
  15    7   32 1
  16    8    9 1
  17    8   33 1
  18    9   10 1
  19    9   34 1
  20    9   35 1
  21   10   11 1
  22   10   36 1
  23   10   37 1
  24   11   12 ar
  25   11   16 ar
  26   12   13 ar
  27   12   38 1
  28   13   14 ar
  29   13   39 1
  30   14   15 ar
  31   14   40 1
  32   15   16 ar
  33   15   41 1
  34   16   42 1
  35   17   18 1
  36   17   25 1
  37   17   43 1
  38   18   19 2
  39   18   44 1
  40   19   20 1
  41   19   26 1
  42   20   21 ar
  43   20   25 ar
  44   21   22 ar
  45   21   45 1
  46   22   23 ar
  47   22   46 1
  48   23   24 ar
  49   23   47 1
  50   24   25 ar
  51   24   48 1
  52   26   49 1
  53   26   50 1

#	End of record

