#	Name: ASD08710003
#	Creating user name:	WinNT
#	Creation time:	15. 06. 2019 21:19

#	Modifying user name:	WinNT
#	Modification time:	15. 06. 2019 21:19

#	Program:	/corina/corina34_cracker 3.40 0067  02.08.2006

@<TRIPOS>MOLECULE
ASD08710003
  47   48    0    0    0
SMALL
NO_CHARGES


@<TRIPOS>ATOM
   1 C1            -0.6379     1.6557     0.8212 C.ar    
   2 C2            -0.4045     0.3163     0.5724 C.ar    
   3 C3             0.4263     2.5203     1.0060 C.ar    
   4 C4             1.7235     2.0436     0.9417 C.ar    
   5 C5             1.9555     0.7040     0.6928 C.ar    
   6 C6             0.8918    -0.1595     0.5082 C.ar    
   7 S7             1.1885    -1.8672     0.1916 S.o2    
   8 O8             0.0352    -2.3573    -0.4785 O.2     
   9 O9             2.4985    -1.9528    -0.3523 O.2     
  10 N10            1.2396    -2.6359     1.6575 N.am    
  11 C11            0.0011    -3.0755     2.3151 C.3     
  12 C12            2.5248    -2.8961     2.3212 C.3     
  13 C13            2.6282    -4.3973     2.6177 C.3     
  14 N14            1.3892    -4.8319     3.2780 N.am    
  15 C15            0.1098    -4.5764     2.6116 C.3     
  16 Cl16           0.1340     4.2029     1.3180 Cl      
  17 C17           -1.1903    -2.8199     1.3898 C.3     
  18 C18            1.4309    -5.4584     4.4706 C.2     
  19 O19            0.3999    -5.8131     5.0069 O.2     
  20 O20            2.6150    -5.6910     5.0677 O.3     
  21 C21            2.5840    -6.3702     6.3507 C.3     
  22 C22            1.9302    -7.7435     6.1851 C.3     
  23 C23            4.0126    -6.5448     6.8700 C.3     
  24 C24            1.7766    -5.5380     7.3490 C.3     
  25 H25           -1.6506     2.0282     0.8669 H       
  26 H26           -1.2352    -0.3587     0.4284 H       
  27 H27            2.5546     2.7181     1.0855 H       
  28 H28            2.9681     0.3317     0.6426 H       
  29 H29           -0.1341    -2.5250     3.2461 H       
  30 H30            3.3424    -2.5954     1.6660 H       
  31 H31            2.5750    -2.3346     3.2541 H       
  32 H32            2.7577    -4.9463     1.6850 H       
  33 H33            3.4776    -4.5827     3.2752 H       
  34 H34           -0.7094    -4.8756     3.2655 H       
  35 H35            0.0629    -5.1412     1.6806 H       
  36 H36           -1.1307    -3.4853     0.5285 H       
  37 H37           -2.1176    -3.0082     1.9309 H       
  38 H38           -1.1713    -1.7842     1.0507 H       
  39 H39            2.5054    -8.3364     5.4740 H       
  40 H40            1.9069    -8.2534     7.1483 H       
  41 H41            0.9124    -7.6192     5.8152 H       
  42 H42            4.4784    -5.5664     6.9880 H       
  43 H43            3.9893    -7.0546     7.8331 H       
  44 H44            4.5878    -7.1376     6.1588 H       
  45 H45            0.7589    -5.4136     6.9790 H       
  46 H46            1.7534    -6.0478     8.3121 H       
  47 H47            2.2424    -4.5596     7.4669 H       
@<TRIPOS>BOND
   1    1    2 ar
   2    1    3 ar
   3    1   25 1
   4    2    6 ar
   5    2   26 1
   6    3    4 ar
   7    3   16 1
   8    4    5 ar
   9    4   27 1
  10    5    6 ar
  11    5   28 1
  12    6    7 1
  13    7    8 2
  14    7    9 2
  15    7   10 am
  16   10   11 1
  17   10   12 1
  18   11   17 1
  19   11   15 1
  20   11   29 1
  21   12   13 1
  22   12   30 1
  23   12   31 1
  24   13   14 1
  25   13   32 1
  26   13   33 1
  27   14   15 1
  28   14   18 am
  29   15   34 1
  30   15   35 1
  31   17   36 1
  32   17   37 1
  33   17   38 1
  34   18   19 2
  35   18   20 1
  36   20   21 1
  37   21   22 1
  38   21   23 1
  39   21   24 1
  40   22   39 1
  41   22   40 1
  42   22   41 1
  43   23   42 1
  44   23   43 1
  45   23   44 1
  46   24   45 1
  47   24   46 1
  48   24   47 1

#	End of record

