#	Name: ASD01410498
#	Creating user name:	WinNT
#	Creation time:	15. 06. 2019 19:17

#	Modifying user name:	WinNT
#	Modification time:	15. 06. 2019 19:17

#	Program:	/corina/corina34_cracker 3.40 0067  02.08.2006

@<TRIPOS>MOLECULE
ASD01410498
  74   76    0    0    0
SMALL
NO_CHARGES


@<TRIPOS>ATOM
   1 C1             0.4988     2.4424    -0.8187 C.ar    
   2 C2             0.6341     1.9576     0.4747 C.ar    
   3 C3             1.7946     1.2997     0.8318 C.ar    
   4 N4             2.7703     1.1285    -0.0394 N.ar    
   5 C5             2.6787     1.5760    -1.2811 C.ar    
   6 C6             1.5403     2.2468    -1.7093 C.ar    
   7 O7             3.7064     1.3779    -2.1442 O.3     
   8 C8             4.8420     0.8048    -1.6639 C.ar    
   9 C9             4.8283    -0.5237    -1.2561 C.ar    
  10 C10            5.9754    -1.1152    -0.7670 C.ar    
  11 C11            7.1526    -0.3852    -0.6785 C.ar    
  12 C12            7.1730     0.9566    -1.0886 C.ar    
  13 C13            6.0082     1.5443    -1.5879 C.ar    
  14 N14            8.3106    -0.9830    -0.1835 N.am    
  15 C15            9.1319    -1.6529    -1.0161 C.2     
  16 C16            8.6349    -0.8829     1.2416 C.3     
  17 O17           10.1058    -2.2261    -0.5758 O.2     
  18 C18            8.8400    -1.6899    -2.4941 C.3     
  19 C19            9.6178    -2.8389    -3.1390 C.3     
  20 C20           11.1170    -2.6259    -2.9204 C.3     
  21 C21           11.5422    -1.3014    -3.5574 C.3     
  22 C22           10.7645    -0.1524    -2.9125 C.3     
  23 C23            9.2652    -0.3654    -3.1312 C.3     
  24 C24           -0.4735     2.1476     1.4789 C.3     
  25 C25           -1.6989     1.4972     0.9868 C.1     
  26 C26            8.5907    -2.2755     1.8737 C.3     
  27 C27           10.0370    -0.2927     1.4054 C.3     
  28 C28            7.0813    -4.0366     2.4782 C.3     
  29 O29            7.2567    -2.7841     1.8130 O.3     
  30 N30           -2.6445     0.9952     0.6070 N.1     
  31 C31           13.0414    -1.0884    -3.3388 C.3     
  32 C32           -0.0646     1.5216     2.8137 C.3     
  33 C33           -0.7332     3.6426     1.6750 C.3     
  34 C34            8.4181     1.7402    -0.9980 C.2     
  35 O35            9.4540     1.1986    -0.6662 O.2     
  36 O36            8.4077     3.0572    -1.2830 O.3     
  37 C37            1.4403     2.7548    -3.1246 C.3     
  38 F38            0.2069     3.3895    -3.3062 F       
  39 F39            2.4738     3.6660    -3.3670 F       
  40 F40            1.5474     1.6805    -4.0143 F       
  41 H41           -0.4003     2.9565    -1.1247 H       
  42 H42            1.9049     0.9209     1.8372 H       
  43 H43            3.9150    -1.0963    -1.3221 H       
  44 H44            5.9569    -2.1481    -0.4521 H       
  45 H45            6.0161     2.5765    -1.9055 H       
  46 H46            7.9088    -0.2368     1.7350 H       
  47 H47            7.7719    -1.8416    -2.6498 H       
  48 H48            9.3148    -3.7824    -2.6851 H       
  49 H49            9.4066    -2.8656    -4.2080 H       
  50 H50           11.3281    -2.5991    -1.8513 H       
  51 H51           11.6711    -3.4444    -3.3798 H       
  52 H52           11.3311    -1.3281    -4.6265 H       
  53 H53           10.9756    -0.1257    -1.8435 H       
  54 H54           11.0674     0.7912    -3.3664 H       
  55 H55            9.0541    -0.3921    -4.2002 H       
  56 H56            8.7111     0.4532    -2.6717 H       
  57 H57            9.2591    -2.9429     1.3296 H       
  58 H58            8.9085    -2.2124     2.9145 H       
  59 H59           10.0216     0.7620     1.1308 H       
  60 H60           10.3546    -0.3933     2.4432 H       
  61 H61           10.7336    -0.8263     0.7589 H       
  62 H62            7.6643    -4.8035     1.9682 H       
  63 H63            7.4192    -3.9500     3.5109 H       
  64 H64            6.0267    -4.3116     2.4628 H       
  65 H65           13.5955    -1.9069    -3.7982 H       
  66 H66           13.3443    -0.1448    -3.7927 H       
  67 H67           13.2525    -1.0617    -2.2698 H       
  68 H68            0.8428     2.0032     3.1781 H       
  69 H69           -0.8657     1.6590     3.5400 H       
  70 H70            0.1204     0.4565     2.6740 H       
  71 H71           -1.0245     4.0886     0.7240 H       
  72 H72           -1.5342     3.7800     2.4013 H       
  73 H73            0.1742     4.1242     2.0394 H       
  74 H74            9.2486     3.5290    -1.2095 H       
@<TRIPOS>BOND
   1    1    2 ar
   2    1    6 ar
   3    1   41 1
   4    2    3 ar
   5    2   24 1
   6    3    4 ar
   7    3   42 1
   8    4    5 ar
   9    5    6 ar
  10    5    7 1
  11    6   37 1
  12    7    8 1
  13    8    9 ar
  14    8   13 ar
  15    9   10 ar
  16    9   43 1
  17   10   11 ar
  18   10   44 1
  19   11   12 ar
  20   11   14 1
  21   12   13 ar
  22   12   34 1
  23   13   45 1
  24   14   15 am
  25   14   16 1
  26   15   17 2
  27   15   18 1
  28   16   27 1
  29   16   26 1
  30   16   46 1
  31   18   19 1
  32   18   23 1
  33   18   47 1
  34   19   20 1
  35   19   48 1
  36   19   49 1
  37   20   21 1
  38   20   50 1
  39   20   51 1
  40   21   22 1
  41   21   31 1
  42   21   52 1
  43   22   23 1
  44   22   53 1
  45   22   54 1
  46   23   55 1
  47   23   56 1
  48   24   25 1
  49   24   32 1
  50   24   33 1
  51   25   30 3
  52   26   29 1
  53   26   57 1
  54   26   58 1
  55   27   59 1
  56   27   60 1
  57   27   61 1
  58   28   29 1
  59   28   62 1
  60   28   63 1
  61   28   64 1
  62   31   65 1
  63   31   66 1
  64   31   67 1
  65   32   68 1
  66   32   69 1
  67   32   70 1
  68   33   71 1
  69   33   72 1
  70   33   73 1
  71   34   35 2
  72   34   36 1
  73   36   74 1
  74   37   38 1
  75   37   39 1
  76   37   40 1

#	End of record

