#	Name: ASD02500893
#	Creating user name:	WinNT
#	Creation time:	15. 06. 2019 20:23

#	Modifying user name:	WinNT
#	Modification time:	15. 06. 2019 20:23

#	Program:	/corina/corina34_cracker 3.40 0067  02.08.2006

@<TRIPOS>MOLECULE
ASD02500893
  41   43    0    0    0
SMALL
NO_CHARGES


@<TRIPOS>ATOM
   1 C1            -0.0186     1.2939    -1.1708 C.ar    
   2 C2            -0.0253    -0.0894    -1.1824 C.ar    
   3 C3            -1.1912    -0.7776    -0.9028 C.ar    
   4 C4            -2.3505    -0.0843    -0.6112 C.ar    
   5 C5            -2.3450     1.2995    -0.5988 C.ar    
   6 C6            -1.1777     1.9885    -0.8738 C.ar    
   7 Cl7           -3.8014     2.1703    -0.2325 Cl      
   8 C8            -3.6212    -0.8353    -0.3070 C.3     
   9 O9            -3.3735    -2.2406    -0.3822 O.3     
  10 C10           -5.6680    -2.5323     0.1775 C.ar    
  11 C11           -6.7417    -3.3662     0.4320 C.ar    
  12 C12           -6.5855    -4.7354     0.3796 C.ar    
  13 C13           -5.3366    -5.2842     0.0680 C.ar    
  14 C14           -4.2526    -4.4382    -0.1889 C.ar    
  15 C15           -4.4237    -3.0665    -0.1329 C.ar    
  16 C16           -5.1644    -6.7431     0.0113 C.2     
  17 C17           -4.1237    -7.2768    -0.6751 C.2     
  18 C18           -3.6978    -8.6824    -0.7226 C.2     
  19 N19           -2.6404    -8.9185    -1.4813 N.am    
  20 C20           -2.0531    -7.9053    -2.1280 C.2     
  21 S21           -2.9669    -6.4400    -1.7294 S.3     
  22 S22           -0.6839    -8.0060    -3.1508 S.2     
  23 O23           -4.2738    -9.5621    -0.1103 O.2     
  24 C24           -2.1156   -10.2800    -1.6121 C.3     
  25 C25           -2.7861   -10.9674    -2.7736 C.2     
  26 O26           -3.6170   -10.3802    -3.4253 O.2     
  27 O27           -2.4602   -12.2319    -3.0842 O.3     
  28 Cl28           1.4455     2.1580    -1.5219 Cl      
  29 H29            0.8804    -0.6318    -1.4103 H       
  30 H30           -1.1961    -1.8576    -0.9127 H       
  31 H31           -1.1729     3.0685    -0.8643 H       
  32 H32           -3.9630    -0.5797     0.6960 H       
  33 H33           -4.3873    -0.5620    -1.0326 H       
  34 H34           -5.7986    -1.4609     0.2159 H       
  35 H35           -7.7059    -2.9435     0.6730 H       
  36 H36           -7.4260    -5.3834     0.5793 H       
  37 H37           -3.2856    -4.8544    -0.4298 H       
  38 H38           -5.8666    -7.3897     0.5163 H       
  39 H39           -1.0402   -10.2399    -1.7852 H       
  40 H40           -2.3157   -10.8361    -0.6962 H       
  41 H41           -2.9170   -12.6306    -3.8375 H       
@<TRIPOS>BOND
   1    1    2 ar
   2    1   28 1
   3    1    6 ar
   4    2    3 ar
   5    2   29 1
   6    3    4 ar
   7    3   30 1
   8    4    5 ar
   9    4    8 1
  10    5    6 ar
  11    5    7 1
  12    6   31 1
  13    8    9 1
  14    8   32 1
  15    8   33 1
  16    9   15 1
  17   10   11 ar
  18   10   15 ar
  19   10   34 1
  20   11   12 ar
  21   11   35 1
  22   12   13 ar
  23   12   36 1
  24   13   14 ar
  25   13   16 1
  26   14   15 ar
  27   14   37 1
  28   16   17 2
  29   16   38 1
  30   17   18 1
  31   17   21 1
  32   18   19 am
  33   18   23 2
  34   19   20 am
  35   19   24 1
  36   20   21 1
  37   20   22 2
  38   24   25 1
  39   24   39 1
  40   24   40 1
  41   25   26 2
  42   25   27 1
  43   27   41 1

#	End of record

