#	Name: ASD00170218
#	Creating user name:	WinNT
#	Creation time:	15. 06. 2019 18:31

#	Modifying user name:	WinNT
#	Modification time:	15. 06. 2019 18:31

#	Program:	/corina/corina34_cracker 3.40 0067  02.08.2006

@<TRIPOS>MOLECULE
ASD00170218
  42   44    0    0    0
SMALL
NO_CHARGES


@<TRIPOS>ATOM
   1 C1             0.0558     1.2396    -0.0640 C.2     
   2 C2            -0.0780    -0.1129     0.0410 C.2     
   3 C3            -1.4664    -0.5259     0.1181 C.2     
   4 C4            -2.3427     0.5302     0.0689 C.2     
   5 S5            -1.5181     2.0146    -0.0614 S.3     
   6 C6             1.0641    -1.0537     0.0721 C.ar    
   7 C7             1.3411    -1.7812     1.2298 C.ar    
   8 C8             2.4075    -2.6567     1.2523 C.ar    
   9 C9             3.2010    -2.8137     0.1302 C.ar    
  10 C10            2.9318    -2.0947    -1.0211 C.ar    
  11 C11            1.8650    -1.2210    -1.0584 C.ar    
  12 N12           -3.7143     0.4053     0.1236 N.pl3   
  13 C13           -1.8887    -1.9208     0.2355 C.2     
  14 O14           -2.1226    -2.6505    -0.8749 O.3     
  15 O15           -2.0293    -2.4234     1.3345 O.2     
  16 C16            1.3428     1.9517    -0.1599 C.ar    
  17 C17           -2.5322    -4.0064    -0.6858 C.3     
  18 C18           -2.7483    -4.6685    -2.0481 C.3     
  19 C19            1.5488     2.9409    -1.1322 C.ar    
  20 C20            2.7680     3.5809    -1.1854 C.ar    
  21 N21            3.7328     3.2740    -0.3381 N.ar    
  22 C22            3.5817     2.3496     0.5923 C.ar    
  23 C23            2.3939     1.6632     0.7222 C.ar    
  24 C24            2.7085    -3.4430     2.5022 C.3     
  25 F25            2.0137    -4.6568     2.4681 F       
  26 F26            4.0828    -3.6942     2.5754 F       
  27 F27            2.3084    -2.7079     3.6233 F       
  28 H28            0.7225    -1.6592     2.1066 H       
  29 H29            4.0345    -3.5002     0.1528 H       
  30 H30            3.5553    -2.2215    -1.8938 H       
  31 H31            1.6557    -0.6606    -1.9577 H       
  32 H32           -4.1186    -0.4730     0.2021 H       
  33 H33           -4.2753     1.1956     0.0836 H       
  34 H34           -1.7600    -4.5462    -0.1379 H       
  35 H35           -3.4630    -4.0290    -0.1191 H       
  36 H36           -3.5206    -4.1287    -2.5961 H       
  37 H37           -1.8176    -4.6459    -2.6149 H       
  38 H38           -3.0608    -5.7028    -1.9039 H       
  39 H39            0.7642     3.1969    -1.8288 H       
  40 H40            2.9367     4.3440    -1.9308 H       
  41 H41            4.3988     2.1316     1.2640 H       
  42 H42            2.2773     0.9086     1.4860 H       
@<TRIPOS>BOND
   1    1    2 2
   2    1   16 1
   3    1    5 1
   4    2    3 1
   5    2    6 1
   6    3    4 2
   7    3   13 1
   8    4    5 1
   9    4   12 1
  10    6    7 ar
  11    6   11 ar
  12    7    8 ar
  13    7   28 1
  14    8    9 ar
  15    8   24 1
  16    9   10 ar
  17    9   29 1
  18   10   11 ar
  19   10   30 1
  20   11   31 1
  21   12   32 1
  22   12   33 1
  23   13   14 1
  24   13   15 2
  25   14   17 1
  26   16   19 ar
  27   16   23 ar
  28   17   18 1
  29   17   34 1
  30   17   35 1
  31   18   36 1
  32   18   37 1
  33   18   38 1
  34   19   20 ar
  35   19   39 1
  36   20   21 ar
  37   20   40 1
  38   21   22 ar
  39   22   23 ar
  40   22   41 1
  41   23   42 1
  42   24   25 1
  43   24   26 1
  44   24   27 1

#	End of record

