#	Name: ASD03091021
#	Creating user name:	WinNT
#	Creation time:	15. 06. 2019 20:29

#	Modifying user name:	WinNT
#	Modification time:	15. 06. 2019 20:29

#	Program:	/corina/corina34_cracker 3.40 0067  02.08.2006

@<TRIPOS>MOLECULE
ASD03091021
  47   50    0    0    0
SMALL
NO_CHARGES


@<TRIPOS>ATOM
   1 C1             0.0566     1.8196     0.0737 C.3     
   2 S2             0.0556     0.0058     0.0462 S.o2    
   3 O3             0.9023    -0.5088     1.0649 O.2     
   4 O4            -1.2647    -0.4895    -0.1286 O.2     
   5 O5             0.7666    -0.3548    -1.2503 O.3     
   6 C6             2.1834    -0.1740    -1.2060 C.3     
   7 S7             2.8022    -2.1690    -3.2747 S.3     
   8 C8             3.6418    -1.6689    -4.6926 C.2     
   9 N9             3.8608    -0.3382    -4.5422 N.pl3   
  10 C10            3.4004     0.2364    -3.3968 C.2     
  11 C11            2.7807    -0.5589    -2.5349 C.2     
  12 N12            4.0019    -2.4304    -5.7231 N.2     
  13 C13            3.7117    -3.7346    -5.7235 C.2     
  14 O14            3.1172    -4.2270    -4.7803 O.2     
  15 N15            4.0764    -4.5057    -6.7670 N.am    
  16 C16            3.8220    -5.9479    -6.8968 C.3     
  17 C17            4.4391    -6.4033    -8.2360 C.3     
  18 C18            5.4995    -5.3070    -8.5206 C.3     
  19 C19            4.7909    -4.0415    -7.9701 C.3     
  20 O20            6.4450     2.8237    -8.2568 O.3     
  21 C21            6.5844     3.9964    -7.4331 C.3     
  22 O22            5.5189     3.8689    -6.4731 O.3     
  23 C23            5.2876     2.5283    -6.3610 C.ar    
  24 C24            5.8570     1.8849    -7.4579 C.ar    
  25 C25            4.6255     1.7898    -5.3951 C.ar    
  26 C26            4.5304     0.4103    -5.5206 C.ar    
  27 C27            5.0987    -0.2278    -6.6144 C.ar    
  28 C28            5.7595     0.5085    -7.5794 C.ar    
  29 F29            7.8271     4.0009    -6.7905 F       
  30 F30            6.4208     5.1565    -8.1978 F       
  31 H31            1.0842     2.1827     0.0585 H       
  32 H32           -0.4748     2.1965    -0.8002 H       
  33 H33           -0.4391     2.1695     0.9792 H       
  34 H34            2.4099     0.8711    -0.9949 H       
  35 H35            2.6056    -0.8028    -0.4221 H       
  36 H36            3.5338     1.2897    -3.1992 H       
  37 H37            4.2915    -6.4830    -6.0713 H       
  38 H38            2.7484    -6.1361    -6.9004 H       
  39 H39            4.9125    -7.3795    -8.1303 H       
  40 H40            3.6840    -6.4228    -9.0218 H       
  41 H41            6.4241    -5.5077    -7.9794 H       
  42 H42            5.6872    -5.2133    -9.5902 H       
  43 H43            4.0853    -3.6500    -8.7029 H       
  44 H44            5.5253    -3.2809    -7.7054 H       
  45 H45            4.1837     2.2865    -4.5439 H       
  46 H46            5.0247    -1.3009    -6.7113 H       
  47 H47            6.2009     0.0098    -8.4297 H       
@<TRIPOS>BOND
   1    1    2 1
   2    1   31 1
   3    1   32 1
   4    1   33 1
   5    2    3 2
   6    2    4 2
   7    2    5 1
   8    5    6 1
   9    6   11 1
  10    6   34 1
  11    6   35 1
  12    7    8 1
  13    7   11 1
  14    8    9 1
  15    8   12 2
  16    9   10 1
  17    9   26 1
  18   10   11 2
  19   10   36 1
  20   12   13 1
  21   13   14 2
  22   13   15 am
  23   15   16 1
  24   15   19 1
  25   16   17 1
  26   16   37 1
  27   16   38 1
  28   17   18 1
  29   17   39 1
  30   17   40 1
  31   18   19 1
  32   18   41 1
  33   18   42 1
  34   19   43 1
  35   19   44 1
  36   20   21 1
  37   20   24 1
  38   21   22 1
  39   21   29 1
  40   21   30 1
  41   22   23 1
  42   23   24 ar
  43   23   25 ar
  44   24   28 ar
  45   25   26 ar
  46   25   45 1
  47   26   27 ar
  48   27   28 ar
  49   27   46 1
  50   28   47 1

#	End of record

