#	Name: ASD00170714
#	Creating user name:	WinNT
#	Creation time:	15. 06. 2019 18:32

#	Modifying user name:	WinNT
#	Modification time:	15. 06. 2019 18:32

#	Program:	/corina/corina34_cracker 3.40 0067  02.08.2006

@<TRIPOS>MOLECULE
ASD00170714
  31   33    0    0    0
SMALL
NO_CHARGES


@<TRIPOS>ATOM
   1 C1            -0.0144     1.2134     0.0087 C.2     
   2 O2            -0.1247     0.0036     0.0913 O.2     
   3 C3             1.3282     1.8317    -0.0459 C.ar    
   4 C4             2.4018     1.2359     0.6180 C.ar    
   5 C5             3.6514     1.8177     0.5631 C.ar    
   6 C6             3.8417     2.9896    -0.1476 C.ar    
   7 C7             2.7815     3.5855    -0.8075 C.ar    
   8 C8             1.5283     3.0104    -0.7662 C.ar    
   9 C9            -2.4918     1.5554    -0.1268 C.2     
  10 C10           -1.2103     2.0553    -0.0426 C.2     
  11 C11           -1.1736     3.4980    -0.0094 C.2     
  12 C12           -2.3902     4.0537    -0.0673 C.2     
  13 S13           -3.6336     2.8198    -0.1652 S.3     
  14 C14           -3.1222     8.1449    -0.0204 C.ar    
  15 N15           -4.1436     7.3147    -0.0973 N.ar    
  16 C16           -3.9569     6.0066    -0.1152 C.ar    
  17 C17           -2.6505     5.5084    -0.0509 C.ar    
  18 C18           -1.5975     6.4271     0.0297 C.ar    
  19 N19           -1.8760     7.7189     0.0419 N.ar    
  20 N20           -2.8068     0.2148    -0.1790 N.pl3   
  21 H21            2.2544     0.3216     1.1737 H       
  22 H22            4.4829     1.3578     1.0764 H       
  23 H23            4.8219     3.4412    -0.1871 H       
  24 H24            2.9366     4.5005    -1.3600 H       
  25 H25            0.7027     3.4740    -1.2857 H       
  26 H26           -0.2596     4.0697     0.0556 H       
  27 H27           -3.3121     9.2081    -0.0127 H       
  28 H28           -4.7987     5.3329    -0.1779 H       
  29 H29           -0.5741     6.0858     0.0815 H       
  30 H30           -2.1012    -0.4505    -0.1570 H       
  31 H31           -3.7341    -0.0636    -0.2379 H       
@<TRIPOS>BOND
   1    1    2 2
   2    1    3 1
   3    1   10 1
   4    3    4 ar
   5    3    8 ar
   6    4    5 ar
   7    4   21 1
   8    5    6 ar
   9    5   22 1
  10    6    7 ar
  11    6   23 1
  12    7    8 ar
  13    7   24 1
  14    8   25 1
  15    9   10 2
  16    9   13 1
  17    9   20 1
  18   10   11 1
  19   11   12 2
  20   11   26 1
  21   12   13 1
  22   12   17 1
  23   14   15 ar
  24   14   19 ar
  25   14   27 1
  26   15   16 ar
  27   16   17 ar
  28   16   28 1
  29   17   18 ar
  30   18   19 ar
  31   18   29 1
  32   20   30 1
  33   20   31 1

#	End of record

