#	Name: ASD05842032
#	Creating user name:	WinNT
#	Creation time:	15. 06. 2019 21:04

#	Modifying user name:	WinNT
#	Modification time:	15. 06. 2019 21:04

#	Program:	/corina/corina34_cracker 3.40 0067  02.08.2006

@<TRIPOS>MOLECULE
ASD05842032
  57   59    0    0    0
SMALL
NO_CHARGES


@<TRIPOS>ATOM
   1 C1            -0.2780     1.8421     0.0612 C.ar    
   2 C2            -0.1315     0.5572     0.5494 C.ar    
   3 C3            -1.2431    -0.2445     0.7301 C.ar    
   4 C4            -2.5012     0.2390     0.4229 C.ar    
   5 C5            -2.6477     1.5242    -0.0645 C.ar    
   6 C6            -1.5366     2.3274    -0.2411 C.ar    
   7 C7             0.9338     2.7161    -0.1358 C.3     
   8 N8             1.3798     2.6273    -1.5327 N.3     
   9 C9             2.3350     3.6974    -1.8494 C.3     
  10 C10            1.6259     5.0513    -1.7790 C.3     
  11 C11            2.6058     6.1491    -2.1039 C.ar    
  12 C12            2.7705     6.5637    -3.4123 C.ar    
  13 C13            3.6694     7.5707    -3.7104 C.ar    
  14 C14            4.4034     8.1634    -2.6999 C.ar    
  15 C15            4.2380     7.7494    -1.3914 C.ar    
  16 C16            3.3359     6.7454    -1.0929 C.ar    
  17 N17           -0.6591    -0.8143    -5.3233 N.3     
  18 C18           -1.1352     0.4837    -5.8214 C.3     
  19 C19           -1.2033     0.4466    -7.3500 C.3     
  20 N20           -2.1014    -0.6375    -7.7715 N.3     
  21 C21           -1.6254    -1.9355    -7.2734 C.3     
  22 C22           -1.5572    -1.8984    -5.7448 C.3     
  23 C23            0.5935     0.1626    -3.4844 C.2     
  24 C24           -0.5079    -0.7941    -3.8622 C.3     
  25 O25            1.2181     0.7401    -4.3488 O.2     
  26 N26            0.8845     0.3763    -2.1859 N.am    
  27 C27            1.9552     1.3063    -1.8186 C.3     
  28 H28            0.8514     0.1795     0.7895 H       
  29 H29           -1.1285    -1.2486     1.1109 H       
  30 H30           -3.3695    -0.3876     0.5633 H       
  31 H31           -3.6306     1.9018    -0.3049 H       
  32 H32           -1.6511     3.3315    -0.6218 H       
  33 H33            0.6786     3.7494     0.0991 H       
  34 H34            1.7346     2.3807     0.5232 H       
  35 H35            3.1537     3.6782    -1.1300 H       
  36 H36            2.7303     3.5460    -2.8538 H       
  37 H37            0.8072     5.0705    -2.4984 H       
  38 H38            1.2306     5.2027    -0.7746 H       
  39 H39            2.1971     6.1006    -4.2017 H       
  40 H40            3.7986     7.8941    -4.7327 H       
  41 H41            5.1062     8.9496    -2.9329 H       
  42 H42            4.8117     8.2122    -0.6020 H       
  43 H43            3.2067     6.4220    -0.0705 H       
  44 H44           -2.1273     0.6864    -5.4180 H       
  45 H45           -0.4471     1.2684    -5.5070 H       
  46 H46           -1.5837     1.3986    -7.7202 H       
  47 H47           -0.2065     0.2710    -7.7543 H       
  48 H48           -3.0482    -0.4601    -7.4712 H       
  49 H49           -2.3135    -2.7203    -7.5877 H       
  50 H50           -0.6333    -2.1382    -7.6768 H       
  51 H51           -1.1768    -2.8504    -5.3746 H       
  52 H52           -2.5541    -1.7228    -5.3405 H       
  53 H53           -1.4428    -0.4708    -3.4046 H       
  54 H54           -0.2573    -1.7944    -3.5090 H       
  55 H55            0.3850    -0.0857    -1.4945 H       
  56 H56            2.6632     1.3892    -2.6432 H       
  57 H57            2.4709     0.9352    -0.9329 H       
@<TRIPOS>BOND
   1    1    2 ar
   2    1    7 1
   3    1    6 ar
   4    2    3 ar
   5    2   28 1
   6    3    4 ar
   7    3   29 1
   8    4    5 ar
   9    4   30 1
  10    5    6 ar
  11    5   31 1
  12    6   32 1
  13    7    8 1
  14    7   33 1
  15    7   34 1
  16    8    9 1
  17    8   27 1
  18    9   10 1
  19    9   35 1
  20    9   36 1
  21   10   11 1
  22   10   37 1
  23   10   38 1
  24   11   12 ar
  25   11   16 ar
  26   12   13 ar
  27   12   39 1
  28   13   14 ar
  29   13   40 1
  30   14   15 ar
  31   14   41 1
  32   15   16 ar
  33   15   42 1
  34   16   43 1
  35   17   18 1
  36   17   22 1
  37   17   24 1
  38   18   19 1
  39   18   44 1
  40   18   45 1
  41   19   20 1
  42   19   46 1
  43   19   47 1
  44   20   21 1
  45   20   48 1
  46   21   22 1
  47   21   49 1
  48   21   50 1
  49   22   51 1
  50   22   52 1
  51   23   24 1
  52   23   25 2
  53   23   26 am
  54   24   53 1
  55   24   54 1
  56   26   27 1
  57   26   55 1
  58   27   56 1
  59   27   57 1

#	End of record

