#	Name: ASD05143096
#	Creating user name:	WinNT
#	Creation time:	15. 06. 2019 20:57

#	Modifying user name:	WinNT
#	Modification time:	15. 06. 2019 20:57

#	Program:	/corina/corina34_cracker 3.40 0067  02.08.2006

@<TRIPOS>MOLECULE
ASD05143096
 144  147    0    0    0
SMALL
NO_CHARGES


@<TRIPOS>ATOM
   1 C1            -1.9681     2.7161     4.9856 C.2     
   2 C2            -1.4479     1.6057     5.8617 C.3     
   3 N3            -1.1110     3.4532     4.2518 N.am    
   4 O4            -3.1585     2.9433     4.9372 O.2     
   5 C5            -1.6167     4.5327     3.4002 C.3     
   6 C6            -2.5863     3.9555     2.3669 C.3     
   7 C7            -2.3349     5.5487     4.2504 C.2     
   8 C8            -1.8287     3.0177     1.4247 C.3     
   9 C9            -2.7983     2.4406     0.3914 C.3     
  10 N10           -2.0730     1.5426    -0.5107 N.pl3   
  11 C11           -2.7414     0.9029    -1.5277 C.2     
  12 N12           -2.0607     0.0603    -2.3743 N.pl3   
  13 N13           -4.0204     1.0953    -1.6891 N.2     
  14 O14           -2.7366     5.2417     5.3528 O.2     
  15 N15           -2.5308     6.7986     3.7857 N.am    
  16 C16           -3.2290     7.7863     4.6123 C.3     
  17 C17           -2.2113     8.7530     5.2209 C.3     
  18 C18           -1.0418     7.9604     5.8079 C.3     
  19 C19           -0.0026     7.7326     4.7407 C.2     
  20 N20            1.3113     7.9517     5.0446 N.am    
  21 C21            2.2677     7.6985     3.9429 C.3     
  22 C22            2.4191     8.9802     3.1211 C.3     
  23 C23            2.9417     8.6320     1.7259 C.3     
  24 C24            3.9264     9.7090     1.2660 C.3     
  25 N25            3.7571     9.9207    -0.1856 N.am    
  26 C26            5.3362     9.2586     1.5497 C.2     
  27 N27            5.8436     9.3751     2.7929 N.am    
  28 O28            6.0143     8.7912     0.6594 O.2     
  29 C29            2.9522    10.9523    -0.5599 C.2     
  30 O30            2.4194    11.6503     0.2767 O.2     
  31 C31            2.7317    11.2167    -2.0271 C.3     
  32 N32            1.5473    12.0935    -2.1750 N.am    
  33 C33            3.9618    11.9113    -2.6146 C.3     
  34 C34            0.4131    11.4750    -2.6195 C.2     
  35 O35            0.4146    10.2886    -2.8716 O.2     
  36 C36           -0.8400    12.2946    -2.7902 C.3     
  37 N37           -2.0123    11.4068    -2.6581 N.am    
  38 C38           -0.8941    13.3789    -1.7121 C.3     
  39 C39           -3.0270    11.8512    -1.8666 C.2     
  40 O40           -2.9450    12.9231    -1.3052 O.2     
  41 C41           -4.2537    10.9922    -1.6986 C.3     
  42 C42            3.7893    12.0636    -4.1039 C.2     
  43 C43            3.0879    13.1492    -4.7934 C.ar    
  44 C44            3.1883    12.8658    -6.1675 C.ar    
  45 N45            3.8996    11.6933    -6.2896 N.pl3   
  46 C46            4.2541    11.2332    -5.0507 C.2     
  47 C47            2.4106    14.2928    -4.3655 C.ar    
  48 C48            1.8480    15.1319    -5.2853 C.ar    
  49 C49            1.9438    14.8564    -6.6426 C.ar    
  50 C50            2.6081    13.7343    -7.0866 C.ar    
  51 N51           -4.7118    11.0888    -0.2938 N.am    
  52 C52           -3.9109     9.5379    -2.0278 C.3     
  53 C53           -5.1561     8.6944    -1.9328 C.ar    
  54 C54           -6.1538     8.8243    -2.8821 C.ar    
  55 C55           -7.2967     8.0492    -2.7944 C.ar    
  56 C56           -7.4407     7.1457    -1.7587 C.ar    
  57 C57           -6.4432     7.0163    -0.8101 C.ar    
  58 C58           -5.2990     7.7866    -0.9001 C.ar    
  59 C59           -4.2045     8.5558     3.7592 C.2     
  60 O60           -5.3984     8.4568     3.9483 O.2     
  61 C61           -0.7635    12.7324    -0.3316 C.3     
  62 C62           -0.9422    13.7995     0.7502 C.3     
  63 N63           -0.8172    13.1805     2.0721 N.pl3   
  64 C64           -0.9420    13.9487     3.2055 C.2     
  65 N65           -1.1841    15.2978     3.0983 N.pl3   
  66 N66           -0.8307    13.3979     4.3816 N.2     
  67 N67           -3.7263     9.3633     2.7730 N.am    
  68 C68           -4.7292    10.0920     1.9709 C.3     
  69 C69           -4.3013    10.0759     0.5260 C.2     
  70 O70           -3.6051     9.1796     0.0985 O.2     
  71 C71           -4.8254    11.5381     2.4611 C.3     
  72 C72           -5.3554    11.5562     3.8717 C.2     
  73 N73           -5.5251    12.7295     4.5128 N.am    
  74 Cl74          -5.9724     9.9599    -4.1826 Cl      
  75 O75           -0.3266     7.3612     3.6325 O.2     
  76 O76           -5.6293    10.5149     4.4299 O.2     
  77 H77           -0.7572     2.0169     6.5978 H       
  78 H78           -2.2819     1.1262     6.3741 H       
  79 H79           -0.9284     0.8708     5.2467 H       
  80 H80           -0.1593     3.2689     4.2874 H       
  81 H81           -0.7827     5.0122     2.8877 H       
  82 H82           -3.3729     3.3999     2.8774 H       
  83 H83           -3.0300     4.7679     1.7915 H       
  84 H84           -1.0421     3.5733     0.9142 H       
  85 H85           -1.3850     2.2053     2.0001 H       
  86 H86           -3.5850     1.8850     0.9020 H       
  87 H87           -3.2421     3.2530    -0.1840 H       
  88 H88           -1.1212     1.3995    -0.3905 H       
  89 H89           -1.1088    -0.0829    -2.2541 H       
  90 H90           -2.5322    -0.3911    -3.0918 H       
  91 H91           -4.4919     0.6439    -2.4066 H       
  92 H92           -2.2095     7.0441     2.9040 H       
  93 H93           -3.7681     7.2761     5.4106 H       
  94 H94           -1.8419     9.4261     4.4472 H       
  95 H95           -2.6888     9.3339     6.0099 H       
  96 H96           -0.5999     8.5212     6.6315 H       
  97 H97           -1.4022     6.9994     6.1751 H       
  98 H98            1.5977     8.2525     5.9211 H       
  99 H99            3.2349     7.4130     4.3567 H       
 100 H100           1.8891     6.8986     3.3065 H       
 101 H101           1.4505     9.4725     3.0340 H       
 102 H102           3.1232     9.6485     3.6167 H       
 103 H103           3.4476     7.6671     1.7578 H       
 104 H104           2.1065     8.5813     1.0274 H       
 105 H105           3.7243    10.6393     1.7968 H       
 106 H106           4.1966     9.3536    -0.8385 H       
 107 H107           5.3013     9.7488     3.5050 H       
 108 H108           6.7511     9.0851     2.9755 H       
 109 H109           2.5568    10.2746    -2.5466 H       
 110 H110           1.5750    13.0414    -1.9708 H       
 111 H111           4.0755    12.8952    -2.1595 H       
 112 H112           4.8493    11.3121    -2.4110 H       
 113 H113          -0.8419    12.7577    -3.7770 H       
 114 H114          -2.0571    10.5505    -3.1118 H       
 115 H115          -0.0752    14.0823    -1.8629 H       
 116 H116          -1.8446    13.9085    -1.7769 H       
 117 H117          -5.0410    11.3446    -2.3650 H       
 118 H118           4.1199    11.2600    -7.1290 H       
 119 H119           4.8177    10.3314    -4.8621 H       
 120 H120           2.3315    14.5131    -3.3111 H       
 121 H121           1.3242    16.0163    -4.9538 H       
 122 H122           1.4936    15.5290    -7.3577 H       
 123 H123           2.6775    13.5289    -8.1447 H       
 124 H124          -5.2647    11.8204     0.0224 H       
 125 H125          -3.5087     9.4794    -3.0392 H       
 126 H126          -3.1682     9.1704    -1.3196 H       
 127 H127          -8.0761     8.1505    -3.5351 H       
 128 H128          -8.3329     6.5409    -1.6900 H       
 129 H129          -6.5563     6.3103    -0.0007 H       
 130 H130          -4.5200     7.6848    -0.1591 H       
 131 H131          -1.5294    11.9656    -0.2156 H       
 132 H132           0.2228    12.2785    -0.2348 H       
 133 H133          -0.1764    14.5664     0.6342 H       
 134 H134          -1.9285    14.2534     0.6534 H       
 135 H135          -0.6464    12.2286     2.1477 H       
 136 H136          -1.2669    15.7076     2.2231 H       
 137 H137          -1.2722    15.8397     3.8980 H       
 138 H138          -0.9188    13.9399     5.1812 H       
 139 H139          -2.7753     9.4555     2.6060 H       
 140 H140          -5.6996     9.6055     2.0698 H       
 141 H141          -3.8364    11.9959     2.4386 H       
 142 H142          -5.4995    12.0976     1.8124 H       
 143 H143          -5.3061    13.5623     4.0663 H       
 144 H144          -5.8662    12.7411     5.4208 H       
@<TRIPOS>BOND
   1    1    2 1
   2    1    3 am
   3    1    4 2
   4    2   77 1
   5    2   78 1
   6    2   79 1
   7    3    5 1
   8    3   80 1
   9    5    6 1
  10    5    7 1
  11    5   81 1
  12    6    8 1
  13    6   82 1
  14    6   83 1
  15    7   14 2
  16    7   15 am
  17    8    9 1
  18    8   84 1
  19    8   85 1
  20    9   10 1
  21    9   86 1
  22    9   87 1
  23   10   11 1
  24   10   88 1
  25   11   12 1
  26   11   13 2
  27   12   89 1
  28   12   90 1
  29   13   91 1
  30   15   16 1
  31   15   92 1
  32   16   17 1
  33   16   59 1
  34   16   93 1
  35   17   18 1
  36   17   94 1
  37   17   95 1
  38   18   19 1
  39   18   96 1
  40   18   97 1
  41   19   20 am
  42   19   75 2
  43   20   21 1
  44   20   98 1
  45   21   22 1
  46   21   99 1
  47   21  100 1
  48   22   23 1
  49   22  101 1
  50   22  102 1
  51   23   24 1
  52   23  103 1
  53   23  104 1
  54   24   25 1
  55   24   26 1
  56   24  105 1
  57   25   29 am
  58   25  106 1
  59   26   27 am
  60   26   28 2
  61   27  107 1
  62   27  108 1
  63   29   30 2
  64   29   31 1
  65   31   32 1
  66   31   33 1
  67   31  109 1
  68   32   34 am
  69   32  110 1
  70   33   42 1
  71   33  111 1
  72   33  112 1
  73   34   35 2
  74   34   36 1
  75   36   37 1
  76   36   38 1
  77   36  113 1
  78   37   39 am
  79   37  114 1
  80   38   61 1
  81   38  115 1
  82   38  116 1
  83   39   40 2
  84   39   41 1
  85   41   51 1
  86   41   52 1
  87   41  117 1
  88   42   43 1
  89   42   46 2
  90   43   44 ar
  91   43   47 ar
  92   44   45 1
  93   44   50 ar
  94   45   46 1
  95   45  118 1
  96   46  119 1
  97   47   48 ar
  98   47  120 1
  99   48   49 ar
 100   48  121 1
 101   49   50 ar
 102   49  122 1
 103   50  123 1
 104   51   69 am
 105   51  124 1
 106   52   53 1
 107   52  125 1
 108   52  126 1
 109   53   54 ar
 110   53   58 ar
 111   54   55 ar
 112   54   74 1
 113   55   56 ar
 114   55  127 1
 115   56   57 ar
 116   56  128 1
 117   57   58 ar
 118   57  129 1
 119   58  130 1
 120   59   60 2
 121   59   67 am
 122   61   62 1
 123   61  131 1
 124   61  132 1
 125   62   63 1
 126   62  133 1
 127   62  134 1
 128   63   64 1
 129   63  135 1
 130   64   65 1
 131   64   66 2
 132   65  136 1
 133   65  137 1
 134   66  138 1
 135   67   68 1
 136   67  139 1
 137   68   69 1
 138   68   71 1
 139   68  140 1
 140   69   70 2
 141   71   72 1
 142   71  141 1
 143   71  142 1
 144   72   73 am
 145   72   76 2
 146   73  143 1
 147   73  144 1

#	End of record

