#	Name: ASD01915417
#	Creating user name:	WinNT
#	Creation time:	15. 06. 2019 20:05

#	Modifying user name:	WinNT
#	Modification time:	15. 06. 2019 20:05

#	Program:	/corina/corina34_cracker 3.40 0067  02.08.2006

@<TRIPOS>MOLECULE
ASD01915417
  52   56    0    0    0
SMALL
NO_CHARGES


@<TRIPOS>ATOM
   1 C1            -0.0144     1.3366     0.1993 C.ar    
   2 N2            -0.0012     0.0088     0.1747 N.ar    
   3 C3            -1.1093    -0.6947     0.2225 C.ar    
   4 C4            -2.3530    -0.0632     0.3011 C.ar    
   5 C5            -2.4064     1.3333     0.3291 C.ar    
   6 C6            -1.2174     2.0377     0.2828 C.ar    
   7 C7             1.2631     2.0813     0.1435 C.2     
   8 N8             2.4305     1.4121     0.0684 N.am    
   9 O9             1.2595     3.2967     0.1656 O.2     
  10 C10            3.6334     2.1133     0.0159 C.2     
  11 C11            3.7721     3.4614    -0.0878 C.2     
  12 C12            5.1491     3.7521    -0.1084 C.2     
  13 N13            5.8106     2.6170    -0.0201 N.2     
  14 N14            4.8822     1.5718     0.0652 N.pl3   
  15 C15            5.1849     0.2080     0.1725 C.ar    
  16 C16            4.5537    -0.5713     1.1323 C.ar    
  17 C17            4.8539    -1.9158     1.2354 C.ar    
  18 C18            5.7824    -2.4861     0.3844 C.ar    
  19 C19            6.4136    -1.7133    -0.5732 C.ar    
  20 C20            6.1138    -0.3690    -0.6856 C.ar    
  21 Cl21           6.9058     0.6007    -1.8881 Cl      
  22 C22            5.7514     5.1043    -0.2123 C.ar    
  23 C23            7.1367     5.2539    -0.2220 C.ar    
  24 C24            7.6915     6.5139    -0.3187 C.ar    
  25 C25            6.8750     7.6271    -0.4055 C.ar    
  26 C26            5.4992     7.4845    -0.3958 C.ar    
  27 C27            4.9337     6.2287    -0.3062 C.ar    
  28 C28           -3.6000    -0.8637     0.3537 C.ar    
  29 C29           -3.5387    -2.2559     0.3249 C.ar    
  30 C30           -4.7039    -2.9981     0.3741 C.ar    
  31 C31           -5.9310    -2.3603     0.4519 C.ar    
  32 C32           -5.9970    -0.9770     0.4808 C.ar    
  33 C33           -4.8368    -0.2265     0.4378 C.ar    
  34 F34           -7.1967    -0.3604     0.5563 F       
  35 F35           -4.6458    -4.3475     0.3458 F       
  36 H36           -1.0585    -1.7732     0.2004 H       
  37 H37           -3.3530     1.8496     0.3896 H       
  38 H38           -1.2205     3.1175     0.3025 H       
  39 H39            2.4333     0.4422     0.0508 H       
  40 H40            2.9689     4.1812    -0.1446 H       
  41 H41            3.8287    -0.1267     1.7981 H       
  42 H42            4.3628    -2.5222     1.9821 H       
  43 H43            6.0155    -3.5373     0.4679 H       
  44 H44            7.1384    -2.1617    -1.2365 H       
  45 H45            7.7751     4.3855    -0.1536 H       
  46 H46            8.7651     6.6310    -0.3263 H       
  47 H47            7.3134     8.6113    -0.4807 H       
  48 H48            4.8664     8.3570    -0.4635 H       
  49 H49            3.8593     6.1184    -0.2987 H       
  50 H50           -2.5824    -2.7540     0.2639 H       
  51 H51           -6.8393    -2.9434     0.4898 H       
  52 H52           -4.8891     0.8519     0.4604 H       
@<TRIPOS>BOND
   1    1    2 ar
   2    1    7 1
   3    1    6 ar
   4    2    3 ar
   5    3    4 ar
   6    3   36 1
   7    4    5 ar
   8    4   28 1
   9    5    6 ar
  10    5   37 1
  11    6   38 1
  12    7    8 am
  13    7    9 2
  14    8   10 1
  15    8   39 1
  16   10   11 2
  17   10   14 1
  18   11   12 1
  19   11   40 1
  20   12   13 2
  21   12   22 1
  22   13   14 1
  23   14   15 1
  24   15   16 ar
  25   15   20 ar
  26   16   17 ar
  27   16   41 1
  28   17   18 ar
  29   17   42 1
  30   18   19 ar
  31   18   43 1
  32   19   20 ar
  33   19   44 1
  34   20   21 1
  35   22   23 ar
  36   22   27 ar
  37   23   24 ar
  38   23   45 1
  39   24   25 ar
  40   24   46 1
  41   25   26 ar
  42   25   47 1
  43   26   27 ar
  44   26   48 1
  45   27   49 1
  46   28   29 ar
  47   28   33 ar
  48   29   30 ar
  49   29   50 1
  50   30   31 ar
  51   30   35 1
  52   31   32 ar
  53   31   51 1
  54   32   33 ar
  55   32   34 1
  56   33   52 1

#	End of record

