#	Name: ASD01882782
#	Creating user name:	WinNT
#	Creation time:	15. 06. 2019 19:45

#	Modifying user name:	WinNT
#	Modification time:	15. 06. 2019 19:45

#	Program:	/corina/corina34_cracker 3.40 0067  02.08.2006

@<TRIPOS>MOLECULE
ASD01882782
  30   31    0    0    0
SMALL
NO_CHARGES


@<TRIPOS>ATOM
   1 N1            -0.0165     1.3692     0.0096 N.pl3   
   2 O2             1.1412    -0.7243    -0.0127 O.3     
   3 C3             0.0021    -0.0041     0.0020 C.2     
   4 N4            -1.0753    -0.7270     0.0089 N.2     
   5 C5            -0.6823    -2.1496     0.0076 C.3     
   6 C6             0.8153    -2.0697     0.3922 C.3     
   7 C7             1.6390    -3.0940    -0.3909 C.3     
   8 O8             3.0178    -2.9666    -0.0377 O.3     
   9 C9             3.8921    -3.8101    -0.6487 C.ar    
  10 C10            5.2452    -3.7405    -0.3522 C.ar    
  11 C11            6.1333    -4.5972    -0.9729 C.ar    
  12 C12            5.6718    -5.5274    -1.8924 C.ar    
  13 C13            4.3186    -5.5977    -2.1883 C.ar    
  14 C14            3.4300    -4.7438    -1.5643 C.ar    
  15 O15            6.5462    -6.3703    -2.5041 O.3     
  16 C16            6.0015    -7.3028    -3.4399 C.3     
  17 F17            5.3638    -6.6079    -4.4732 F       
  18 F18            7.0318    -8.0861    -3.9712 F       
  19 F19            5.0757    -8.1273    -2.7916 F       
  20 H20            0.8168     1.8655     0.0043 H       
  21 H21           -0.8631     1.8427     0.0162 H       
  22 H22           -1.2463    -2.7101     0.7532 H       
  23 H23           -0.8071    -2.5872    -0.9829 H       
  24 H24            0.9511    -2.1991     1.4659 H       
  25 H25            1.2935    -4.0992    -0.1495 H       
  26 H26            1.5198    -2.9156    -1.4596 H       
  27 H27            5.6045    -3.0162     0.3638 H       
  28 H28            7.1870    -4.5426    -0.7425 H       
  29 H29            3.9593    -6.3218    -2.9045 H       
  30 H30            2.3758    -4.8010    -1.7920 H       
@<TRIPOS>BOND
   1    1    3 1
   2    1   20 1
   3    1   21 1
   4    2    3 1
   5    2    6 1
   6    3    4 2
   7    4    5 1
   8    5    6 1
   9    5   22 1
  10    5   23 1
  11    6    7 1
  12    6   24 1
  13    7    8 1
  14    7   25 1
  15    7   26 1
  16    8    9 1
  17    9   10 ar
  18    9   14 ar
  19   10   11 ar
  20   10   27 1
  21   11   12 ar
  22   11   28 1
  23   12   13 ar
  24   12   15 1
  25   13   14 ar
  26   13   29 1
  27   14   30 1
  28   15   16 1
  29   16   17 1
  30   16   18 1
  31   16   19 1

#	End of record

