#	Name: ASD01884499
#	Creating user name:	WinNT
#	Creation time:	15. 06. 2019 19:48

#	Modifying user name:	WinNT
#	Modification time:	15. 06. 2019 19:48

#	Program:	/corina/corina34_cracker 3.40 0067  02.08.2006

@<TRIPOS>MOLECULE
ASD01884499
  40   43    0    0    0
SMALL
NO_CHARGES


@<TRIPOS>ATOM
   1 C1            -0.0164     1.3573     0.0095 C.2     
   2 C2             0.0021    -0.0041     0.0020 C.2     
   3 C3             1.2445    -0.6750    -0.0134 C.2     
   4 C4             2.4032     0.0473    -0.0206 C.2     
   5 N5             2.3703     1.4023    -0.0126 N.am    
   6 C6             1.1989     2.0650     0.0017 C.2     
   7 C7             3.6268     2.1557    -0.0196 C.3     
   8 O8             1.1913     3.2853     0.0083 O.2     
   9 C9             4.0448     2.4222    -1.4427 C.ar    
  10 C10            3.6208     3.5712    -2.0838 C.ar    
  11 C11            4.0039     3.8161    -3.3890 C.ar    
  12 C12            4.8119     2.9110    -4.0539 C.ar    
  13 C13            5.2359     1.7613    -3.4118 C.ar    
  14 C14            4.8568     1.5202    -2.1047 C.ar    
  15 Cl15           5.2930     3.2177    -5.6935 Cl      
  16 C16            1.2906    -2.1575    -0.0214 C.ar    
  17 C17            0.8152    -2.8628     1.0681 C.ar    
  18 C18            1.8115    -2.8310    -1.1382 C.ar    
  19 C19            1.8633    -4.1880    -1.1689 C.ar    
  20 C20            1.3925    -4.9329    -0.0739 C.ar    
  21 C21            0.8597    -4.2658     1.0578 C.ar    
  22 C22            1.4343    -6.3394    -0.0780 C.ar    
  23 C23            0.9609    -7.0028     1.0186 C.ar    
  24 C24            0.4549    -6.2859     2.1004 C.ar    
  25 N25            0.4126    -4.9756     2.0998 N.ar    
  26 H26           -0.9563     1.8892     0.0168 H       
  27 H27           -0.9217    -0.5636     0.0082 H       
  28 H28            3.3537    -0.4653    -0.0325 H       
  29 H29            3.4853     3.1029     0.5010 H       
  30 H30            4.4006     1.5764     0.4840 H       
  31 H31            2.9898     4.2775    -1.5647 H       
  32 H32            3.6723     4.7137    -3.8898 H       
  33 H33            5.8667     1.0544    -3.9303 H       
  34 H34            5.1877     0.6227    -1.6033 H       
  35 H35            0.4126    -2.3380     1.9219 H       
  36 H36            2.1747    -2.2637    -1.9823 H       
  37 H37            2.2656    -4.6941    -2.0340 H       
  38 H38            1.8297    -6.8800    -0.9253 H       
  39 H39            0.9787    -8.0823     1.0465 H       
  40 H40            0.0838    -6.8237     2.9604 H       
@<TRIPOS>BOND
   1    1    2 2
   2    1    6 1
   3    1   26 1
   4    2    3 1
   5    2   27 1
   6    3    4 2
   7    3   16 1
   8    4    5 1
   9    4   28 1
  10    5    6 am
  11    5    7 1
  12    6    8 2
  13    7    9 1
  14    7   29 1
  15    7   30 1
  16    9   10 ar
  17    9   14 ar
  18   10   11 ar
  19   10   31 1
  20   11   12 ar
  21   11   32 1
  22   12   13 ar
  23   12   15 1
  24   13   14 ar
  25   13   33 1
  26   14   34 1
  27   16   17 ar
  28   16   18 ar
  29   17   21 ar
  30   17   35 1
  31   18   19 ar
  32   18   36 1
  33   19   20 ar
  34   19   37 1
  35   20   21 ar
  36   20   22 ar
  37   21   25 ar
  38   22   23 ar
  39   22   38 1
  40   23   24 ar
  41   23   39 1
  42   24   25 ar
  43   24   40 1

#	End of record

