#	Name: ASD03730775
#	Creating user name:	WinNT
#	Creation time:	15. 06. 2019 20:44

#	Modifying user name:	WinNT
#	Modification time:	15. 06. 2019 20:44

#	Program:	/corina/corina34_cracker 3.40 0067  02.08.2006

@<TRIPOS>MOLECULE
ASD03730775
  53   57    0    0    0
SMALL
NO_CHARGES


@<TRIPOS>ATOM
   1 O1            -0.0174     1.4356     0.0099 O.3     
   2 C2             0.0021    -0.0041     0.0020 C.3     
   3 O3             1.2454    -0.3259    -0.6489 O.3     
   4 C4             2.0694     0.7350    -0.4062 C.ar    
   5 C5             1.2928     1.8182    -0.0005 C.ar    
   6 C6             4.1669     4.3486     0.4920 C.3     
   7 C7             5.5139     4.0195    -0.1900 C.3     
   8 C8             5.4993     2.4852    -0.2130 C.3     
   9 C9             4.0494     2.0793    -0.1921 C.ar    
  10 C10            3.4430     0.8719    -0.4994 C.ar    
  11 C11            1.9018     3.0220     0.3071 C.ar    
  12 C12            3.2770     3.1550     0.2125 C.ar    
  13 N13            7.2184     1.1843    -0.9858 N.am    
  14 C14            6.2055     1.9521    -1.4307 C.2     
  15 C15            6.2529     1.9132     0.9550 C.ar    
  16 C16            6.1075     2.0203     2.3202 C.ar    
  17 C17            6.9822     1.3586     3.1635 C.ar    
  18 C18            8.0016     0.5897     2.6320 C.ar    
  19 C19            8.1505     0.4791     1.2652 C.ar    
  20 C20            7.2739     1.1414     0.4089 C.ar    
  21 O21            5.9175     2.1711    -2.5883 O.2     
  22 C22            8.1533     0.4754    -1.8632 C.3     
  23 C23            9.3501     1.3782    -2.1689 C.3     
  24 C24           10.3265     0.6379    -3.0852 C.3     
  25 C25           11.5233     1.5407    -3.3908 C.3     
  26 C26           12.4996     0.8004    -4.3072 C.3     
  27 O27            4.3508     4.5106     1.8998 O.3     
  28 C28            3.4323     5.4230     2.5048 C.3     
  29 H29           -0.0090    -0.3928     1.0203 H       
  30 H30           -0.8409    -0.3954    -0.5676 H       
  31 H31            3.7351     5.2514     0.0601 H       
  32 H32            5.5450     4.4225    -1.2023 H       
  33 H33            6.3499     4.3909     0.4026 H       
  34 H34            4.0461     0.0328    -0.8133 H       
  35 H35            1.3013     3.8625     0.6223 H       
  36 H36            5.3106     2.6214     2.7326 H       
  37 H37            6.8694     1.4425     4.2343 H       
  38 H38            8.6846     0.0737     3.2904 H       
  39 H39            8.9492    -0.1229     0.8577 H       
  40 H40            8.4995    -0.4318    -1.3681 H       
  41 H41            7.6499     0.2121    -2.7935 H       
  42 H42            9.0039     2.2854    -2.6640 H       
  43 H43            9.8535     1.6415    -1.2386 H       
  44 H44           10.6727    -0.2693    -2.5901 H       
  45 H45            9.8231     0.3746    -4.0155 H       
  46 H46           11.1771     2.4479    -3.8860 H       
  47 H47           12.0267     1.8040    -2.4606 H       
  48 H48           13.3523     1.4436    -4.5249 H       
  49 H49           12.8459    -0.1068    -3.8121 H       
  50 H50           11.9963     0.5371    -5.2375 H       
  51 H51            2.4133     5.0672     2.3524 H       
  52 H52            3.6377     5.4904     3.5731 H       
  53 H53            3.5453     6.4072     2.0502 H       
@<TRIPOS>BOND
   1    1    2 1
   2    1    5 1
   3    2    3 1
   4    2   29 1
   5    2   30 1
   6    3    4 1
   7    4    5 ar
   8    4   10 ar
   9    5   11 ar
  10    6    7 1
  11    6   12 1
  12    6   27 1
  13    6   31 1
  14    7    8 1
  15    7   32 1
  16    7   33 1
  17    8    9 1
  18    8   14 1
  19    8   15 1
  20    9   10 ar
  21    9   12 ar
  22   10   34 1
  23   11   12 ar
  24   11   35 1
  25   13   14 am
  26   13   20 1
  27   13   22 1
  28   14   21 2
  29   15   16 ar
  30   15   20 ar
  31   16   17 ar
  32   16   36 1
  33   17   18 ar
  34   17   37 1
  35   18   19 ar
  36   18   38 1
  37   19   20 ar
  38   19   39 1
  39   22   23 1
  40   22   40 1
  41   22   41 1
  42   23   24 1
  43   23   42 1
  44   23   43 1
  45   24   25 1
  46   24   44 1
  47   24   45 1
  48   25   26 1
  49   25   46 1
  50   25   47 1
  51   26   48 1
  52   26   49 1
  53   26   50 1
  54   27   28 1
  55   28   51 1
  56   28   52 1
  57   28   53 1

#	End of record

