#	Name: ASD01120348
#	Creating user name:	WinNT
#	Creation time:	15. 06. 2019 18:59

#	Modifying user name:	WinNT
#	Modification time:	15. 06. 2019 18:59

#	Program:	/corina/corina34_cracker 3.40 0067  02.08.2006

@<TRIPOS>MOLECULE
ASD01120348
  45   46    0    0    0
SMALL
NO_CHARGES


@<TRIPOS>ATOM
   1 C1            -0.0187     1.5258     0.0104 C.3     
   2 C2             0.0021    -0.0041     0.0020 C.3     
   3 O3             0.6817    -0.4723    -1.1926 O.3     
   4 C4             0.7867    -1.8070    -1.3538 C.2     
   5 O5             0.3227    -2.5585    -0.5184 O.2     
   6 C6             1.4617    -2.3528    -2.5388 C.2     
   7 N7             2.0278    -1.6054    -3.5539 N.pl3   
   8 C8             2.5637    -2.4606    -4.4873 C.ar    
   9 C9             2.3246    -3.7751    -4.0408 C.ar    
  10 C10            1.6344    -3.6740    -2.8091 C.2     
  11 C11            1.1665    -4.8244    -1.9554 C.3     
  12 C12            2.2670    -5.2029    -0.9621 C.3     
  13 C13            2.7691    -4.8598    -4.8084 C.ar    
  14 C14            3.4294    -4.6360    -5.9811 C.ar    
  15 C15            3.6669    -3.3404    -6.4234 C.ar    
  16 C16            3.2395    -2.2582    -5.6877 C.ar    
  17 N17            3.4983    -0.8832    -6.1710 N.pl3   
  18 O18            4.0902    -0.7081    -7.2210 O.2     
  19 O19            3.1194     0.0730    -5.5187 O.2     
  20 C20            3.9061    -5.8049    -6.8042 C.3     
  21 C21            2.8115    -6.2131    -7.7923 C.3     
  22 C22            3.3397    -7.3165    -8.7112 C.3     
  23 C23            1.5954    -6.7301    -7.0212 C.3     
  24 H24            1.0039     1.9031     0.0027 H       
  25 H25           -0.5459     1.8868    -0.8726 H       
  26 H26           -0.5289     1.8773     0.9072 H       
  27 H27            0.5293    -0.3651     0.8851 H       
  28 H28           -1.0205    -0.3814     0.0098 H       
  29 H29            2.0441    -0.6367    -3.6004 H       
  30 H30            0.2698    -4.5307    -1.4097 H       
  31 H31            0.9409    -5.6804    -2.5913 H       
  32 H32            1.9286    -6.0350    -0.3447 H       
  33 H33            3.1637    -5.4965    -1.5078 H       
  34 H34            2.4926    -4.3468    -0.3262 H       
  35 H35            2.5897    -5.8704    -4.4724 H       
  36 H36            4.1914    -3.1808    -7.3539 H       
  37 H37            4.8037    -5.5206    -7.3533 H       
  38 H38            4.1330    -6.6440    -6.1464 H       
  39 H39            2.5220    -5.3494    -8.3908 H       
  40 H40            3.6292    -8.1802    -8.1127 H       
  41 H41            2.5599    -7.6072    -9.4152 H       
  42 H42            4.2061    -6.9481    -9.2605 H       
  43 H43            1.2191    -5.9440    -6.3665 H       
  44 H44            0.8156    -7.0209    -7.7252 H       
  45 H45            1.8850    -7.5938    -6.4227 H       
@<TRIPOS>BOND
   1    1    2 1
   2    1   24 1
   3    1   25 1
   4    1   26 1
   5    2    3 1
   6    2   27 1
   7    2   28 1
   8    3    4 1
   9    4    5 2
  10    4    6 1
  11    6    7 1
  12    6   10 2
  13    7    8 1
  14    7   29 1
  15    8    9 ar
  16    8   16 ar
  17    9   10 1
  18    9   13 ar
  19   10   11 1
  20   11   12 1
  21   11   30 1
  22   11   31 1
  23   12   32 1
  24   12   33 1
  25   12   34 1
  26   13   14 ar
  27   13   35 1
  28   14   15 ar
  29   14   20 1
  30   15   16 ar
  31   15   36 1
  32   16   17 1
  33   17   18 2
  34   17   19 2
  35   20   21 1
  36   20   37 1
  37   20   38 1
  38   21   22 1
  39   21   23 1
  40   21   39 1
  41   22   40 1
  42   22   41 1
  43   22   42 1
  44   23   43 1
  45   23   44 1
  46   23   45 1

#	End of record

