#	Name: ASD03540315
#	Creating user name:	WinNT
#	Creation time:	15. 06. 2019 20:43

#	Modifying user name:	WinNT
#	Modification time:	15. 06. 2019 20:43

#	Program:	/corina/corina34_cracker 3.40 0067  02.08.2006

@<TRIPOS>MOLECULE
ASD03540315
  56   59    0    0    0
SMALL
NO_CHARGES


@<TRIPOS>ATOM
   1 C1            -0.0167     1.3794     0.0096 C.2     
   2 N2             0.0021    -0.0041     0.0020 N.am    
   3 C3             1.1565    -0.6857    -0.0122 C.2     
   4 N4             2.3495    -0.0696    -0.0203 N.am    
   5 C5             2.4351     1.2736    -0.0139 C.2     
   6 C6             1.1885     2.0715     0.0018 C.2     
   7 C7             1.0216     3.4582     0.0098 C.2     
   8 C8            -0.2600     3.8609     0.0230 C.2     
   9 S9            -1.3307     2.4709     0.0211 S.3     
  10 O10            3.5206     1.8236    -0.0205 O.2     
  11 C11            3.5757    -0.8710    -0.0359 C.3     
  12 C12           -1.2652    -0.7390     0.0102 C.3     
  13 O13            1.1220    -1.9010    -0.0176 O.2     
  14 C14            3.9891    -1.1427    -1.4837 C.3     
  15 C15           -0.6998     5.2580     0.0342 C.2     
  16 O16            0.1229     6.1551     0.0319 O.2     
  17 N17           -2.0155     5.5503     0.0471 N.am    
  18 C18           -2.4553     6.9477     0.0583 C.3     
  19 C19           -3.9614     7.0001     0.0715 C.ar    
  20 C20           -4.6413     7.0178     1.2751 C.ar    
  21 C21           -6.0232     7.0654     1.2906 C.ar    
  22 C22           -6.7277     7.0955     0.1029 C.ar    
  23 C23           -6.0477     7.0784    -1.1064 C.ar    
  24 C24           -4.6612     7.0362    -1.1192 C.ar    
  25 O25           -6.7386     7.1075    -2.2763 O.3     
  26 C26           -8.1640     7.1553    -2.1869 C.3     
  27 S27            5.5075    -2.1351    -1.5029 S.3     
  28 C28            5.8231    -2.3433    -3.2239 C.ar    
  29 C29            6.9313    -3.0679    -3.6461 C.ar    
  30 C30            7.1755    -3.2290    -4.9956 C.ar    
  31 C31            6.3192    -2.6697    -5.9266 C.ar    
  32 C32            5.2157    -1.9475    -5.5101 C.ar    
  33 C33            4.9615    -1.7880    -4.1623 C.ar    
  34 H34            1.8524     4.1482     0.0058 H       
  35 H35            4.3715    -0.3274     0.4733 H       
  36 H36            3.3978    -1.8174     0.4749 H       
  37 H37           -1.5893    -0.9158    -1.0154 H       
  38 H38           -1.1282    -1.6939     0.5176 H       
  39 H39           -2.0210    -0.1542     0.5344 H       
  40 H40            3.1933    -1.6864    -1.9928 H       
  41 H41            4.1670    -0.1964    -1.9944 H       
  42 H42           -2.6711     4.8354     0.0489 H       
  43 H43           -2.0667     7.4438     0.9477 H       
  44 H44           -2.0820     7.4533    -0.8322 H       
  45 H45           -4.0922     6.9939     2.2048 H       
  46 H46           -6.5521     7.0788     2.2321 H       
  47 H47           -7.8071     7.1320     0.1155 H       
  48 H48           -4.1296     7.0228    -2.0592 H       
  49 H49           -8.5245     6.2745    -1.6557 H       
  50 H50           -8.4642     8.0534    -1.6471 H       
  51 H51           -8.5905     7.1747    -3.1899 H       
  52 H52            7.6007    -3.5043    -2.9197 H       
  53 H53            8.0365    -3.7920    -5.3245 H       
  54 H54            6.5129    -2.7970    -6.9814 H       
  55 H55            4.5494    -1.5119    -6.2399 H       
  56 H56            4.0996    -1.2239    -3.8377 H       
@<TRIPOS>BOND
   1    1    2 1
   2    1    6 2
   3    1    9 1
   4    2    3 am
   5    2   12 1
   6    3    4 am
   7    3   13 2
   8    4    5 am
   9    4   11 1
  10    5    6 1
  11    5   10 2
  12    6    7 1
  13    7    8 2
  14    7   34 1
  15    8    9 1
  16    8   15 1
  17   11   14 1
  18   11   35 1
  19   11   36 1
  20   12   37 1
  21   12   38 1
  22   12   39 1
  23   14   27 1
  24   14   40 1
  25   14   41 1
  26   15   16 2
  27   15   17 am
  28   17   18 1
  29   17   42 1
  30   18   19 1
  31   18   43 1
  32   18   44 1
  33   19   20 ar
  34   19   24 ar
  35   20   21 ar
  36   20   45 1
  37   21   22 ar
  38   21   46 1
  39   22   23 ar
  40   22   47 1
  41   23   24 ar
  42   23   25 1
  43   24   48 1
  44   25   26 1
  45   26   49 1
  46   26   50 1
  47   26   51 1
  48   27   28 1
  49   28   29 ar
  50   28   33 ar
  51   29   30 ar
  52   29   52 1
  53   30   31 ar
  54   30   53 1
  55   31   32 ar
  56   31   54 1
  57   32   33 ar
  58   32   55 1
  59   33   56 1

#	End of record

