#	Name: ASD08150074
#	Creating user name:	WinNT
#	Creation time:	15. 06. 2019 21:15

#	Modifying user name:	WinNT
#	Modification time:	15. 06. 2019 21:15

#	Program:	/corina/corina34_cracker 3.40 0067  02.08.2006

@<TRIPOS>MOLECULE
ASD08150074
  41   42    0    0    0
SMALL
NO_CHARGES


@<TRIPOS>ATOM
   1 O1            -0.0161     1.3335     0.0094 O.3     
   2 C2             0.0021    -0.0041     0.0020 C.2     
   3 N3             1.2348    -0.5293    -0.0126 N.am    
   4 C4             2.2183     0.5645    -0.0161 C.3     
   5 C5             1.3508     1.8380    -0.0010 C.3     
   6 O6            -1.0070    -0.6809     0.0087 O.2     
   7 C7             1.6043     2.6745    -1.2567 C.3     
   8 C8             0.7643     3.9247    -1.2054 C.2     
   9 C9             1.2746     5.0380    -0.7403 C.2     
  10 C10           -0.6626     3.8942    -1.6891 C.3     
  11 C11            3.0990     0.4993     1.2333 C.3     
  12 C12            1.5514    -1.9597    -0.0233 C.3     
  13 C13            1.6469    -2.4423    -1.4477 C.ar    
  14 C14            2.8604    -2.4044    -2.1093 C.ar    
  15 C15            2.9507    -2.8463    -3.4150 C.ar    
  16 C16            1.8224    -3.3284    -4.0625 C.ar    
  17 C17            0.6060    -3.3654    -3.3965 C.ar    
  18 C18            0.5222    -2.9276    -2.0889 C.ar    
  19 O19            1.9085    -3.7633    -5.3471 O.3     
  20 C20            0.7065    -4.2463    -5.9505 C.3     
  21 H21            2.8286     0.5277    -0.9184 H       
  22 H22            1.5485     2.4243     0.8964 H       
  23 H23            2.6586     2.9469    -1.3051 H       
  24 H24            1.3381     2.0939    -2.1399 H       
  25 H25            0.6727     5.9339    -0.7035 H       
  26 H26            2.2972     5.0599    -0.3936 H       
  27 H27           -0.9070     2.8904    -2.0366 H       
  28 H28           -1.3294     4.1680    -0.8715 H       
  29 H29           -0.7834     4.6020    -2.5092 H       
  30 H30            3.6489    -0.4417     1.2414 H       
  31 H31            3.8030     1.3315     1.2253 H       
  32 H32            2.4726     0.5619     2.1231 H       
  33 H33            2.5035    -2.1248     0.4810 H       
  34 H34            0.7656    -2.5096     0.4948 H       
  35 H35            3.7384    -2.0287    -1.6049 H       
  36 H36            3.8987    -2.8162    -3.9315 H       
  37 H37           -0.2738    -3.7402    -3.8983 H       
  38 H38           -0.4236    -2.9606    -1.5684 H       
  39 H39            0.3284    -5.0940    -5.3791 H       
  40 H40           -0.0400    -3.4522    -5.9595 H       
  41 H41            0.9144    -4.5612    -6.9731 H       
@<TRIPOS>BOND
   1    1    2 1
   2    1    5 1
   3    2    3 am
   4    2    6 2
   5    3    4 1
   6    3   12 1
   7    4    5 1
   8    4   11 1
   9    4   21 1
  10    5    7 1
  11    5   22 1
  12    7    8 1
  13    7   23 1
  14    7   24 1
  15    8    9 2
  16    8   10 1
  17    9   25 1
  18    9   26 1
  19   10   27 1
  20   10   28 1
  21   10   29 1
  22   11   30 1
  23   11   31 1
  24   11   32 1
  25   12   13 1
  26   12   33 1
  27   12   34 1
  28   13   14 ar
  29   13   18 ar
  30   14   15 ar
  31   14   35 1
  32   15   16 ar
  33   15   36 1
  34   16   17 ar
  35   16   19 1
  36   17   18 ar
  37   17   37 1
  38   18   38 1
  39   19   20 1
  40   20   39 1
  41   20   40 1
  42   20   41 1

#	End of record

