#	Name: ASD01320054
#	Creating user name:	WinNT
#	Creation time:	15. 06. 2019 19:15

#	Modifying user name:	WinNT
#	Modification time:	15. 06. 2019 19:15

#	Program:	/corina/corina34_cracker 3.40 0067  02.08.2006

@<TRIPOS>MOLECULE
ASD01320054
  48   51    0    0    0
SMALL
NO_CHARGES


@<TRIPOS>ATOM
   1 C1             0.3733     1.6118    -2.1824 C.3     
   2 C2             0.6716     0.1126    -2.2565 C.3     
   3 C3             0.2641    -0.5497    -0.9375 C.3     
   4 C4            -1.2210    -0.2817    -0.6783 C.3     
   5 C5            -1.4644     1.2289    -0.6499 C.3     
   6 N6            -1.0595     1.8154    -1.9339 N.3     
   7 C7            -1.4068     3.2415    -1.9941 C.3     
   8 O8            -2.0012    -0.8712    -1.7204 O.3     
   9 C9             0.4997    -2.0356    -1.0261 C.ar    
  10 C10            1.2226    -2.6826    -0.0361 C.ar    
  11 C11            1.4483    -4.0533    -0.1040 C.ar    
  12 C12            0.9517    -4.7871    -1.1652 C.ar    
  13 C13            0.2203    -4.1398    -2.1691 C.ar    
  14 C14           -0.0115    -2.7555    -2.0949 C.ar    
  15 O15            1.7155    -1.9713     1.0098 O.3     
  16 C16           -0.3266    -4.8830    -3.3167 C.2     
  17 C17           -1.0530    -4.1462    -4.2834 C.2     
  18 C18           -1.2163    -2.8066    -4.1212 C.2     
  19 O19           -0.7179    -2.1411    -3.0673 O.3     
  20 O20           -0.1601    -6.0865    -3.4303 O.2     
  21 O21            1.1716    -6.1245    -1.2338 O.3     
  22 C22           -1.9767    -2.0557    -5.1397 C.ar    
  23 C23           -1.3731    -1.0016    -5.8310 C.ar    
  24 C24           -2.0911    -0.3043    -6.7828 C.ar    
  25 C25           -3.4036    -0.6471    -7.0515 C.ar    
  26 C26           -4.0072    -1.6899    -6.3699 C.ar    
  27 C27           -3.3010    -2.3991    -5.4214 C.ar    
  28 Cl28           0.2741    -0.5695    -5.4938 Cl      
  29 H29            0.9495     2.0570    -1.3713 H       
  30 H30            0.6491     2.0840    -3.1253 H       
  31 H31            0.1063    -0.3308    -3.0762 H       
  32 H32            1.7378    -0.0385    -2.4254 H       
  33 H33            0.8569    -0.1340    -0.1227 H       
  34 H34           -1.5070    -0.7144     0.2804 H       
  35 H35           -2.5234     1.4230    -0.4798 H       
  36 H36           -0.8796     1.6760     0.1540 H       
  37 H37           -0.8975     3.7737    -1.1907 H       
  38 H38           -1.0960     3.6509    -2.9553 H       
  39 H39           -2.4847     3.3581    -1.8809 H       
  40 H40           -2.9540    -0.7403    -1.6204 H       
  41 H41            2.0132    -4.5454     0.6739 H       
  42 H42            1.1122    -1.9101     1.7630 H       
  43 H43           -1.4741    -4.6451    -5.1438 H       
  44 H44            0.4892    -6.6579    -0.8037 H       
  45 H45           -1.6266     0.5107    -7.3181 H       
  46 H46           -3.9606    -0.0983    -7.7965 H       
  47 H47           -5.0327    -1.9516    -6.5849 H       
  48 H48           -3.7737    -3.2126    -4.8910 H       
@<TRIPOS>BOND
   1    1    2 1
   2    1    6 1
   3    1   29 1
   4    1   30 1
   5    2    3 1
   6    2   31 1
   7    2   32 1
   8    3    4 1
   9    3    9 1
  10    3   33 1
  11    4    5 1
  12    4    8 1
  13    4   34 1
  14    5    6 1
  15    5   35 1
  16    5   36 1
  17    6    7 1
  18    7   37 1
  19    7   38 1
  20    7   39 1
  21    8   40 1
  22    9   10 ar
  23    9   14 ar
  24   10   11 ar
  25   10   15 1
  26   11   12 ar
  27   11   41 1
  28   12   13 ar
  29   12   21 1
  30   13   14 ar
  31   13   16 1
  32   14   19 1
  33   15   42 1
  34   16   17 1
  35   16   20 2
  36   17   18 2
  37   17   43 1
  38   18   19 1
  39   18   22 1
  40   21   44 1
  41   22   23 ar
  42   22   27 ar
  43   23   24 ar
  44   23   28 1
  45   24   25 ar
  46   24   45 1
  47   25   26 ar
  48   25   46 1
  49   26   27 ar
  50   26   47 1
  51   27   48 1

#	End of record

