#	Name: ASD01884961
#	Creating user name:	WinNT
#	Creation time:	15. 06. 2019 19:49

#	Modifying user name:	WinNT
#	Modification time:	15. 06. 2019 19:49

#	Program:	/corina/corina34_cracker 3.40 0067  02.08.2006

@<TRIPOS>MOLECULE
ASD01884961
  51   56    0    0    0
SMALL
NO_CHARGES


@<TRIPOS>ATOM
   1 C1             0.0393     1.4367    -0.2846 C.ar    
   2 C2             0.1454     0.1522    -0.7780 C.ar    
   3 C3            -0.9337    -0.4278    -1.4458 C.ar    
   4 C4            -2.1159     0.2928    -1.6123 C.ar    
   5 C5            -2.2161     1.5762    -1.1171 C.ar    
   6 C6            -1.1437     2.1499    -0.4484 C.ar    
   7 C7            -0.8235    -1.8063    -1.9773 C.2     
   8 C8            -1.6141    -2.8174    -1.4641 C.2     
   9 C9             0.0886    -2.0998    -3.0202 C.2     
  10 C10            0.1868    -3.3529    -3.5020 C.2     
  11 N11           -0.5860    -4.3588    -2.9972 N.pl3   
  12 C12           -1.4868    -4.1147    -1.9887 C.2     
  13 C13           -0.6976    -5.6859    -3.2817 C.2     
  14 N14           -1.6049    -6.1852    -2.4829 N.2     
  15 N15           -2.0786    -5.2675    -1.7155 N.2     
  16 C16            0.0820    -6.4414    -4.3269 C.3     
  17 O17           -1.2462     3.4144     0.0386 O.3     
  18 C18           -2.4481     4.0379    -0.0554 C.ar    
  19 F19            1.0830     1.9997     0.3627 F       
  20 C20           -3.3999     3.9099     0.9532 C.ar    
  21 C21           -4.6097     4.5601     0.8203 C.ar    
  22 N22           -4.8692     5.2946    -0.2447 N.ar    
  23 C23           -3.9932     5.4401    -1.2211 C.ar    
  24 C24           -2.7589     4.8271    -1.1606 C.ar    
  25 C25           -4.3437     6.2909    -2.4146 C.3     
  26 C26            0.9536    -7.6063    -3.8533 C.3     
  27 C27           -0.3415    -7.8821    -4.6200 C.3     
  28 C28           -3.8885     7.7515    -2.3990 C.3     
  29 C29           -3.1969     6.7445    -3.3201 C.3     
  30 C30           -2.5974    -2.5328    -0.3581 C.3     
  31 F31           -3.8593    -2.2845    -0.9085 F       
  32 F32           -2.6706    -3.6379     0.4966 F       
  33 F33           -2.1750    -1.4117     0.3644 F       
  34 H34            1.0625    -0.4031    -0.6477 H       
  35 H35           -2.9525    -0.1536    -2.1292 H       
  36 H36           -3.1317     2.1342    -1.2465 H       
  37 H37            0.7073    -1.3155    -3.4306 H       
  38 H38            0.8853    -3.5651    -4.2979 H       
  39 H39            0.4496    -5.8448    -5.1618 H       
  40 H40           -3.1941     3.3096     1.8271 H       
  41 H41           -5.3537     4.4664     1.5976 H       
  42 H42           -2.0466     4.9502    -1.9631 H       
  43 H43           -5.3001     6.0668    -2.8871 H       
  44 H44            1.8943    -7.7764    -4.3769 H       
  45 H45            0.9630    -7.8263    -2.7858 H       
  46 H46           -1.1840    -8.2835    -4.0568 H       
  47 H47           -0.2527    -8.2336    -5.6479 H       
  48 H48           -4.5452     8.4883    -2.8617 H       
  49 H49           -3.3355     8.0971    -1.5256 H       
  50 H50           -2.1889     6.4275    -3.0526 H       
  51 H51           -3.3986     6.8187    -4.3887 H       
@<TRIPOS>BOND
   1    1    2 ar
   2    1   19 1
   3    1    6 ar
   4    2    3 ar
   5    2   34 1
   6    3    4 ar
   7    3    7 1
   8    4    5 ar
   9    4   35 1
  10    5    6 ar
  11    5   36 1
  12    6   17 1
  13    7    8 2
  14    7    9 1
  15    8   30 1
  16    8   12 1
  17    9   10 2
  18    9   37 1
  19   10   11 1
  20   10   38 1
  21   11   12 1
  22   11   13 1
  23   12   15 2
  24   13   14 2
  25   13   16 1
  26   14   15 1
  27   16   26 1
  28   16   27 1
  29   16   39 1
  30   17   18 1
  31   18   20 ar
  32   18   24 ar
  33   20   21 ar
  34   20   40 1
  35   21   22 ar
  36   21   41 1
  37   22   23 ar
  38   23   24 ar
  39   23   25 1
  40   24   42 1
  41   25   28 1
  42   25   29 1
  43   25   43 1
  44   26   27 1
  45   26   44 1
  46   26   45 1
  47   27   46 1
  48   27   47 1
  49   28   29 1
  50   28   48 1
  51   28   49 1
  52   29   50 1
  53   29   51 1
  54   30   31 1
  55   30   32 1
  56   30   33 1

#	End of record

