#	Name: ASD04170001
#	Creating user name:	WinNT
#	Creation time:	15. 06. 2019 20:48

#	Modifying user name:	WinNT
#	Modification time:	15. 06. 2019 20:48

#	Program:	/corina/corina34_cracker 3.40 0067  02.08.2006

@<TRIPOS>MOLECULE
ASD04170001
  38   40    0    0    0
SMALL
NO_CHARGES


@<TRIPOS>ATOM
   1 C1            -0.0169     1.3915     0.0097 C.ar    
   2 C2             0.0021    -0.0041     0.0020 C.ar    
   3 C3            -1.1850    -0.7070     0.0101 C.ar    
   4 C4            -2.3924    -0.0315     0.0257 C.ar    
   5 C5            -2.4181     1.3518     0.0334 C.ar    
   6 C6            -1.2383     2.0667     0.0308 C.ar    
   7 C7             1.2514     2.1513     0.0017 C.2     
   8 N8             1.2298     3.4989     0.0091 N.am    
   9 O9             2.3137     1.5606    -0.0117 O.2     
  10 C10            2.4865     4.2517     0.0012 C.3     
  11 C11            2.1828     5.7512     0.0121 C.3     
  12 C12            1.3347     6.1455    -1.2131 C.3     
  13 C13            2.3960     6.6794    -2.2112 C.3     
  14 C14            3.3927     7.3859    -1.2600 C.3     
  15 N15            3.4321     6.5398    -0.0469 N.3     
  16 C16            3.4956     7.4034     1.1528 C.3     
  17 C17            2.5838     6.7114     2.1955 C.3     
  18 C18            1.4334     6.1471     1.2995 C.3     
  19 H19            0.9439    -0.5325    -0.0105 H       
  20 H20           -1.1717    -1.7869     0.0038 H       
  21 H21           -3.3188    -0.5865     0.0316 H       
  22 H22           -3.3640     1.8730     0.0452 H       
  23 H23           -1.2597     3.1465     0.0368 H       
  24 H24            0.3821     3.9703     0.0197 H       
  25 H25            3.0707     3.9929     0.8842 H       
  26 H26            3.0537     4.0024    -0.8956 H       
  27 H27            0.8222     5.2756    -1.6237 H       
  28 H28            0.6216     6.9278    -0.9531 H       
  29 H29            2.8785     5.8598    -2.7436 H       
  30 H30            1.9528     7.3893    -2.9096 H       
  31 H31            4.3806     7.4379    -1.7176 H       
  32 H32            3.0361     8.3858    -1.0127 H       
  33 H33            4.5189     7.4612     1.5239 H       
  34 H34            3.1188     8.3999     0.9224 H       
  35 H35            3.1102     5.8992     2.6967 H       
  36 H36            2.2012     7.4317     2.9187 H       
  37 H37            0.6957     6.9207     1.0862 H       
  38 H38            0.9638     5.2846     1.7724 H       
@<TRIPOS>BOND
   1    1    2 ar
   2    1    7 1
   3    1    6 ar
   4    2    3 ar
   5    2   19 1
   6    3    4 ar
   7    3   20 1
   8    4    5 ar
   9    4   21 1
  10    5    6 ar
  11    5   22 1
  12    6   23 1
  13    7    8 am
  14    7    9 2
  15    8   10 1
  16    8   24 1
  17   10   11 1
  18   10   25 1
  19   10   26 1
  20   11   12 1
  21   11   15 1
  22   11   18 1
  23   12   13 1
  24   12   27 1
  25   12   28 1
  26   13   14 1
  27   13   29 1
  28   13   30 1
  29   14   15 1
  30   14   31 1
  31   14   32 1
  32   15   16 1
  33   16   17 1
  34   16   33 1
  35   16   34 1
  36   17   18 1
  37   17   35 1
  38   17   36 1
  39   18   37 1
  40   18   38 1

#	End of record

