#	Name: ASD04591101
#	Creating user name:	WinNT
#	Creation time:	15. 06. 2019 20:52

#	Modifying user name:	WinNT
#	Modification time:	15. 06. 2019 20:52

#	Program:	/corina/corina34_cracker 3.40 0067  02.08.2006

@<TRIPOS>MOLECULE
ASD04591101
  68   74    0    0    0
SMALL
NO_CHARGES


@<TRIPOS>ATOM
   1 N1            -2.3461    -2.6648     0.0072 N.ar    
   2 C2            -1.1825    -2.0271     0.0105 C.ar    
   3 N3            -0.0250    -2.6676    -0.0165 N.ar    
   4 C4             0.0129    -3.9964    -0.0479 C.ar    
   5 C5            -1.2065    -4.7032    -0.0517 C.ar    
   6 C6            -2.3985    -3.9863    -0.0231 C.ar    
   7 N7             1.0413    -4.9053    -0.0797 N.pl3   
   8 C8             0.5444    -6.1970    -0.1047 C.ar    
   9 C9            -0.8602    -6.1298    -0.0886 C.ar    
  10 C10            1.1470    -7.4479    -0.1402 C.ar    
  11 N11            0.4159    -8.5437    -0.1582 N.ar    
  12 C12           -0.9050    -8.5151    -0.1438 C.ar    
  13 C13           -1.5889    -7.3185    -0.1084 C.ar    
  14 N14           -1.1794    -0.6424     0.0428 N.pl3   
  15 C15           -2.3810     0.0599    -0.0486 C.ar    
  16 N16           -3.5073    -0.5972    -0.2733 N.ar    
  17 C17           -4.6667     0.0257    -0.3673 C.ar    
  18 C18           -4.7442     1.4038    -0.2328 C.ar    
  19 C19           -3.5781     2.1300     0.0047 C.ar    
  20 C20           -2.3824     1.4423     0.1031 C.ar    
  21 N21           -5.9779     2.0575    -0.3347 N.3     
  22 C22            2.4643    -4.5572    -0.0868 C.3     
  23 C23           -6.2475     2.8625     0.8635 C.3     
  24 C24            2.7912    -3.7006    -1.3226 C.3     
  25 C25            3.3182    -2.3499    -0.7957 C.3     
  26 C26            3.8437    -2.6751     0.6246 C.3     
  27 C27            2.8040    -3.6971     1.1479 C.3     
  28 C28           -7.0620     1.0994    -0.5858 C.3     
  29 C29           -8.3674     1.8581    -0.8355 C.3     
  30 C30           -8.6944     2.7182     0.3884 C.3     
  31 C31           -7.5285     3.6738     0.6571 C.3     
  32 N32           -9.9154     3.4934     0.1316 N.3     
  33 C33          -11.0409     2.6066    -0.2175 C.3     
  34 C34          -11.9367     3.4888     0.6633 C.3     
  35 C35          -10.6208     3.8007     1.3898 C.3     
  36 O36          -12.5081     4.6073    -0.0182 O.3     
  37 H37           -3.3490    -4.4991    -0.0256 H       
  38 H38            2.2243    -7.5228    -0.1535 H       
  39 H39           -1.4573    -9.4430    -0.1601 H       
  40 H40           -2.6688    -7.3021    -0.0965 H       
  41 H41           -0.3417    -0.1611     0.1290 H       
  42 H42           -5.5655    -0.5440    -0.5514 H       
  43 H43           -3.6085     3.2041     0.1136 H       
  44 H44           -1.4599     1.9730     0.2869 H       
  45 H45            3.0701    -5.4633    -0.0897 H       
  46 H46           -6.3693     2.2039     1.7235 H       
  47 H47           -5.4127     3.5406     1.0409 H       
  48 H48            3.5563    -4.1906    -1.9248 H       
  49 H49            1.8911    -3.5439    -1.9171 H       
  50 H50            4.1276    -1.9836    -1.4272 H       
  51 H51            2.5113    -1.6188    -0.7457 H       
  52 H52            4.8358    -3.1239     0.5761 H       
  53 H53            3.8532    -1.7805     1.2472 H       
  54 H54            1.9140    -3.1836     1.5118 H       
  55 H55            3.2381    -4.3139     1.9348 H       
  56 H56           -6.8189     0.4971    -1.4611 H       
  57 H57           -7.1800     0.4492     0.2810 H       
  58 H58           -8.2546     2.4983    -1.7105 H       
  59 H59           -9.1750     1.1463    -1.0064 H       
  60 H60           -8.8456     2.0752     1.2555 H       
  61 H61           -7.7368     4.2592     1.5526 H       
  62 H62           -7.4025     4.3425    -0.1944 H       
  63 H63          -11.3060     2.6370    -1.2744 H       
  64 H64          -10.9263     1.5905     0.1599 H       
  65 H65          -12.6574     2.9339     1.2639 H       
  66 H66          -10.3941     3.1032     2.1962 H       
  67 H67          -10.5299     4.8430     1.6952 H       
  68 H68          -13.0719     5.1612     0.5389 H       
@<TRIPOS>BOND
   1    1    2 ar
   2    1    6 ar
   3    2    3 ar
   4    2   14 1
   5    3    4 ar
   6    4    5 ar
   7    4    7 1
   8    5    6 ar
   9    5    9 1
  10    6   37 1
  11    7    8 1
  12    7   22 1
  13    8    9 ar
  14    8   10 ar
  15    9   13 ar
  16   10   11 ar
  17   10   38 1
  18   11   12 ar
  19   12   13 ar
  20   12   39 1
  21   13   40 1
  22   14   15 1
  23   14   41 1
  24   15   16 ar
  25   15   20 ar
  26   16   17 ar
  27   17   18 ar
  28   17   42 1
  29   18   19 ar
  30   18   21 1
  31   19   20 ar
  32   19   43 1
  33   20   44 1
  34   21   28 1
  35   21   23 1
  36   22   24 1
  37   22   27 1
  38   22   45 1
  39   23   31 1
  40   23   46 1
  41   23   47 1
  42   24   25 1
  43   24   48 1
  44   24   49 1
  45   25   26 1
  46   25   50 1
  47   25   51 1
  48   26   27 1
  49   26   52 1
  50   26   53 1
  51   27   54 1
  52   27   55 1
  53   28   29 1
  54   28   56 1
  55   28   57 1
  56   29   30 1
  57   29   58 1
  58   29   59 1
  59   30   31 1
  60   30   32 1
  61   30   60 1
  62   31   61 1
  63   31   62 1
  64   32   33 1
  65   32   35 1
  66   33   34 1
  67   33   63 1
  68   33   64 1
  69   34   35 1
  70   34   36 1
  71   34   65 1
  72   35   66 1
  73   35   67 1
  74   36   68 1

#	End of record

