#	Name: ASD01151113
#	Creating user name:	WinNT
#	Creation time:	15. 06. 2019 19:05

#	Modifying user name:	WinNT
#	Modification time:	15. 06. 2019 19:05

#	Program:	/corina/corina34_cracker 3.40 0067  02.08.2006

@<TRIPOS>MOLECULE
ASD01151113
  53   56    0    0    0
SMALL
NO_CHARGES


@<TRIPOS>ATOM
   1 C1            -0.0178     1.4608     0.0101 C.3     
   2 N2             0.0021    -0.0041     0.0020 N.am    
   3 C3            -1.1558    -0.6938     0.0094 C.2     
   4 O4            -2.2169    -0.1003     0.0227 O.2     
   5 C5            -1.1358    -2.1699     0.0013 C.ar    
   6 C6             0.0839    -2.8528    -0.0083 C.ar    
   7 C7             0.1061    -4.2305    -0.0159 C.ar    
   8 C8            -1.0817    -4.9483    -0.0147 C.ar    
   9 O9            -1.0540    -6.3046    -0.0227 O.3     
  10 C10            0.2322    -6.9271    -0.0322 C.3     
  11 C11           -2.3095    -4.2732    -0.0047 C.ar    
  12 C12           -2.3342    -2.8844     0.0089 C.ar    
  13 C13           -3.5787    -5.0391    -0.0028 C.2     
  14 N14           -3.5538    -6.3515    -0.0051 N.2     
  15 N15           -4.7184    -7.1220    -0.0030 N.am    
  16 C16           -4.6128    -8.5832    -0.0057 C.3     
  17 C17           -3.8602    -9.0378    -1.2579 C.3     
  18 C18           -3.8644    -9.0350     1.2218 C.ar    
  19 C19           -2.7702    -8.3172     1.6672 C.ar    
  20 C20           -2.0835    -8.7311     2.7930 C.ar    
  21 C21           -2.4914    -9.8641     3.4742 C.ar    
  22 Cl22          -1.6297   -10.3842     4.8887 Cl      
  23 C23           -3.5866   -10.5821     3.0280 C.ar    
  24 C24           -4.2759   -10.1640     1.9053 C.ar    
  25 C25           -5.9412    -6.5461     0.0019 C.2     
  26 O26           -6.9494    -7.2316     0.0045 O.2     
  27 C27           -6.0336    -5.0969     0.0046 C.2     
  28 C28           -7.0843    -4.0854     0.0096 C.2     
  29 C29           -8.5739    -4.3133     0.0145 C.3     
  30 N30           -6.4584    -2.9419     0.0094 N.2     
  31 O31           -5.2534    -3.0590     0.0053 O.3     
  32 C32           -4.8551    -4.3354     0.0076 C.2     
  33 H33            1.0048     1.8381     0.0023 H       
  34 H34           -0.5450     1.8219    -0.8730 H       
  35 H35           -0.5280     1.8123     0.9069 H       
  36 H36            0.8486    -0.4776    -0.0086 H       
  37 H37            1.0112    -2.2992    -0.0100 H       
  38 H38            1.0510    -4.7535    -0.0233 H       
  39 H39            0.7871    -6.6281     0.8570 H       
  40 H40            0.1114    -8.0104    -0.0379 H       
  41 H41            0.7790    -6.6178    -0.9229 H       
  42 H42           -3.2779    -2.3594     0.0207 H       
  43 H43           -5.6115    -9.0197    -0.0036 H       
  44 H44           -3.7816   -10.1249    -1.2599 H       
  45 H45           -4.4014    -8.7110    -2.1458 H       
  46 H46           -2.8614    -8.6013    -1.2600 H       
  47 H47           -2.4517    -7.4329     1.1352 H       
  48 H48           -1.2284    -8.1703     3.1407 H       
  49 H49           -3.9053   -11.4668     3.5592 H       
  50 H50           -5.1337   -10.7217     1.5597 H       
  51 H51           -8.9295    -4.3696     1.0434 H       
  52 H52           -9.0695    -3.4878    -0.4965 H       
  53 H53           -8.8003    -5.2473    -0.4998 H       
@<TRIPOS>BOND
   1    1    2 1
   2    1   33 1
   3    1   34 1
   4    1   35 1
   5    2    3 am
   6    2   36 1
   7    3    4 2
   8    3    5 1
   9    5   12 ar
  10    5    6 ar
  11    6    7 ar
  12    6   37 1
  13    7    8 ar
  14    7   38 1
  15    8    9 1
  16    8   11 ar
  17    9   10 1
  18   10   39 1
  19   10   40 1
  20   10   41 1
  21   11   12 ar
  22   11   13 1
  23   12   42 1
  24   13   32 1
  25   13   14 2
  26   14   15 1
  27   15   16 1
  28   15   25 am
  29   16   17 1
  30   16   18 1
  31   16   43 1
  32   17   44 1
  33   17   45 1
  34   17   46 1
  35   18   24 ar
  36   18   19 ar
  37   19   20 ar
  38   19   47 1
  39   20   21 ar
  40   20   48 1
  41   21   22 1
  42   21   23 ar
  43   23   24 ar
  44   23   49 1
  45   24   50 1
  46   25   26 2
  47   25   27 1
  48   27   32 2
  49   27   28 1
  50   28   29 1
  51   28   30 2
  52   29   51 1
  53   29   52 1
  54   29   53 1
  55   30   31 1
  56   31   32 1

#	End of record

