#	Name: ASD01940370
#	Creating user name:	WinNT
#	Creation time:	15. 06. 2019 20:12

#	Modifying user name:	WinNT
#	Modification time:	15. 06. 2019 20:12

#	Program:	/corina/corina34_cracker 3.40 0067  02.08.2006

@<TRIPOS>MOLECULE
ASD01940370
  36   37    0    0    0
SMALL
NO_CHARGES


@<TRIPOS>ATOM
   1 C1             0.4999     0.9036     2.3683 C.ar    
   2 N2             1.3016    -1.9627     0.2048 N.pl3   
   3 O3            -0.3728    -3.4105     1.3801 O.2     
   4 C4             0.5304     0.0663     1.2688 C.ar    
   5 N5            -0.0309    -5.5263     1.9642 N.am    
   6 O6            -1.3178    -5.6172     2.5478 O.3     
   7 C7             1.2685    -1.1123     1.3150 C.ar    
   8 O8            -3.9771    -6.7004     2.6689 O.3     
   9 C9             1.9714    -1.4426     2.4655 C.ar    
  10 C10            1.9365    -0.6010     3.5609 C.ar    
  11 C11            1.2023     0.5700     3.5129 C.ar    
  12 C12            1.7094    -4.2786     0.7866 C.ar    
  13 C13            2.5585    -5.3891     0.7812 C.ar    
  14 C14            3.8068    -5.2981     0.2078 C.ar    
  15 C15            4.2295    -4.1069    -0.3671 C.ar    
  16 C16            3.4003    -2.9986    -0.3697 C.ar    
  17 C17            2.1373    -3.0742     0.2051 C.ar    
  18 C18            0.3704    -4.3731     1.3937 C.2     
  19 C19           -1.6100    -6.8959     3.1148 C.3     
  20 C20           -3.0180    -6.8789     3.7131 C.3     
  21 F21            5.4566    -4.0293    -0.9269 F       
  22 F22            3.8193    -1.8429    -0.9302 F       
  23 F23           -0.1556     0.3916     0.1513 F       
  24 I24            1.1540     1.8420     5.1768 I       
  25 H25           -0.0688     1.8210     2.3323 H       
  26 H26            0.7418    -1.7770    -0.5652 H       
  27 H27            0.5619    -6.2941     1.9751 H       
  28 H28           -4.8938    -6.6798     2.9761 H       
  29 H29            2.5449    -2.3569     2.5046 H       
  30 H30            2.4832    -0.8583     4.4561 H       
  31 H31            2.2354    -6.3182     1.2271 H       
  32 H32            4.4608    -6.1575     0.2054 H       
  33 H33           -1.5543    -7.6589     2.3384 H       
  34 H34           -0.8853    -7.1204     3.8975 H       
  35 H35           -3.1000    -6.0584     4.4260 H       
  36 H36           -3.2076    -7.8235     4.2230 H       
@<TRIPOS>BOND
   1    1    4 ar
   2    1   11 ar
   3    1   25 1
   4    2    7 1
   5    2   17 1
   6    2   26 1
   7    3   18 2
   8    4    7 ar
   9    4   23 1
  10    5    6 1
  11    5   18 am
  12    5   27 1
  13    6   19 1
  14    7    9 ar
  15    8   20 1
  16    8   28 1
  17    9   10 ar
  18    9   29 1
  19   10   11 ar
  20   10   30 1
  21   11   24 1
  22   12   13 ar
  23   12   17 ar
  24   12   18 1
  25   13   14 ar
  26   13   31 1
  27   14   15 ar
  28   14   32 1
  29   15   16 ar
  30   15   21 1
  31   16   17 ar
  32   16   22 1
  33   19   20 1
  34   19   33 1
  35   19   34 1
  36   20   35 1
  37   20   36 1

#	End of record

