#	Name: ASD00110018
#	Creating user name:	WinNT
#	Creation time:	15. 06. 2019 18:30

#	Modifying user name:	WinNT
#	Modification time:	15. 06. 2019 18:30

#	Program:	/corina/corina34_cracker 3.40 0067  02.08.2006

@<TRIPOS>MOLECULE
ASD00110018
  68   70    0    0    0
SMALL
NO_CHARGES


@<TRIPOS>ATOM
   1 C1             1.4550     1.5573    -0.4223 C.3     
   2 C2             1.3128     3.9630     0.2305 C.3     
   3 C3             0.5730     4.2743    -1.0450 C.2     
   4 N4             1.2591     4.5451    -2.1730 N.am    
   5 O5            -0.6397     4.2812    -1.0564 O.2     
   6 C6             0.5399     4.8477    -3.4130 C.3     
   7 C7             1.4306     5.6929    -4.3258 C.3     
   8 O8             0.6760     6.1266    -5.4592 O.3     
   9 C9             0.1753     3.5423    -4.1227 C.3     
  10 O10            1.3686     2.8866    -4.5566 O.3     
  11 C11            2.3950     0.3634    -0.6011 C.3     
  12 C12            1.6048    -0.8322    -1.1367 C.3     
  13 C13            2.5306    -2.0081    -1.3129 C.ar    
  14 C14            2.7244    -2.8972    -0.2722 C.ar    
  15 C15            3.5738    -3.9758    -0.4338 C.ar    
  16 C16            4.2290    -4.1656    -1.6361 C.ar    
  17 C17            4.0345    -3.2770    -2.6770 C.ar    
  18 C18            3.1818    -2.2008    -2.5169 C.ar    
  19 N19            0.3495     3.6103     1.2812 N.3     
  20 C20           -0.4720     2.4598     0.8839 C.3     
  21 C21            0.4267     1.2402     0.6670 C.3     
  22 C22            2.2648     2.7883    -0.0059 C.3     
  23 C23           -0.7071     3.8496    -5.3342 C.3     
  24 C24           -0.4795     6.9001    -5.1296 C.3     
  25 C25            1.9386     6.9142    -3.5551 C.3     
  26 C26            0.7445     7.7793    -3.1401 C.3     
  27 C27           -0.0483     8.1699    -4.3912 C.3     
  28 S28           -1.3580     7.3536    -6.6506 S.3     
  29 O29            0.7734     8.9650    -5.2483 O.3     
  30 O30           -0.0965     7.0392    -2.2529 O.3     
  31 O31            2.6444     6.4837    -2.3895 O.3     
  32 C32           -2.0417     5.7707    -7.2143 C.3     
  33 H33            0.9410     1.7601    -1.3618 H       
  34 H34            1.8851     4.8372     0.5410 H       
  35 H35            2.2291     4.5396    -2.1639 H       
  36 H36           -0.3699     5.4008    -3.1796 H       
  37 H37            2.2788     5.0957    -4.6605 H       
  38 H38           -0.3660     2.8934    -3.4342 H       
  39 H39            1.2129     2.0499    -5.0158 H       
  40 H40            3.1830     0.6241    -1.3077 H       
  41 H41            2.8397     0.1040     0.3596 H       
  42 H42            0.8168    -1.0929    -0.4301 H       
  43 H43            1.1600    -0.5728    -2.0975 H       
  44 H44            2.2126    -2.7489     0.6671 H       
  45 H45            3.7257    -4.6700     0.3794 H       
  46 H46            4.8931    -5.0079    -1.7621 H       
  47 H47            4.5466    -3.4251    -3.6163 H       
  48 H48            3.0269    -1.5087    -3.3314 H       
  49 H49            0.8182     3.4345     2.1573 H       
  50 H50           -1.1962     2.2422     1.6689 H       
  51 H51           -0.9987     2.6920    -0.0417 H       
  52 H52           -0.1816     0.3905     0.3569 H       
  53 H53            0.9432     0.9990     1.5960 H       
  54 H54            2.8103     2.5714     0.9125 H       
  55 H55            2.9698     3.0446    -0.7967 H       
  56 H56           -0.1197     4.3745    -6.0877 H       
  57 H57           -1.0863     2.9176    -5.7534 H       
  58 H58           -1.5439     4.4758    -5.0247 H       
  59 H59           -1.1391     6.3136    -4.4900 H       
  60 H60            2.6055     7.4954    -4.1920 H       
  61 H61            1.1025     8.6790    -2.6396 H       
  62 H62           -0.9309     8.7395    -4.1001 H       
  63 H63            0.3344     9.2486    -6.0619 H       
  64 H64           -0.8742     7.5273    -1.9494 H       
  65 H65            2.9949     7.2073    -1.8523 H       
  66 H66           -2.6000     5.9244    -8.1378 H       
  67 H67           -1.2288     5.0672    -7.3939 H       
  68 H68           -2.7072     5.3696    -6.4499 H       
@<TRIPOS>BOND
   1    1   11 1
   2    1   22 1
   3    1   21 1
   4    1   33 1
   5    2    3 1
   6    2   19 1
   7    2   22 1
   8    2   34 1
   9    3    4 am
  10    3    5 2
  11    4    6 1
  12    4   35 1
  13    6    9 1
  14    6    7 1
  15    6   36 1
  16    7   25 1
  17    7    8 1
  18    7   37 1
  19    8   24 1
  20    9   10 1
  21    9   23 1
  22    9   38 1
  23   10   39 1
  24   11   12 1
  25   11   40 1
  26   11   41 1
  27   12   13 1
  28   12   42 1
  29   12   43 1
  30   13   14 ar
  31   13   18 ar
  32   14   15 ar
  33   14   44 1
  34   15   16 ar
  35   15   45 1
  36   16   17 ar
  37   16   46 1
  38   17   18 ar
  39   17   47 1
  40   18   48 1
  41   19   20 1
  42   19   49 1
  43   20   21 1
  44   20   50 1
  45   20   51 1
  46   21   52 1
  47   21   53 1
  48   22   54 1
  49   22   55 1
  50   23   56 1
  51   23   57 1
  52   23   58 1
  53   24   28 1
  54   24   27 1
  55   24   59 1
  56   25   26 1
  57   25   31 1
  58   25   60 1
  59   26   27 1
  60   26   30 1
  61   26   61 1
  62   27   29 1
  63   27   62 1
  64   28   32 1
  65   29   63 1
  66   30   64 1
  67   31   65 1
  68   32   66 1
  69   32   67 1
  70   32   68 1

#	End of record

