#	Name: ASD04880177
#	Creating user name:	WinNT
#	Creation time:	15. 06. 2019 20:52

#	Modifying user name:	WinNT
#	Modification time:	15. 06. 2019 20:52

#	Program:	/corina/corina34_cracker 3.40 0067  02.08.2006

@<TRIPOS>MOLECULE
ASD04880177
  38   40    0    0    0
SMALL
NO_CHARGES


@<TRIPOS>ATOM
   1 C1            -0.0144     1.2089     0.0087 C.2     
   2 O2             0.0021    -0.0041     0.0020 O.2     
   3 C3             1.2803     1.9801     0.0005 C.3     
   4 N4            -1.1906     1.8669     0.0178 N.am    
   5 N5            -1.3446     3.2517     0.0256 N.2     
   6 C6            -2.5714     3.6449     0.0329 C.2     
   7 C7            -3.4874     2.4419     0.0307 C.3     
   8 C8            -2.5220     1.2401     0.0148 C.3     
   9 C9            -3.0141     5.0510     0.0425 C.ar    
  10 C10           -2.0711     6.0821     0.0437 C.ar    
  11 C11           -2.4917     7.3989     0.0522 C.ar    
  12 C12           -3.8529     7.6955     0.0600 C.ar    
  13 C13           -4.7894     6.6720     0.0589 C.ar    
  14 C14           -4.3776     5.3561     0.0446 C.ar    
  15 O15           -4.2644     8.9910     0.0693 O.3     
  16 C16           -5.6743     9.2238     0.0770 C.3     
  17 O17           -1.5766     8.4049     0.0533 O.3     
  18 C18           -0.1982     8.0281     0.0455 C.3     
  19 C19            2.5817     1.1757    -0.0163 C.3     
  20 C20            2.1283     1.9234    -1.2718 C.3     
  21 H21            1.2740     2.9154     0.5602 H       
  22 H22           -4.1041     2.4292     0.9294 H       
  23 H23           -4.1118     2.4384    -0.8627 H       
  24 H24           -2.6634     0.6442    -0.8868 H       
  25 H25           -2.6597     0.6278     0.9060 H       
  26 H26           -1.0162     5.8509     0.0383 H       
  27 H27           -5.8437     6.9065     0.0650 H       
  28 H28           -5.1088     4.5613     0.0392 H       
  29 H29           -6.1205     8.7812    -0.8135 H       
  30 H30           -6.1124     8.7710     0.9664 H       
  31 H31           -5.8653    10.2970     0.0840 H       
  32 H32            0.4233     8.9235     0.0473 H       
  33 H33            0.0206     7.4321     0.9315 H       
  34 H34            0.0130     7.4411    -0.8484 H       
  35 H35            3.4316     1.5819     0.5321 H       
  36 H36            2.5014     0.0887    -0.0213 H       
  37 H37            1.7498     1.3283    -2.1028 H       
  38 H38            2.6800     2.8216    -1.5494 H       
@<TRIPOS>BOND
   1    1    2 2
   2    1    3 1
   3    1    4 am
   4    3   19 1
   5    3   20 1
   6    3   21 1
   7    4    5 1
   8    4    8 1
   9    5    6 2
  10    6    7 1
  11    6    9 1
  12    7    8 1
  13    7   22 1
  14    7   23 1
  15    8   24 1
  16    8   25 1
  17    9   10 ar
  18    9   14 ar
  19   10   11 ar
  20   10   26 1
  21   11   12 ar
  22   11   17 1
  23   12   13 ar
  24   12   15 1
  25   13   14 ar
  26   13   27 1
  27   14   28 1
  28   15   16 1
  29   16   29 1
  30   16   30 1
  31   16   31 1
  32   17   18 1
  33   18   32 1
  34   18   33 1
  35   18   34 1
  36   19   20 1
  37   19   35 1
  38   19   36 1
  39   20   37 1
  40   20   38 1

#	End of record

