#	Name: ASD03081297
#	Creating user name:	WinNT
#	Creation time:	15. 06. 2019 20:27

#	Modifying user name:	WinNT
#	Modification time:	15. 06. 2019 20:27

#	Program:	/corina/corina34_cracker 3.40 0067  02.08.2006

@<TRIPOS>MOLECULE
ASD03081297
  34   36    0    0    0
SMALL
NO_CHARGES


@<TRIPOS>ATOM
   1 N1            -0.0168     1.3900     0.0097 N.pl3   
   2 C2             0.0021    -0.0041     0.0020 C.ar    
   3 C3             1.2169    -0.6816    -0.0132 C.ar    
   4 C4             1.2391    -2.0587    -0.0204 C.ar    
   5 C5             0.0397    -2.7752    -0.0123 C.ar    
   6 C6            -1.1788    -2.0916     0.0030 C.ar    
   7 C7            -1.1938    -0.7144     0.0154 C.ar    
   8 O8            -1.0164    -5.0644    -0.0141 O.3     
   9 C9             0.0597    -4.2513    -0.0204 C.2     
  10 N10            1.1295    -5.0148    -0.0351 N.2     
  11 N11            0.7722    -6.2508    -0.0382 N.2     
  12 C12           -0.5389    -6.3261    -0.0256 C.2     
  13 C13           -2.7383    -7.5062    -0.0101 C.ar    
  14 C14           -1.3434    -7.5653    -0.0243 C.ar    
  15 C15           -0.7200    -8.8188    -0.0376 C.ar    
  16 C16           -1.5191    -9.9487    -0.0362 C.ar    
  17 C17           -2.8947    -9.8051    -0.0217 C.ar    
  18 N18           -3.4551    -8.6107    -0.0093 N.ar    
  19 C19            1.2418     2.1397     0.0017 C.3     
  20 C20           -1.2954     2.1052     0.0196 C.3     
  21 H21            2.1437    -0.1271    -0.0198 H       
  22 H22            2.1826    -2.5841    -0.0326 H       
  23 H23           -2.1077    -2.6425     0.0093 H       
  24 H24           -2.1353    -0.1854     0.0318 H       
  25 H25           -3.2334    -6.5465     0.0049 H       
  26 H26            0.3567    -8.9019    -0.0491 H       
  27 H27           -1.0732   -10.9323    -0.0466 H       
  28 H28           -3.5205   -10.6854    -0.0210 H       
  29 H29            1.5441     2.3311    -1.0279 H       
  30 H30            1.1035     3.0874     0.5220 H       
  31 H31            2.0142     1.5582     0.5051 H       
  32 H32           -1.6076     2.2769     1.0497 H       
  33 H33           -1.1804     3.0620    -0.4896 H       
  34 H34           -2.0494     1.5086    -0.4939 H       
@<TRIPOS>BOND
   1    1    2 1
   2    1   19 1
   3    1   20 1
   4    2    3 ar
   5    2    7 ar
   6    3    4 ar
   7    3   21 1
   8    4    5 ar
   9    4   22 1
  10    5    6 ar
  11    5    9 1
  12    6    7 ar
  13    6   23 1
  14    7   24 1
  15    8    9 1
  16    8   12 1
  17    9   10 2
  18   10   11 1
  19   11   12 2
  20   12   14 1
  21   13   14 ar
  22   13   18 ar
  23   13   25 1
  24   14   15 ar
  25   15   16 ar
  26   15   26 1
  27   16   17 ar
  28   16   27 1
  29   17   18 ar
  30   17   28 1
  31   19   29 1
  32   19   30 1
  33   19   31 1
  34   20   32 1
  35   20   33 1
  36   20   34 1

#	End of record

