#	Name: ASD04430059
#	Creating user name:	WinNT
#	Creation time:	15. 06. 2019 20:49

#	Modifying user name:	WinNT
#	Modification time:	15. 06. 2019 20:49

#	Program:	/corina/corina34_cracker 3.40 0067  02.08.2006

@<TRIPOS>MOLECULE
ASD04430059
  39   41    0    0    0
SMALL
NO_CHARGES


@<TRIPOS>ATOM
   1 C1             0.0089     1.2918     0.1772 C.2     
   2 N2             0.0206    -0.0082     0.1264 N.2     
   3 C3             1.1652    -0.7040     0.0503 C.2     
   4 C4             2.3868    -0.0123     0.0247 C.2     
   5 C5             2.3525     1.4488     0.0828 C.2     
   6 N6             1.1386     2.0433     0.1579 N.am    
   7 N7             2.8616    -2.1585    -0.0781 N.2     
   8 N8             1.4684    -2.0294    -0.0136 N.pl3   
   9 C9             3.4106    -0.9748    -0.0560 C.2     
  10 O10            3.3780     2.1063     0.0640 O.2     
  11 C11           -1.3212     1.9959     0.2551 C.3     
  12 C12           -2.4472     0.9601     0.2576 C.3     
  13 C13           -3.7892     1.6660     0.4619 C.3     
  14 C14           -2.4601     0.2174    -1.0799 C.3     
  15 F15           -3.9983     2.5796    -0.5767 F       
  16 F16           -4.8188     0.7189     0.4643 F       
  17 F17           -3.7774     2.3451     1.6850 F       
  18 C18            0.5458    -3.0833    -0.0143 C.ar    
  19 C19            0.6597    -4.1072    -0.9457 C.ar    
  20 C20           -0.2513    -5.1450    -0.9435 C.ar    
  21 C21           -1.2765    -5.1653    -0.0154 C.ar    
  22 C22           -1.3926    -4.1474     0.9131 C.ar    
  23 C23           -0.4812    -3.1094     0.9198 C.ar    
  24 C24            1.7758    -4.0855    -1.9580 C.3     
  25 H25            1.0761     3.0104     0.1980 H       
  26 H26            4.4701    -0.7689    -0.0930 H       
  27 H27           -1.3674     2.5851     1.1710 H       
  28 H28           -1.4349     2.6540    -0.6064 H       
  29 H29           -2.2843     0.2483     1.0669 H       
  30 H30           -3.2623    -0.5206    -1.0781 H       
  31 H31           -2.6230     0.9292    -1.8892 H       
  32 H32           -1.5040    -0.2856    -1.2255 H       
  33 H33           -0.1633    -5.9416    -1.6675 H       
  34 H34           -1.9881    -5.9777    -0.0162 H       
  35 H35           -2.1944    -4.1658     1.6363 H       
  36 H36           -0.5699    -2.3168     1.6479 H       
  37 H37            2.6735    -4.5202    -1.5184 H       
  38 H38            1.4832    -4.6644    -2.8340 H       
  39 H39            1.9781    -3.0561    -2.2538 H       
@<TRIPOS>BOND
   1    1    2 2
   2    1    6 1
   3    1   11 1
   4    2    3 1
   5    3    4 2
   6    3    8 1
   7    4    5 1
   8    4    9 1
   9    5    6 am
  10    5   10 2
  11    6   25 1
  12    7    8 1
  13    7    9 2
  14    8   18 1
  15    9   26 1
  16   11   12 1
  17   11   27 1
  18   11   28 1
  19   12   13 1
  20   12   14 1
  21   12   29 1
  22   13   15 1
  23   13   16 1
  24   13   17 1
  25   14   30 1
  26   14   31 1
  27   14   32 1
  28   18   19 ar
  29   18   23 ar
  30   19   20 ar
  31   19   24 1
  32   20   21 ar
  33   20   33 1
  34   21   22 ar
  35   21   34 1
  36   22   23 ar
  37   22   35 1
  38   23   36 1
  39   24   37 1
  40   24   38 1
  41   24   39 1

#	End of record

