#	Name: ASD01240013
#	Creating user name:	WinNT
#	Creation time:	15. 06. 2019 19:15

#	Modifying user name:	WinNT
#	Modification time:	15. 06. 2019 19:15

#	Program:	/corina/corina34_cracker 3.40 0067  02.08.2006

@<TRIPOS>MOLECULE
ASD01240013
  22   21    0    0    0
SMALL
NO_CHARGES


@<TRIPOS>ATOM
   1 C1             0.0210     1.5132     0.0318 C.2     
   2 N2             1.0935    -0.5612    -0.6400 N.3     
   3 C3            -0.1010     0.0116    -0.0052 C.3     
   4 C4            -0.2270    -0.5252     1.4220 C.3     
   5 C5            -0.4557    -2.0374     1.3798 C.3     
   6 C6            -0.4371    -2.5960     2.8041 C.3     
   7 C7            -1.8118    -2.3304     0.7348 C.3     
   8 O8             1.1059     2.0340    -0.0760 O.2     
   9 O9            -1.0763     2.2722     0.1790 O.3     
  10 H10            1.1640    -0.2728    -1.6043 H       
  11 H11            1.9277    -0.3169    -0.1276 H       
  12 H12           -0.9857    -0.2671    -0.5776 H       
  13 H13            0.6890    -0.3114     1.9728 H       
  14 H14           -1.0699    -0.0440     1.9180 H       
  15 H15            0.3343    -2.5081     0.7946 H       
  16 H16            0.5568    -2.4659     3.2324 H       
  17 H17           -1.1676    -2.0632     3.4129 H       
  18 H18           -0.6871    -3.6567     2.7817 H       
  19 H19           -1.8251    -1.9324    -0.2799 H       
  20 H20           -1.9747    -3.4077     0.7048 H       
  21 H21           -2.6018    -1.8596     1.3200 H       
  22 H22           -0.9480     3.2305     0.1970 H       
@<TRIPOS>BOND
   1    1    3 1
   2    1    8 2
   3    1    9 1
   4    2    3 1
   5    2   10 1
   6    2   11 1
   7    3    4 1
   8    3   12 1
   9    4    5 1
  10    4   13 1
  11    4   14 1
  12    5    6 1
  13    5    7 1
  14    5   15 1
  15    6   16 1
  16    6   17 1
  17    6   18 1
  18    7   19 1
  19    7   20 1
  20    7   21 1
  21    9   22 1

#	End of record

