#	Name: ASD01720166
#	Creating user name:	WinNT
#	Creation time:	15. 06. 2019 19:23

#	Modifying user name:	WinNT
#	Modification time:	15. 06. 2019 19:23

#	Program:	/corina/corina34_cracker 3.40 0067  02.08.2006

@<TRIPOS>MOLECULE
ASD01720166
  46   48    0    0    0
SMALL
NO_CHARGES


@<TRIPOS>ATOM
   1 C1             0.1907     0.9719    -0.0571 C.ar    
   2 N2             0.3246    -0.3194    -0.3208 N.ar    
   3 C3             1.5219    -0.8562    -0.5028 C.ar    
   4 N4             2.6275    -0.1303    -0.4289 N.ar    
   5 C5             2.5666     1.1707    -0.1679 C.ar    
   6 C6             1.3191     1.7648     0.0281 C.ar    
   7 N7             3.7288     1.9295    -0.0906 N.am    
   8 C8             3.7887     3.3972    -0.0139 C.3     
   9 C9             5.2981     3.6999     0.0523 C.3     
  10 O10            5.9239     2.3849     0.0064 O.3     
  11 C11            4.9772     1.4428    -0.0680 C.2     
  12 N12            1.6202    -2.2093    -0.7765 N.pl3   
  13 C13            0.4092    -3.0293    -0.8618 C.3     
  14 C14            0.6768    -4.2318    -1.7298 C.ar    
  15 C15            0.0064    -3.4915     0.5399 C.3     
  16 C16           -0.2872    -4.6720    -2.6173 C.ar    
  17 C17           -0.0417    -5.7751    -3.4134 C.ar    
  18 C18            1.1680    -6.4377    -3.3223 C.ar    
  19 C19            2.1324    -5.9970    -2.4354 C.ar    
  20 C20            1.8886    -4.8913    -1.6424 C.ar    
  21 C21            3.1686     4.0264    -1.2632 C.3     
  22 C22            3.2715     5.5502    -1.1713 C.3     
  23 C23            3.9174     3.5386    -2.5051 C.3     
  24 O24            5.2265     0.2547    -0.1145 O.2     
  25 H25           -0.7901     1.4011     0.0853 H       
  26 H26            1.2375     2.8203     0.2416 H       
  27 H27            3.2868     3.7544     0.8853 H       
  28 H28            5.6055     4.2995    -0.8046 H       
  29 H29            5.5454     4.2085     0.9841 H       
  30 H30            2.4910    -2.6148    -0.9118 H       
  31 H31           -0.3986    -2.4402    -1.2962 H       
  32 H32           -0.1872    -2.6217     1.1677 H       
  33 H33           -0.8946    -4.1016     0.4765 H       
  34 H34            0.8141    -4.0806     0.9743 H       
  35 H35           -1.2324    -4.1543    -2.6885 H       
  36 H36           -0.7952    -6.1194    -4.1063 H       
  37 H37            1.3596    -7.3000    -3.9438 H       
  38 H38            3.0775    -6.5149    -2.3640 H       
  39 H39            2.6421    -4.5469    -0.9495 H       
  40 H40            2.1203     3.7366    -1.3338 H       
  41 H41            4.3199     5.8400    -1.1007 H       
  42 H42            2.8297     5.9984    -2.0613 H       
  43 H43            2.7381     5.8977    -0.2866 H       
  44 H44            4.9658     3.8285    -2.4345 H       
  45 H45            3.8441     2.4531    -2.5705 H       
  46 H46            3.4756     3.9869    -3.3951 H       
@<TRIPOS>BOND
   1    1    2 ar
   2    1    6 ar
   3    1   25 1
   4    2    3 ar
   5    3    4 ar
   6    3   12 1
   7    4    5 ar
   8    5    6 ar
   9    5    7 1
  10    6   26 1
  11    7    8 1
  12    7   11 am
  13    8    9 1
  14    8   21 1
  15    8   27 1
  16    9   10 1
  17    9   28 1
  18    9   29 1
  19   10   11 1
  20   11   24 2
  21   12   13 1
  22   12   30 1
  23   13   14 1
  24   13   15 1
  25   13   31 1
  26   14   16 ar
  27   14   20 ar
  28   15   32 1
  29   15   33 1
  30   15   34 1
  31   16   17 ar
  32   16   35 1
  33   17   18 ar
  34   17   36 1
  35   18   19 ar
  36   18   37 1
  37   19   20 ar
  38   19   38 1
  39   20   39 1
  40   21   22 1
  41   21   23 1
  42   21   40 1
  43   22   41 1
  44   22   42 1
  45   22   43 1
  46   23   44 1
  47   23   45 1
  48   23   46 1

#	End of record

