#	Name: ASD01882774
#	Creating user name:	WinNT
#	Creation time:	15. 06. 2019 19:45

#	Modifying user name:	WinNT
#	Modification time:	15. 06. 2019 19:45

#	Program:	/corina/corina34_cracker 3.40 0067  02.08.2006

@<TRIPOS>MOLECULE
ASD01882774
  49   51    0    0    0
SMALL
NO_CHARGES


@<TRIPOS>ATOM
   1 C1            -0.0170     1.4020     0.0098 C.2     
   2 C2             0.0021    -0.0041     0.0020 C.2     
   3 C3            -1.2245    -0.6972     0.0105 C.2     
   4 C4            -2.3888    -0.0097     0.0258 C.2     
   5 N5            -2.4081     1.3481     0.0332 N.am    
   6 C6            -1.2689     2.0649     0.0312 C.2     
   7 C7             1.2047     2.1490     0.0021 C.1     
   8 C8            -3.6955     2.0471     0.0493 C.3     
   9 C9            -4.1298     2.2827     1.4973 C.3     
  10 O10           -1.3144     3.2832     0.0385 O.2     
  11 N11            2.1739     2.7415    -0.0040 N.1     
  12 C12           -5.4743     3.0128     1.5141 C.3     
  13 C13           -6.5522     2.1105     0.9099 C.3     
  14 C14           -5.8488     3.3589     2.9566 C.3     
  15 C15            1.2831    -0.7400    -0.0152 C.ar    
  16 C16            2.1585    -0.6540     1.0701 C.ar    
  17 C17            3.3492    -1.3404     1.0509 C.ar    
  18 C18            3.6959    -2.1288    -0.0512 C.ar    
  19 C19            2.8229    -2.2115    -1.1281 C.ar    
  20 C20            1.6251    -1.5315    -1.1143 C.ar    
  21 N21            4.8441    -2.8929    -0.2614 N.am    
  22 C22            4.7773    -3.5555    -1.5663 C.3     
  23 C23            3.4338    -3.1188    -2.1727 C.3     
  24 C24            5.8665    -3.0049     0.6095 C.2     
  25 C25            5.8193    -2.2719     1.9254 C.3     
  26 O26            6.8246    -3.6957     0.3343 O.2     
  27 H27           -1.2348    -1.7771     0.0045 H       
  28 H28           -3.3228    -0.5518     0.0318 H       
  29 H29           -3.5950     3.0054    -0.4604 H       
  30 H30           -4.4443     1.4411    -0.4606 H       
  31 H31           -4.2303     1.3245     2.0070 H       
  32 H32           -3.3810     2.8887     2.0073 H       
  33 H33           -5.3975     3.9291     0.9288 H       
  34 H34           -7.5100     2.6306     0.9218 H       
  35 H35           -6.2854     1.8639    -0.1178 H       
  36 H36           -6.6289     1.1942     1.4952 H       
  37 H37           -5.0809     4.0017     3.3871 H       
  38 H38           -6.8066     3.8790     2.9686 H       
  39 H39           -5.9255     2.4426     3.5419 H       
  40 H40            1.8995    -0.0472     1.9252 H       
  41 H41            4.0221    -1.2703     1.8928 H       
  42 H42            0.9540    -1.6032    -1.9574 H       
  43 H43            5.6020    -3.2279    -2.1993 H       
  44 H44            4.8020    -4.6381    -1.4423 H       
  45 H45            2.7948    -3.9849    -2.3449 H       
  46 H46            3.5955    -2.5735    -3.1025 H       
  47 H47            4.9508    -2.6031     2.4948 H       
  48 H48            6.7267    -2.4824     2.4914 H       
  49 H49            5.7461    -1.2000     1.7417 H       
@<TRIPOS>BOND
   1    1    2 2
   2    1    7 1
   3    1    6 1
   4    2    3 1
   5    2   15 1
   6    3    4 2
   7    3   27 1
   8    4    5 1
   9    4   28 1
  10    5    6 am
  11    5    8 1
  12    6   10 2
  13    7   11 3
  14    8    9 1
  15    8   29 1
  16    8   30 1
  17    9   12 1
  18    9   31 1
  19    9   32 1
  20   12   13 1
  21   12   14 1
  22   12   33 1
  23   13   34 1
  24   13   35 1
  25   13   36 1
  26   14   37 1
  27   14   38 1
  28   14   39 1
  29   15   16 ar
  30   15   20 ar
  31   16   17 ar
  32   16   40 1
  33   17   18 ar
  34   17   41 1
  35   18   19 ar
  36   18   21 1
  37   19   20 ar
  38   19   23 1
  39   20   42 1
  40   21   22 1
  41   21   24 am
  42   22   23 1
  43   22   43 1
  44   22   44 1
  45   23   45 1
  46   23   46 1
  47   24   25 1
  48   24   26 2
  49   25   47 1
  50   25   48 1
  51   25   49 1

#	End of record

