#	Name: ASD01812655
#	Creating user name:	WinNT
#	Creation time:	15. 06. 2019 19:29

#	Modifying user name:	WinNT
#	Modification time:	15. 06. 2019 19:29

#	Program:	/corina/corina34_cracker 3.40 0067  02.08.2006

@<TRIPOS>MOLECULE
ASD01812655
  57   62    0    0    0
SMALL
NO_CHARGES


@<TRIPOS>ATOM
   1 O1             0.0088     1.3579    -0.2643 O.3     
   2 C2             0.0305     0.0022    -0.3079 C.ar    
   3 C3             1.2183    -0.6828    -0.1001 C.ar    
   4 C4             1.2426    -2.0629    -0.1445 C.ar    
   5 C5             0.0802    -2.7750    -0.3972 C.ar    
   6 C6            -1.1044    -2.1099    -0.6051 C.ar    
   7 C7            -1.1487    -0.7136    -0.5575 C.ar    
   8 C8            -2.5108    -2.5705    -0.8969 C.3     
   9 N9            -3.3242    -1.3546    -1.0123 N.am    
  10 C10           -2.5351    -0.2859    -0.8067 C.2     
  11 C11           -4.7616    -1.3128    -1.2921 C.3     
  12 O12           -2.9102     0.8703    -0.8375 O.2     
  13 C13            1.2480     2.0184     0.0010 C.3     
  14 C14           -5.5272    -1.3487     0.0055 C.ar    
  15 C15           -5.8523    -0.1680     0.6477 C.ar    
  16 C16           -6.5535    -0.1976     1.8373 C.ar    
  17 C17           -6.9323    -1.4145     2.3880 C.ar    
  18 C18           -6.6048    -2.5982     1.7406 C.ar    
  19 C19           -5.9080    -2.5619     0.5486 C.ar    
  20 N20           -7.6437    -1.4478     3.5955 N.pl3   
  21 C21           -8.0711    -2.5589     4.2369 C.2     
  22 C22           -8.7137    -2.1641     5.3604 C.2     
  23 C23           -8.6785    -0.7662     5.4082 C.2     
  24 N24           -8.0324    -0.3363     4.3543 N.2     
  25 C25            1.0269     3.5323     0.0112 C.3     
  26 C26            2.3788     4.2705     0.1504 C.3     
  27 N27            0.4649     3.9829    -1.2990 N.3     
  28 C28            1.3104     3.3396    -2.3511 C.3     
  29 C29            2.6711     4.0719    -2.2846 C.3     
  30 C30            2.4536     5.1278    -1.1537 C.3     
  31 C31            0.9225     5.4149    -1.3608 C.3     
  32 H32            2.1279    -0.1348     0.0969 H       
  33 H33            2.1713    -2.5897     0.0179 H       
  34 H34            0.1057    -3.8541    -0.4310 H       
  35 H35           -2.5358    -3.1283    -1.8330 H       
  36 H36           -2.8788    -3.1914    -0.0801 H       
  37 H37           -5.0006    -0.3953    -1.8297 H       
  38 H38           -5.0383    -2.1734    -1.9011 H       
  39 H39            1.6288     1.7002     0.9715 H       
  40 H40            1.9697     1.7618    -0.7745 H       
  41 H41           -5.5573     0.7783     0.2188 H       
  42 H42           -6.8065     0.7249     2.3387 H       
  43 H43           -6.8979    -3.5463     2.1668 H       
  44 H44           -5.6565    -3.4823     0.0425 H       
  45 H45           -7.9261    -3.5782     3.9108 H       
  46 H46           -9.1727    -2.8134     6.0912 H       
  47 H47           -9.1067    -0.1484     6.1837 H       
  48 H48            0.3575     3.8103     0.8252 H       
  49 H49            2.3784     4.9109     1.0324 H       
  50 H50            3.2034     3.5588     0.1908 H       
  51 H51            1.4411     2.2793    -2.1348 H       
  52 H52            0.8574     3.4726    -3.3335 H       
  53 H53            3.4682     3.3789    -2.0158 H       
  54 H54            2.8903     4.5632    -3.2326 H       
  55 H55            3.1339     5.9793    -1.1415 H       
  56 H56            0.7209     5.8647    -2.3330 H       
  57 H57            0.5067     6.0102    -0.5479 H       
@<TRIPOS>BOND
   1    1    2 1
   2    1   13 1
   3    2    3 ar
   4    2    7 ar
   5    3    4 ar
   6    3   32 1
   7    4    5 ar
   8    4   33 1
   9    5    6 ar
  10    5   34 1
  11    6    8 1
  12    6    7 ar
  13    7   10 1
  14    8    9 1
  15    8   35 1
  16    8   36 1
  17    9   10 am
  18    9   11 1
  19   10   12 2
  20   11   14 1
  21   11   37 1
  22   11   38 1
  23   13   25 1
  24   13   39 1
  25   13   40 1
  26   14   15 ar
  27   14   19 ar
  28   15   16 ar
  29   15   41 1
  30   16   17 ar
  31   16   42 1
  32   17   18 ar
  33   17   20 1
  34   18   19 ar
  35   18   43 1
  36   19   44 1
  37   20   21 1
  38   20   24 1
  39   21   22 2
  40   21   45 1
  41   22   23 1
  42   22   46 1
  43   23   24 2
  44   23   47 1
  45   25   27 1
  46   25   26 1
  47   25   48 1
  48   26   30 1
  49   26   49 1
  50   26   50 1
  51   27   28 1
  52   27   31 1
  53   28   29 1
  54   28   51 1
  55   28   52 1
  56   29   30 1
  57   29   53 1
  58   29   54 1
  59   30   31 1
  60   30   55 1
  61   31   56 1
  62   31   57 1

#	End of record

