#	Name: ASD02038803
#	Creating user name:	WinNT
#	Creation time:	15. 06. 2019 20:17

#	Modifying user name:	WinNT
#	Modification time:	15. 06. 2019 20:17

#	Program:	/corina/corina34_cracker 3.40 0067  02.08.2006

@<TRIPOS>MOLECULE
ASD02038803
  46   48    0    0    0
SMALL
NO_CHARGES


@<TRIPOS>ATOM
   1 C1            -0.0707     1.2805    -0.9373 C.2     
   2 C2            -0.0159    -0.1005    -0.4115 C.2     
   3 N3             1.1729    -0.6615    -0.1139 N.am    
   4 C4             1.2252    -2.0178     0.4374 C.3     
   5 C5             1.3216    -3.0145    -0.6889 C.ar    
   6 C6             2.4127     0.0850    -0.3418 C.3     
   7 O7            -1.0429    -0.7297    -0.2477 O.2     
   8 N8             0.6844     2.3151    -0.5254 N.2     
   9 C9             0.3349     3.3579    -1.2348 C.2     
  10 N10           -0.6342     2.9674    -2.0831 N.pl3   
  11 N11           -0.8622     1.7134    -1.8941 N.2     
  12 C12            2.5240    -3.6407    -0.9559 C.ar    
  13 C13            2.3516     0.7750    -1.7079 C.3     
  14 C14            3.6163     1.6154    -1.9034 C.3     
  15 O15            3.7258     2.5634    -0.8396 O.3     
  16 C16            3.8340     1.9744     0.4579 C.3     
  17 C17            2.5782     1.1484     0.7482 C.3     
  18 C18            0.2040    -3.3065    -1.4518 C.ar    
  19 C19            0.2905    -4.2227    -2.4865 C.ar    
  20 C20            1.4925    -4.8463    -2.7589 C.ar    
  21 C21            2.6121    -4.5582    -1.9921 C.ar    
  22 C22           -1.3117     3.8227    -3.0607 C.3     
  23 O23            3.7959    -5.1708    -2.2595 O.3     
  24 C24            3.8148    -6.1003    -3.3447 C.3     
  25 F25            3.4556    -5.4442    -4.5270 F       
  26 F26            5.1011    -6.6336    -3.4796 F       
  27 F27           -0.9723    -2.6973    -1.1863 F       
  28 F28            2.9061    -7.1331    -3.0900 F       
  29 H29            2.0979    -2.1140     1.0833 H       
  30 H30            0.3218    -2.2098     1.0162 H       
  31 H31            3.2604    -0.5998    -0.3167 H       
  32 H32            0.7491     4.3520    -1.1539 H       
  33 H33            3.3948    -3.4155    -0.3581 H       
  34 H34            2.2895     0.0223    -2.4938 H       
  35 H35            1.4748     1.4210    -1.7508 H       
  36 H36            4.4899     0.9636    -1.9008 H       
  37 H37            3.5587     2.1427    -2.8556 H       
  38 H38            4.7105     1.3273     0.4913 H       
  39 H39            3.9334     2.7602     1.2067 H       
  40 H40            1.7059     1.8020     0.7549 H       
  41 H41            2.6780     0.6627     1.7189 H       
  42 H42           -0.5824    -4.4501    -3.0804 H       
  43 H43            1.5596    -5.5611    -3.5657 H       
  44 H44           -0.7686     3.7953    -4.0054 H       
  45 H45           -2.3286     3.4623    -3.2157 H       
  46 H46           -1.3418     4.8467    -2.6885 H       
@<TRIPOS>BOND
   1    1    2 1
   2    1    8 1
   3    1   11 2
   4    2    3 am
   5    2    7 2
   6    3    4 1
   7    3    6 1
   8    4    5 1
   9    4   29 1
  10    4   30 1
  11    5   12 ar
  12    5   18 ar
  13    6   13 1
  14    6   17 1
  15    6   31 1
  16    8    9 2
  17    9   10 1
  18    9   32 1
  19   10   11 1
  20   10   22 1
  21   12   21 ar
  22   12   33 1
  23   13   14 1
  24   13   34 1
  25   13   35 1
  26   14   15 1
  27   14   36 1
  28   14   37 1
  29   15   16 1
  30   16   17 1
  31   16   38 1
  32   16   39 1
  33   17   40 1
  34   17   41 1
  35   18   19 ar
  36   18   27 1
  37   19   20 ar
  38   19   42 1
  39   20   21 ar
  40   20   43 1
  41   21   23 1
  42   22   44 1
  43   22   45 1
  44   22   46 1
  45   23   24 1
  46   24   25 1
  47   24   26 1
  48   24   28 1

#	End of record

