#	Name: ASD01881566
#	Creating user name:	WinNT
#	Creation time:	15. 06. 2019 19:42

#	Modifying user name:	WinNT
#	Modification time:	15. 06. 2019 19:42

#	Program:	/corina/corina34_cracker 3.40 0067  02.08.2006

@<TRIPOS>MOLECULE
ASD01881566
  48   50    0    0    0
SMALL
NO_CHARGES


@<TRIPOS>ATOM
   1 C1             4.5790     0.0106    -4.6519 C.3     
   2 C2             5.8093     0.7894    -5.1231 C.3     
   3 C3             5.5548     2.2905    -4.9688 C.3     
   4 C4             5.3144     2.6144    -3.4910 C.3     
   5 N5             4.2259     1.7634    -2.9913 N.am    
   6 C6             4.3275     0.3086    -3.1704 C.3     
   7 Cl7            1.4609     0.3362    -4.0568 Cl      
   8 C8             1.1658     2.0290    -4.3038 C.ar    
   9 C9             1.8030     2.9639    -3.5042 C.ar    
  10 S10            2.9095     2.4312    -2.2406 S.o2    
  11 C11            0.2991     2.4389    -5.3029 C.ar    
  12 C12            0.0611     3.7836    -5.5048 C.ar    
  13 C13            0.6970     4.7313    -4.6970 C.ar    
  14 C14            1.5740     4.3099    -3.6948 C.ar    
  15 O15            2.2567     1.3704    -1.5567 O.2     
  16 O16            3.3720     3.6069    -1.5904 O.2     
  17 C17            0.4478     6.1708    -4.9066 C.2     
  18 Cl18          -1.0247     4.2966    -6.7584 Cl      
  19 O19            1.0620     7.0814    -4.1265 O.3     
  20 O20           -0.3113     6.5345    -5.7826 O.2     
  21 C21            0.7697     8.4792    -4.3895 C.3     
  22 C22            1.5414     9.3437    -3.4261 C.2     
  23 C23            1.4153    10.8086    -3.4886 C.ar    
  24 O24            2.2662     8.8322    -2.5994 O.2     
  25 C25            2.1298    11.6143    -2.5962 C.ar    
  26 C26            2.0067    12.9861    -2.6615 C.ar    
  27 C27            1.1784    13.5660    -3.6066 C.ar    
  28 C28            0.4676    12.7755    -4.4929 C.ar    
  29 C29            0.5849    11.4024    -4.4444 C.ar    
  30 H30            3.7105     0.3139    -5.2365 H       
  31 H31            4.7520    -1.0575    -4.7838 H       
  32 H32            6.6722     0.5036    -4.5216 H       
  33 H33            6.0050     0.5600    -6.1705 H       
  34 H34            6.4223     2.8452    -5.3264 H       
  35 H35            4.6771     2.5724    -5.5505 H       
  36 H36            6.2227     2.4179    -2.9214 H       
  37 H37            5.0353     3.6630    -3.3874 H       
  38 H38            3.3973    -0.1642    -2.8553 H       
  39 H39            5.1554    -0.0759    -2.5747 H       
  40 H40           -0.1913     1.7053    -5.9255 H       
  41 H41            2.0683     5.0369    -3.0675 H       
  42 H42            1.0600     8.7251    -5.4110 H       
  43 H43           -0.2981     8.6572    -4.2624 H       
  44 H44            2.7760    11.1632    -1.8578 H       
  45 H45            2.5577    13.6096    -1.9731 H       
  46 H46            1.0858    14.6410    -3.6524 H       
  47 H47           -0.1772    13.2354    -5.2270 H       
  48 H48            0.0296    10.7869    -5.1366 H       
@<TRIPOS>BOND
   1    1    2 1
   2    1    6 1
   3    1   30 1
   4    1   31 1
   5    2    3 1
   6    2   32 1
   7    2   33 1
   8    3    4 1
   9    3   34 1
  10    3   35 1
  11    4    5 1
  12    4   36 1
  13    4   37 1
  14    5    6 1
  15    5   10 am
  16    6   38 1
  17    6   39 1
  18    7    8 1
  19    8    9 ar
  20    8   11 ar
  21    9   10 1
  22    9   14 ar
  23   10   15 2
  24   10   16 2
  25   11   12 ar
  26   11   40 1
  27   12   13 ar
  28   12   18 1
  29   13   14 ar
  30   13   17 1
  31   14   41 1
  32   17   19 1
  33   17   20 2
  34   19   21 1
  35   21   22 1
  36   21   42 1
  37   21   43 1
  38   22   23 1
  39   22   24 2
  40   23   25 ar
  41   23   29 ar
  42   25   26 ar
  43   25   44 1
  44   26   27 ar
  45   26   45 1
  46   27   28 ar
  47   27   46 1
  48   28   29 ar
  49   28   47 1
  50   29   48 1

#	End of record

