#	Name: ASD02320027
#	Creating user name:	WinNT
#	Creation time:	15. 06. 2019 20:20

#	Modifying user name:	WinNT
#	Modification time:	15. 06. 2019 20:20

#	Program:	/corina/corina34_cracker 3.40 0067  02.08.2006

@<TRIPOS>MOLECULE
ASD02320027
  59   61    0    0    0
SMALL
NO_CHARGES


@<TRIPOS>ATOM
   1 C1             1.2658    -1.3592     1.3298 C.ar    
   2 C2             1.5473    -2.2371     0.3014 C.ar    
   3 C3             2.5648    -1.9451    -0.5912 C.ar    
   4 C4             3.3060    -0.7736    -0.4595 C.ar    
   5 C5             3.0338     0.0969     0.5709 C.ar    
   6 C6             2.0051    -0.1968     1.4646 C.ar    
   7 C7             4.3820    -0.5032    -1.4810 C.3     
   8 N8             5.2193     0.6147    -1.0330 N.am    
   9 C9             4.5335     1.7950    -0.4815 C.3     
  10 C10            3.8129     1.3660     0.7956 C.3     
  11 C11            6.5631     0.5633    -1.1222 C.2     
  12 C12            7.2403    -0.7054    -1.5725 C.3     
  13 O13            7.2273     1.5380    -0.8401 O.2     
  14 C14            8.7332    -0.5003    -1.5861 C.ar    
  15 C15            9.4684    -0.6780    -0.4233 C.ar    
  16 C16            9.3703    -0.1410    -2.7577 C.ar    
  17 C17           10.7445     0.0478    -2.7702 C.ar    
  18 C18           11.4787    -0.1243    -1.6064 C.ar    
  19 C19           10.8422    -0.4893    -0.4358 C.ar    
  20 O20            8.8418    -1.0369     0.7291 O.3     
  21 S21            8.7375    -2.5414     0.9343 S.o2    
  22 O22            7.8935    -2.7351     2.0610 O.2     
  23 O23            8.4696    -3.1030    -0.3431 O.2     
  24 O24           10.1178    -3.0374     1.3410 O.3     
  25 Na25          10.6131    -2.6032     3.2188 Du      
  26 O26           11.3717     0.4012    -3.9238 O.3     
  27 S27           11.4757     1.9047    -4.1364 S.o2    
  28 O28           11.9652     2.0902    -5.4575 O.2     
  29 O29           10.2518     2.4606    -3.6758 O.2     
  30 O30           12.5603     2.4181    -3.2002 O.3     
  31 Na31          14.4111     1.9935    -3.7955 Du      
  32 C32            5.5426     2.8677    -0.1617 C.2     
  33 O33            6.3193     2.7137     0.7509 O.2     
  34 O34            5.5784     3.9942    -0.8908 O.3     
  35 Na35           6.9461     5.3506    -0.3910 Du      
  36 O36            2.8427    -2.8091    -1.6038 O.3     
  37 S37            2.0617    -2.5371    -2.8815 S.o2    
  38 O38            2.3176    -3.6330    -3.7492 O.2     
  39 O39            0.7541    -2.1537    -2.4786 O.2     
  40 O40            2.6849    -1.3139    -3.5387 O.3     
  41 Na41           4.4273    -1.6735    -4.4303 Du      
  42 O42            1.7256     0.6661     2.4778 O.3     
  43 S43            0.6957     1.7281     2.1200 S.o2    
  44 O44            0.6753     2.6480     3.2028 O.2     
  45 O45            0.9649     2.1123     0.7787 O.2     
  46 O46           -0.6662     1.0487     2.1074 O.3     
  47 Na47          -1.3911     0.6551     3.9183 Du      
  48 H48            0.4678    -1.5769     2.0243 H       
  49 H49            0.9766    -3.1477     0.1942 H       
  50 H50            4.9996    -1.3933    -1.6014 H       
  51 H51            3.9206    -0.2509    -2.4357 H       
  52 H52            3.8099     2.1722    -1.2042 H       
  53 H53            3.1291     2.1566     1.1042 H       
  54 H54            4.5477     1.2008     1.5836 H       
  55 H55            6.9909    -1.5140    -0.8855 H       
  56 H56            6.8998    -0.9628    -2.5755 H       
  57 H57            8.7985    -0.0073    -3.6641 H       
  58 H58           12.5486     0.0223    -1.6162 H       
  59 H59           11.4139    -0.6233     0.4706 H       
@<TRIPOS>BOND
   1    1    2 ar
   2    1    6 ar
   3    1   48 1
   4    2    3 ar
   5    2   49 1
   6    3    4 ar
   7    3   36 1
   8    4    5 ar
   9    4    7 1
  10    5    6 ar
  11    5   10 1
  12    6   42 1
  13    7    8 1
  14    7   50 1
  15    7   51 1
  16    8    9 1
  17    8   11 am
  18    9   10 1
  19    9   32 1
  20    9   52 1
  21   10   53 1
  22   10   54 1
  23   11   12 1
  24   11   13 2
  25   12   14 1
  26   12   55 1
  27   12   56 1
  28   14   15 ar
  29   14   16 ar
  30   15   20 1
  31   15   19 ar
  32   16   17 ar
  33   16   57 1
  34   17   18 ar
  35   17   26 1
  36   18   19 ar
  37   18   58 1
  38   19   59 1
  39   20   21 1
  40   21   22 2
  41   21   23 2
  42   21   24 1
  43   24   25 1
  44   26   27 1
  45   27   28 2
  46   27   29 2
  47   27   30 1
  48   30   31 1
  49   32   33 2
  50   32   34 1
  51   34   35 1
  52   36   37 1
  53   37   38 2
  54   37   39 2
  55   37   40 1
  56   40   41 1
  57   42   43 1
  58   43   44 2
  59   43   45 2
  60   43   46 1
  61   46   47 1

#	End of record

