#	Name: ASD01000004
#	Creating user name:	WinNT
#	Creation time:	15. 06. 2019 18:54

#	Modifying user name:	WinNT
#	Modification time:	15. 06. 2019 18:54

#	Program:	/corina/corina34_cracker 3.40 0067  02.08.2006

@<TRIPOS>MOLECULE
ASD01000004
  71   76    0    0    0
SMALL
NO_CHARGES


@<TRIPOS>ATOM
   1 C1             0.4627     3.1773     0.2094 C.ar    
   2 C2             0.1887     1.8199     0.2124 C.ar    
   3 C3             1.1891     0.8637     0.1761 C.ar    
   4 C4             2.5031     1.3267     0.1378 C.ar    
   5 C5             2.7771     2.7168     0.1300 C.ar    
   6 C6             1.7472     3.6621     0.1664 C.ar    
   7 N7             3.7011     0.6777     0.1070 N.pl3   
   8 C8             4.7322     1.5850     0.0704 C.2     
   9 C9             4.2217     2.8477     0.0879 C.2     
  10 C10            6.2301     1.7025    -0.0043 C.3     
  11 C11            6.4930     3.0539     0.7053 C.3     
  12 C12            5.3572     3.8688     0.0799 C.3     
  13 C13            7.0685     0.6327     0.6700 C.3     
  14 C14            8.5363     1.0411     0.5212 C.3     
  15 C15            8.8198     2.4139     1.1208 C.3     
  16 C16            7.9165     3.4860     0.4707 C.3     
  17 C17            6.6183     0.5448     2.1347 C.3     
  18 C18            6.5816     1.8057    -1.4891 C.3     
  19 C19            6.8388    -0.7312     0.0137 C.3     
  20 C20            7.7769    -1.7686     0.6434 C.3     
  21 C21            9.2158    -1.3627     0.3549 C.3     
  22 C22            9.5359    -0.0034     0.9857 C.3     
  23 O23           10.1418    -2.3260     0.8560 O.3     
  24 C24           11.4909    -2.0761     0.4523 C.3     
  25 C25           11.9482    -0.6912     0.9029 C.3     
  26 C26           10.9446     0.3853     0.4931 C.3     
  27 C27            9.5946    -0.1257     2.5066 C.3     
  28 O28           10.9331     0.5165    -0.9290 O.3     
  29 C29           12.4048    -3.1388     1.0712 C.3     
  30 C30           11.9726    -4.5256     0.5907 C.3     
  31 O31           13.7555    -2.8962     0.6726 O.3     
  32 C32           12.3036    -3.0730     2.5964 C.3     
  33 H33           -0.3593     3.8770     0.2466 H       
  34 H34           -0.8412     1.4961     0.2441 H       
  35 H35            0.9616    -0.1923     0.1766 H       
  36 H36            1.9521     4.7224     0.1622 H       
  37 H37            3.8055    -0.2871     0.1087 H       
  38 H38            6.3034     2.9923     1.7873 H       
  39 H39            5.5957     4.1974    -0.9242 H       
  40 H40            5.1067     4.7212     0.7145 H       
  41 H41            8.7445     1.1506    -0.5675 H       
  42 H42            8.6378     2.4076     2.1904 H       
  43 H43            9.8593     2.6805     0.9326 H       
  44 H44            8.1564     3.5986    -0.5784 H       
  45 H45            8.0964     4.4444     0.9762 H       
  46 H46            5.5338     0.4426     2.1760 H       
  47 H47            7.0830    -0.3210     2.6063 H       
  48 H48            6.9182     1.4504     2.6620 H       
  49 H49            5.9786     2.5870    -1.9517 H       
  50 H50            7.6382     2.0510    -1.5961 H       
  51 H51            6.3785     0.8527    -1.9776 H       
  52 H52            5.8056    -1.0395     0.1742 H       
  53 H53            7.0446    -0.6838    -1.0530 H       
  54 H54            7.5990    -1.8617     1.7065 H       
  55 H55            7.5807    -2.7407     0.1730 H       
  56 H56            9.3487    -1.2859    -0.7304 H       
  57 H57           11.5563    -2.1439    -0.6361 H       
  58 H58           12.1091    -0.6807     1.9791 H       
  59 H59           12.9124    -0.4696     0.4225 H       
  60 H60           11.2258     1.3375     0.9442 H       
  61 H61           10.4547    -0.7325     2.7894 H       
  62 H62            9.6892     0.8667     2.9476 H       
  63 H63            8.6816    -0.5985     2.8686 H       
  64 H64           11.7871     0.7664    -1.3078 H       
  65 H65           12.0447    -4.5725    -0.4959 H       
  66 H66           12.6227    -5.2817     1.0310 H       
  67 H67           10.9423    -4.7107     0.8948 H       
  68 H68           14.0967    -2.0331     0.9442 H       
  69 H69           11.2734    -3.2581     2.9005 H       
  70 H70           12.9538    -3.8291     3.0367 H       
  71 H71           12.6115    -2.0851     2.9387 H       
@<TRIPOS>BOND
   1    1    2 ar
   2    1    6 ar
   3    1   33 1
   4    2    3 ar
   5    2   34 1
   6    3    4 ar
   7    3   35 1
   8    4    5 ar
   9    4    7 1
  10    5    6 ar
  11    5    9 1
  12    6   36 1
  13    7    8 1
  14    7   37 1
  15    8    9 2
  16    8   10 1
  17    9   12 1
  18   10   13 1
  19   10   18 1
  20   10   11 1
  21   11   12 1
  22   11   16 1
  23   11   38 1
  24   12   39 1
  25   12   40 1
  26   13   17 1
  27   13   19 1
  28   13   14 1
  29   14   15 1
  30   14   22 1
  31   14   41 1
  32   15   16 1
  33   15   42 1
  34   15   43 1
  35   16   44 1
  36   16   45 1
  37   17   46 1
  38   17   47 1
  39   17   48 1
  40   18   49 1
  41   18   50 1
  42   18   51 1
  43   19   20 1
  44   19   52 1
  45   19   53 1
  46   20   21 1
  47   20   54 1
  48   20   55 1
  49   21   22 1
  50   21   23 1
  51   21   56 1
  52   22   27 1
  53   22   26 1
  54   23   24 1
  55   24   25 1
  56   24   29 1
  57   24   57 1
  58   25   26 1
  59   25   58 1
  60   25   59 1
  61   26   28 1
  62   26   60 1
  63   27   61 1
  64   27   62 1
  65   27   63 1
  66   28   64 1
  67   29   30 1
  68   29   31 1
  69   29   32 1
  70   30   65 1
  71   30   66 1
  72   30   67 1
  73   31   68 1
  74   32   69 1
  75   32   70 1
  76   32   71 1

#	End of record

