#	Name: ASD02030769
#	Creating user name:	WinNT
#	Creation time:	15. 06. 2019 20:16

#	Modifying user name:	WinNT
#	Modification time:	15. 06. 2019 20:16

#	Program:	/corina/corina34_cracker 3.40 0067  02.08.2006

@<TRIPOS>MOLECULE
ASD02030769
  42   45    0    0    0
SMALL
NO_CHARGES


@<TRIPOS>ATOM
   1 C1            -0.0344     1.3739    -0.2994 C.2     
   2 C2            -3.9242     3.3098     0.0755 C.3     
   3 C3            -0.0147    -0.0047    -0.2894 C.2     
   4 C4            -2.3132    -0.0345    -0.0676 C.2     
   5 C5             5.0132    -3.6894     0.9784 C.ar    
   6 C6             1.2895    -0.7502    -0.4081 C.3     
   7 C7             2.6832    -2.2010     0.8595 C.ar    
   8 C8             2.9873    -2.9243     2.0033 C.ar    
   9 C9             4.1508    -3.6669     2.0614 C.ar    
  10 C10            4.7135    -2.9637    -0.1620 C.ar    
  11 C11            3.5507    -2.2203    -0.2227 C.ar    
  12 N12           -1.1595    -0.6668    -0.1733 N.2     
  13 C13           -1.2549     2.0408    -0.1821 C.2     
  14 F14            6.1508    -4.4157     1.0366 F       
  15 O15            1.5384    -1.4702     0.8009 O.3     
  16 O16           -1.2884     3.2613    -0.1805 O.2     
  17 S17           -3.9712    -0.6382     0.0980 S.3     
  18 C18           -4.6940     0.9782     0.1739 C.2     
  19 C19           -6.1547     1.3183     0.3220 C.3     
  20 N20           -2.4100     1.3238    -0.0594 N.am    
  21 C21           -3.6831     1.8223     0.0646 C.2     
  22 C22           -4.8301     3.8706     1.1736 C.3     
  23 C23           -3.3207     4.1149     1.2281 C.3     
  24 C24           -5.7257     5.0575     0.8129 C.3     
  25 O25           -6.5766     5.3656     1.9188 O.3     
  26 H26            0.8855     1.9320    -0.3925 H       
  27 H27           -3.9657     3.7865    -0.9039 H       
  28 H28            1.2336    -1.4495    -1.2424 H       
  29 H29            2.0989    -0.0411    -0.5820 H       
  30 H30            2.3128    -2.9101     2.8467 H       
  31 H31            4.3876    -4.2304     2.9517 H       
  32 H32            5.3890    -2.9789    -1.0045 H       
  33 H33            3.3149    -1.6579    -1.1141 H       
  34 H34           -6.7378     0.3992     0.3788 H       
  35 H35           -6.3020     1.8989     1.2327 H       
  36 H36           -6.4806     1.9029    -0.5383 H       
  37 H37           -5.2517     3.1637     1.8881 H       
  38 H38           -2.7493     3.5687     1.9785 H       
  39 H39           -2.9655     5.1214     1.0071 H       
  40 H40           -5.1055     5.9230     0.5795 H       
  41 H41           -6.3349     4.8026    -0.0543 H       
  42 H42           -7.1733     6.1099     1.7606 H       
@<TRIPOS>BOND
   1    1    3 2
   2    1   26 1
   3    1   13 1
   4    2   23 1
   5    2   21 1
   6    2   22 1
   7    2   27 1
   8    3   12 1
   9    3    6 1
  10    4   17 1
  11    4   12 2
  12    4   20 1
  13    5   14 1
  14    5    9 ar
  15    5   10 ar
  16    6   15 1
  17    6   28 1
  18    6   29 1
  19    7    8 ar
  20    7   11 ar
  21    7   15 1
  22    8    9 ar
  23    8   30 1
  24    9   31 1
  25   10   32 1
  26   10   11 ar
  27   11   33 1
  28   13   20 am
  29   13   16 2
  30   17   18 1
  31   18   19 1
  32   18   21 2
  33   19   34 1
  34   19   35 1
  35   19   36 1
  36   20   21 1
  37   22   37 1
  38   22   23 1
  39   22   24 1
  40   23   38 1
  41   23   39 1
  42   24   25 1
  43   24   40 1
  44   24   41 1
  45   25   42 1

#	End of record

