#	Name: ASD01720161
#	Creating user name:	WinNT
#	Creation time:	15. 06. 2019 19:23

#	Modifying user name:	WinNT
#	Modification time:	15. 06. 2019 19:23

#	Program:	/corina/corina34_cracker 3.40 0067  02.08.2006

@<TRIPOS>MOLECULE
ASD01720161
  66   69    0    0    0
SMALL
NO_CHARGES


@<TRIPOS>ATOM
   1 C1            -0.0750     0.8906     0.2006 C.ar    
   2 N2            -0.0144    -0.4271     0.2031 N.ar    
   3 C3             1.1350    -1.0743     0.1776 C.ar    
   4 C4             2.3325    -0.3899     0.1471 C.ar    
   5 C5             2.3148     1.0078     0.1434 C.ar    
   6 C6             1.0753     1.6525     0.1711 C.ar    
   7 C7             3.5778     1.7858     0.1115 C.ar    
   8 C8             3.5513     3.1829     0.1080 C.ar    
   9 C9             4.7571     3.8625     0.0777 C.ar    
  10 C10            5.9381     3.1438     0.0521 C.ar    
  11 N11            5.9316     1.8246     0.0557 N.ar    
  12 C12            4.8099     1.1351     0.0903 C.ar    
  13 C13            7.2532     3.8790     0.0191 C.3     
  14 C14            7.6032     4.2333    -1.4276 C.3     
  15 N15            8.3036     3.0262     0.5808 N.pl3   
  16 C16            9.4363     3.5972     1.1345 C.ar    
  17 N17           10.3757     2.8109     1.6377 N.ar    
  18 C18           11.4746     3.3283     2.1762 C.ar    
  19 C19           11.6267     4.7148     2.2048 C.ar    
  20 C20           10.6229     5.4995     1.6691 C.ar    
  21 N21            9.5562     4.9167     1.1431 N.ar    
  22 N22           12.4585     2.5000     2.7039 N.am    
  23 C23           13.5952     2.9109     3.2824 C.2     
  24 O24           14.3764     1.9127     3.7097 O.3     
  25 O25           13.8894     4.0830     3.4075 O.2     
  26 C26           13.7408     0.6362     3.4105 C.3     
  27 C27           12.4186     1.0297     2.7239 C.3     
  28 C28           12.3702     0.4813     1.2965 C.3     
  29 C29           13.5696     1.0088     0.5065 C.3     
  30 C30           12.4178    -1.0475     1.3356 C.3     
  31 C31            1.1400    -2.5813     0.1824 C.3     
  32 C32            1.5483    -3.0855     1.5680 C.3     
  33 C33           -0.2603    -3.0969    -0.1557 C.3     
  34 C34            2.1368    -3.0914    -0.8601 C.3     
  35 H35           -1.0377     1.3798     0.2176 H       
  36 H36            3.2697    -0.9261     0.1267 H       
  37 H37            1.0183     2.7310     0.1689 H       
  38 H38            2.6139     3.7190     0.1281 H       
  39 H39            4.7752     4.9424     0.0738 H       
  40 H40            4.8451     0.0557     0.0924 H       
  41 H41            7.1735     4.7928     0.6079 H       
  42 H42            6.8217     4.8678    -1.8455 H       
  43 H43            8.5544     4.7650    -1.4515 H       
  44 H44            7.6829     3.3195    -2.0164 H       
  45 H45            8.2053     2.0613     0.5647 H       
  46 H46           12.5086     5.1648     2.6362 H       
  47 H47           10.7092     6.5761     1.6757 H       
  48 H48           14.3642     0.0474     2.7376 H       
  49 H49           13.5410     0.0842     4.3289 H       
  50 H50           11.5661     0.6724     3.3016 H       
  51 H51           11.4473     0.8038     0.8144 H       
  52 H52           14.4924     0.6862     0.9885 H       
  53 H53           13.5351     0.6180    -0.5105 H       
  54 H54           13.5357     2.0979     0.4785 H       
  55 H55           12.2854    -1.4411     0.3278 H       
  56 H56           13.3817    -1.3711     1.7283 H       
  57 H57           11.6201    -1.4195     1.9786 H       
  58 H58            0.8381    -2.7221     2.3108 H       
  59 H59            1.5518    -4.1755     1.5715 H       
  60 H60            2.5458    -2.7182     1.8089 H       
  61 H61           -0.5512    -2.7377    -1.1429 H       
  62 H62           -0.2567    -4.1869    -0.1522 H       
  63 H63           -0.9705    -2.7335     0.5870 H       
  64 H64            3.1344    -2.7240    -0.6192 H       
  65 H65            2.1404    -4.1814    -0.8566 H       
  66 H66            1.8459    -2.7321    -1.8473 H       
@<TRIPOS>BOND
   1    1    2 ar
   2    1    6 ar
   3    1   35 1
   4    2    3 ar
   5    3   31 1
   6    3    4 ar
   7    4    5 ar
   8    4   36 1
   9    5    6 ar
  10    5    7 1
  11    6   37 1
  12    7    8 ar
  13    7   12 ar
  14    8    9 ar
  15    8   38 1
  16    9   10 ar
  17    9   39 1
  18   10   11 ar
  19   10   13 1
  20   11   12 ar
  21   12   40 1
  22   13   14 1
  23   13   15 1
  24   13   41 1
  25   14   42 1
  26   14   43 1
  27   14   44 1
  28   15   16 1
  29   15   45 1
  30   16   17 ar
  31   16   21 ar
  32   17   18 ar
  33   18   19 ar
  34   18   22 1
  35   19   20 ar
  36   19   46 1
  37   20   21 ar
  38   20   47 1
  39   22   23 am
  40   22   27 1
  41   23   24 1
  42   23   25 2
  43   24   26 1
  44   26   27 1
  45   26   48 1
  46   26   49 1
  47   27   28 1
  48   27   50 1
  49   28   29 1
  50   28   30 1
  51   28   51 1
  52   29   52 1
  53   29   53 1
  54   29   54 1
  55   30   55 1
  56   30   56 1
  57   30   57 1
  58   31   32 1
  59   31   33 1
  60   31   34 1
  61   32   58 1
  62   32   59 1
  63   32   60 1
  64   33   61 1
  65   33   62 1
  66   33   63 1
  67   34   64 1
  68   34   65 1
  69   34   66 1

#	End of record

