#	Name: ASD01140522
#	Creating user name:	WinNT
#	Creation time:	15. 06. 2019 19:01

#	Modifying user name:	WinNT
#	Modification time:	15. 06. 2019 19:01

#	Program:	/corina/corina34_cracker 3.40 0067  02.08.2006

@<TRIPOS>MOLECULE
ASD01140522
  42   41    0    0    0
SMALL
NO_CHARGES


@<TRIPOS>ATOM
   1 N1            -0.0162     1.3436     0.0094 N.am    
   2 C2             0.0021    -0.0041     0.0020 C.2     
   3 O3             1.1770    -0.6613    -0.0127 O.3     
   4 C4             1.1207    -2.1122    -0.0200 C.3     
   5 C5             2.5423    -2.6777    -0.0366 C.3     
   6 C6             3.2708    -2.1893    -1.2902 C.3     
   7 C7             3.2947    -2.2027     1.2081 C.3     
   8 C8             2.4829    -4.2065    -0.0442 C.3     
   9 C9             2.5184    -2.6643    -2.5349 C.3     
  10 C10            3.2470    -2.1759    -3.7886 C.3     
  11 O11            3.8320    -4.7432    -0.0600 O.3     
  12 C12            3.9565    -6.0838    -0.0684 C.2     
  13 N13            5.1810    -6.6467    -0.0831 N.am    
  14 C14            5.3165    -8.1054    -0.0922 C.3     
  15 C15            5.2247    -8.6172    -1.5312 C.3     
  16 C16            6.6711    -8.4956     0.5024 C.3     
  17 O17            2.9650    -6.7861    -0.0627 O.2     
  18 O18           -1.0419    -0.6259     0.0086 O.2     
  19 H19            0.8172     1.8399     0.0041 H       
  20 H20           -0.8627     1.8171     0.0160 H       
  21 H21            0.6017    -2.4601     0.8731 H       
  22 H22            0.5847    -2.4506    -0.9067 H       
  23 H23            3.3131    -1.1001    -1.2848 H       
  24 H24            4.2836    -2.5922    -1.3021 H       
  25 H25            2.7757    -2.5507     2.1012 H       
  26 H26            4.3074    -2.6056     1.1963 H       
  27 H27            3.3369    -1.1136     1.2135 H       
  28 H28            1.9639    -4.5544     0.8489 H       
  29 H29            1.9469    -4.5449    -0.9310 H       
  30 H30            2.4762    -3.7534    -2.5404 H       
  31 H31            1.5057    -2.2614    -2.5231 H       
  32 H32            4.2597    -2.5788    -3.8004 H       
  33 H33            2.7109    -2.5143    -4.6753 H       
  34 H34            3.2892    -1.0867    -3.7831 H       
  35 H35            5.9725    -6.0861    -0.0877 H       
  36 H36            4.5175    -8.5483     0.5025 H       
  37 H37            4.2596    -8.3392    -1.9548 H       
  38 H38            6.0237    -8.1743    -2.1259 H       
  39 H39            5.3255    -9.7025    -1.5380 H       
  40 H40            6.7365    -8.1310     1.5275 H       
  41 H41            6.7719    -9.5809     0.4956 H       
  42 H42            7.4701    -8.0527    -0.0923 H       
@<TRIPOS>BOND
   1    1    2 am
   2    1   19 1
   3    1   20 1
   4    2    3 1
   5    2   18 2
   6    3    4 1
   7    4    5 1
   8    4   21 1
   9    4   22 1
  10    5    6 1
  11    5    7 1
  12    5    8 1
  13    6    9 1
  14    6   23 1
  15    6   24 1
  16    7   25 1
  17    7   26 1
  18    7   27 1
  19    8   11 1
  20    8   28 1
  21    8   29 1
  22    9   10 1
  23    9   30 1
  24    9   31 1
  25   10   32 1
  26   10   33 1
  27   10   34 1
  28   11   12 1
  29   12   13 am
  30   12   17 2
  31   13   14 1
  32   13   35 1
  33   14   15 1
  34   14   16 1
  35   14   36 1
  36   15   37 1
  37   15   38 1
  38   15   39 1
  39   16   40 1
  40   16   41 1
  41   16   42 1

#	End of record

