#	Name: ASD01882215
#	Creating user name:	WinNT
#	Creation time:	15. 06. 2019 19:44

#	Modifying user name:	WinNT
#	Modification time:	15. 06. 2019 19:44

#	Program:	/corina/corina34_cracker 3.40 0067  02.08.2006

@<TRIPOS>MOLECULE
ASD01882215
  72   75    0    0    0
SMALL
NO_CHARGES


@<TRIPOS>ATOM
   1 C1            -0.0178     1.4602     0.0101 C.2     
   2 C2             0.0021    -0.0041     0.0020 C.2     
   3 C3             1.2475    -0.6490    -0.0133 C.2     
   4 C4             2.4221     0.1322    -0.0204 C.2     
   5 C5             2.3605     1.4768    -0.0121 C.2     
   6 N6             1.1705     2.1448     0.0024 N.pl3   
   7 N7            -1.0020     2.3408     0.0295 N.2     
   8 C8            -0.4871     3.5748     0.0288 C.2     
   9 C9             0.8591     3.4798     0.0130 C.2     
  10 C10           -1.2162    -0.7566     0.0101 C.1     
  11 N11           -2.1827    -1.3536     0.0165 N.1     
  12 C12            1.8369     4.6266     0.0101 C.3     
  13 C13            2.0860     5.0880     1.4474 C.3     
  14 F14            2.6129     4.0279     2.1929 F       
  15 F15            2.9937     6.1526     1.4447 F       
  16 F16            0.8793     5.5056     2.0189 F       
  17 C17            1.3280    -2.1247    -0.0215 C.ar    
  18 C18            1.8656    -2.7902    -1.1259 C.ar    
  19 C19            1.9397    -4.1654    -1.1304 C.ar    
  20 C20            1.4798    -4.8918    -0.0365 C.ar    
  21 C21            0.9438    -4.2319     1.0648 C.ar    
  22 C22            0.8719    -2.8567     1.0774 C.ar    
  23 N23            1.5557    -6.2832    -0.0443 N.pl3   
  24 C24            1.0719    -7.0496     1.1067 C.3     
  25 C25            0.6807    -8.4577     0.6538 C.3     
  26 C26            0.1754    -9.2581     1.8559 C.3     
  27 C27            1.2816    -9.3499     2.9089 C.3     
  28 C28            1.6728    -7.9418     3.3618 C.3     
  29 C29            2.1781    -7.1414     2.1597 C.3     
  30 O30            0.8097   -10.0975     4.0316 O.3     
  31 Si31           1.9780   -10.9165     4.8217 Si      
  32 C32            2.7856   -12.1253     3.6566 C.3     
  33 C33            3.2553    -9.7182     5.4569 C.3     
  34 C34            1.2277   -11.8414     6.2543 C.3     
  35 C35            0.1787   -12.8255     5.7327 C.3     
  36 C36            2.3237   -12.6097     6.9955 C.3     
  37 C37            0.5645   -10.8487     7.2111 C.3     
  38 H38            3.3854    -0.3560    -0.0322 H       
  39 H39            3.2797     2.0437    -0.0171 H       
  40 H40           -1.0538     4.4941     0.0423 H       
  41 H41            2.7771     4.3012    -0.4352 H       
  42 H42            1.4264     5.4526    -0.5707 H       
  43 H43            2.2225    -2.2269    -1.9754 H       
  44 H44            2.3549    -4.6805    -1.9840 H       
  45 H45            0.5873    -4.7985     1.9123 H       
  46 H46            0.4599    -2.3448     1.9345 H       
  47 H47            1.9289    -6.7443    -0.8117 H       
  48 H48            0.2025    -6.5512     1.5356 H       
  49 H49           -0.1074    -8.3923    -0.0963 H       
  50 H50            1.5501    -8.9561     0.2250 H       
  51 H51           -0.6940    -8.7597     2.2847 H       
  52 H52           -0.1033   -10.2612     1.5332 H       
  53 H53            2.1510    -9.8483     2.4800 H       
  54 H54            0.8034    -7.4435     3.7906 H       
  55 H55            2.4609    -8.0073     4.1119 H       
  56 H56            3.0475    -7.6398     1.7309 H       
  57 H57            2.4568    -6.1383     2.4824 H       
  58 H58            3.2246   -11.5841     2.8185 H       
  59 H59            3.5664   -12.6726     4.1847 H       
  60 H60            2.0382   -12.8263     3.2850 H       
  61 H61            2.7829    -9.0110     6.1385 H       
  62 H62            4.0362   -10.2656     5.9849 H       
  63 H63            3.6943    -9.1771     4.6187 H       
  64 H64            0.6511   -13.5328     5.0510 H       
  65 H65           -0.2603   -13.3667     6.5709 H       
  66 H66           -0.6021   -12.2782     5.2046 H       
  67 H67            3.0710   -11.9087     7.3671 H       
  68 H68            1.8847   -13.1509     7.8337 H       
  69 H69            2.7962   -13.3170     6.3139 H       
  70 H70           -0.2163   -10.3014     6.6831 H       
  71 H71            0.1255   -11.3899     8.0493 H       
  72 H72            1.3118   -10.1476     7.5827 H       
@<TRIPOS>BOND
   1    1    2 1
   2    1    6 1
   3    1    7 2
   4    2    3 2
   5    2   10 1
   6    3    4 1
   7    3   17 1
   8    4    5 2
   9    4   38 1
  10    5    6 1
  11    5   39 1
  12    6    9 1
  13    7    8 1
  14    8    9 2
  15    8   40 1
  16    9   12 1
  17   10   11 3
  18   12   13 1
  19   12   41 1
  20   12   42 1
  21   13   14 1
  22   13   15 1
  23   13   16 1
  24   17   18 ar
  25   17   22 ar
  26   18   19 ar
  27   18   43 1
  28   19   20 ar
  29   19   44 1
  30   20   21 ar
  31   20   23 1
  32   21   22 ar
  33   21   45 1
  34   22   46 1
  35   23   24 1
  36   23   47 1
  37   24   25 1
  38   24   29 1
  39   24   48 1
  40   25   26 1
  41   25   49 1
  42   25   50 1
  43   26   27 1
  44   26   51 1
  45   26   52 1
  46   27   28 1
  47   27   30 1
  48   27   53 1
  49   28   29 1
  50   28   54 1
  51   28   55 1
  52   29   56 1
  53   29   57 1
  54   30   31 1
  55   31   32 1
  56   31   33 1
  57   31   34 1
  58   32   58 1
  59   32   59 1
  60   32   60 1
  61   33   61 1
  62   33   62 1
  63   33   63 1
  64   34   35 1
  65   34   37 1
  66   34   36 1
  67   35   64 1
  68   35   65 1
  69   35   66 1
  70   36   67 1
  71   36   68 1
  72   36   69 1
  73   37   70 1
  74   37   71 1
  75   37   72 1

#	End of record

