#	Name: ASD02560185
#	Creating user name:	WinNT
#	Creation time:	15. 06. 2019 20:24

#	Modifying user name:	WinNT
#	Modification time:	15. 06. 2019 20:24

#	Program:	/corina/corina34_cracker 3.40 0067  02.08.2006

@<TRIPOS>MOLECULE
ASD02560185
  53   56    0    0    0
SMALL
NO_CHARGES


@<TRIPOS>ATOM
   1 Cl1            1.9169     0.2137    -2.5367 Cl      
   2 Br2            1.9338     2.5276    -1.6974 Br      
   3 N3             0.0590     1.3382     0.0641 N.2     
   4 N4             0.0136     0.1061    -0.0057 N.2     
   5 C5             1.4465     1.8193     0.0706 C.3     
   6 N6             2.2615     0.6199     0.3896 N.3     
   7 C7             1.3622    -0.4730    -0.0594 C.3     
   8 S8             1.4850    -1.8932     1.0625 S.3     
   9 C9             0.9758    -1.1975     2.6586 C.3     
  10 C10            1.0256    -2.2722     3.7138 C.2     
  11 O11            1.3706    -3.3969     3.4183 O.2     
  12 N12            0.6868    -1.9838     4.9860 N.am    
  13 C13            3.4548     0.6172    -0.3377 C.ar    
  14 C14            0.6512    -2.9996     5.9484 C.ar    
  15 C15           -0.1676    -2.8734     7.0645 C.ar    
  16 C16           -0.2004    -3.8786     8.0121 C.ar    
  17 C17            0.5803    -5.0088     7.8505 C.ar    
  18 C18            1.3956    -5.1367     6.7413 C.ar    
  19 C19            1.4292    -4.1379     5.7874 C.ar    
  20 Cl20          -1.1472    -1.4548     7.2679 Cl      
  21 S21            0.5363    -6.2881     9.0613 S.o2    
  22 O22            1.7642    -6.9936     8.9445 O.2     
  23 O23            0.1003    -5.6816    10.2702 O.2     
  24 C24            4.6680     0.7893     0.3151 C.ar    
  25 C25            3.4303     0.4365    -1.7160 C.ar    
  26 C26            4.6122     0.4340    -2.4315 C.ar    
  27 C27            5.8183     0.6110    -1.7779 C.ar    
  28 C28            5.8460     0.7857    -0.4067 C.ar    
  29 N29           -0.6557    -7.3466     8.6129 N.am    
  30 C30            7.1056     0.6073    -2.5613 C.3     
  31 C31            7.4486    -0.6578    -3.3505 C.3     
  32 C32            7.0035     0.6067    -4.0879 C.3     
  33 C33            4.6998     0.9803     1.8096 C.3     
  34 H34            1.5798     2.5834     0.8365 H       
  35 H35            1.6070    -0.7713    -1.0788 H       
  36 H36            1.6507    -0.3869     2.9335 H       
  37 H37           -0.0409    -0.8128     2.5795 H       
  38 H38            0.4675    -1.0722     5.2347 H       
  39 H39           -0.8359    -3.7815     8.8799 H       
  40 H40            2.0042    -6.0204     6.6185 H       
  41 H41            2.0664    -4.2389     4.9213 H       
  42 H42            4.5945     0.2934    -3.5022 H       
  43 H43            6.7895     0.9237     0.1003 H       
  44 H44           -1.1701    -7.1845     7.8067 H       
  45 H45           -0.8394    -8.1287     9.1564 H       
  46 H46            7.9310     1.1595    -2.1120 H       
  47 H47            8.4998    -0.9377    -3.4207 H       
  48 H48            6.7432    -1.4874    -3.3029 H       
  49 H49            6.0052     0.6090    -4.5256 H       
  50 H50            7.7617     1.1587    -4.6433 H       
  51 H51            4.7826     0.0095     2.2983 H       
  52 H52            5.5573     1.5970     2.0789 H       
  53 H53            3.7825     1.4726     2.1326 H       
@<TRIPOS>BOND
   1    1   25 1
   2    2    5 1
   3    3    4 2
   4    3    5 1
   5    4    7 1
   6    5    6 1
   7    5   34 1
   8    6    7 1
   9    6   13 1
  10    7    8 1
  11    7   35 1
  12    8    9 1
  13    9   10 1
  14    9   36 1
  15    9   37 1
  16   10   11 2
  17   10   12 am
  18   12   14 1
  19   12   38 1
  20   13   24 ar
  21   13   25 ar
  22   14   15 ar
  23   14   19 ar
  24   15   16 ar
  25   15   20 1
  26   16   17 ar
  27   16   39 1
  28   17   18 ar
  29   17   21 1
  30   18   19 ar
  31   18   40 1
  32   19   41 1
  33   21   22 2
  34   21   23 2
  35   21   29 am
  36   24   33 1
  37   24   28 ar
  38   25   26 ar
  39   26   27 ar
  40   26   42 1
  41   27   28 ar
  42   27   30 1
  43   28   43 1
  44   29   44 1
  45   29   45 1
  46   30   31 1
  47   30   32 1
  48   30   46 1
  49   31   32 1
  50   31   47 1
  51   31   48 1
  52   32   49 1
  53   32   50 1
  54   33   51 1
  55   33   52 1
  56   33   53 1

#	End of record

