#	Name: ASD08070236
#	Creating user name:	WinNT
#	Creation time:	15. 06. 2019 21:14

#	Modifying user name:	WinNT
#	Modification time:	15. 06. 2019 21:14

#	Program:	/corina/corina34_cracker 3.40 0067  02.08.2006

@<TRIPOS>MOLECULE
ASD08070236
  34   35    0    0    0
SMALL
NO_CHARGES


@<TRIPOS>ATOM
   1 C1             0.1619     1.1083     1.2020 C.ar    
   2 C2             0.0871    -0.1393     0.5783 C.ar    
   3 C3            -1.1748    -0.9065     0.6047 C.2     
   4 N4            -1.2444    -2.1100     0.0021 N.am    
   5 O5            -2.1507    -0.4522     1.1701 O.2     
   6 C6             1.2092    -0.6584    -0.0706 C.ar    
   7 C7             2.3847     0.0617    -0.0930 C.ar    
   8 C8             2.4547     1.2990     0.5276 C.ar    
   9 C9             1.3427     1.8205     1.1738 C.ar    
  10 C10           -2.4151    -2.8760     0.0990 C.ar    
  11 C11           -2.3533    -4.2627    -0.0228 C.ar    
  12 C12           -3.6347    -2.2546     0.3218 C.ar    
  13 C13           -4.7884    -3.0096     0.4176 C.ar    
  14 C14           -4.7294    -4.3895     0.2914 C.ar    
  15 C15           -3.5112    -5.0161     0.0733 C.ar    
  16 O16           -1.1582    -4.8750    -0.2361 O.3     
  17 O17           -5.8661    -5.1294     0.3871 O.3     
  18 Cl18           1.4382     3.3712     1.9482 Cl      
  19 F19            3.6094     1.9999     0.5034 F       
  20 C20           -1.1704    -6.2994    -0.3509 C.3     
  21 C21           -7.0846    -4.4196     0.6182 C.3     
  22 H22           -0.7043     1.5163     1.7015 H       
  23 H23           -0.4848    -2.4464    -0.4986 H       
  24 H24            1.1564    -1.6227    -0.5541 H       
  25 H25            3.2529    -0.3393    -0.5948 H       
  26 H26           -3.6829    -1.1803     0.4208 H       
  27 H27           -5.7374    -2.5242     0.5915 H       
  28 H28           -3.4662    -6.0907    -0.0249 H       
  29 H29           -0.1552    -6.6590    -0.5190 H       
  30 H30           -1.5625    -6.7346     0.5682 H       
  31 H31           -1.8026    -6.5909    -1.1896 H       
  32 H32           -7.0128    -3.8704     1.5570 H       
  33 H33           -7.2584    -3.7202    -0.1995 H       
  34 H34           -7.9122    -5.1269     0.6735 H       
@<TRIPOS>BOND
   1    1    2 ar
   2    1    9 ar
   3    1   22 1
   4    2    3 1
   5    2    6 ar
   6    3    4 am
   7    3    5 2
   8    4   10 1
   9    4   23 1
  10    6    7 ar
  11    6   24 1
  12    7    8 ar
  13    7   25 1
  14    8    9 ar
  15    8   19 1
  16    9   18 1
  17   10   11 ar
  18   10   12 ar
  19   11   16 1
  20   11   15 ar
  21   12   13 ar
  22   12   26 1
  23   13   14 ar
  24   13   27 1
  25   14   15 ar
  26   14   17 1
  27   15   28 1
  28   16   20 1
  29   17   21 1
  30   20   29 1
  31   20   30 1
  32   20   31 1
  33   21   32 1
  34   21   33 1
  35   21   34 1

#	End of record

