#	Name: ASD01870363
#	Creating user name:	WinNT
#	Creation time:	15. 06. 2019 19:39

#	Modifying user name:	WinNT
#	Modification time:	15. 06. 2019 19:39

#	Program:	/corina/corina34_cracker 3.40 0067  02.08.2006

@<TRIPOS>MOLECULE
ASD01870363
  54   56    0    0    0
SMALL
NO_CHARGES


@<TRIPOS>ATOM
   1 N1            -0.0179     1.4666     0.0101 N.am    
   2 C2             0.0021    -0.0041     0.0020 C.3     
   3 C3             1.1293     2.1740     0.0030 C.2     
   4 C4             1.0857     3.6803     0.0115 C.3     
   5 O5             2.1967     1.5983    -0.0103 O.2     
   6 C6             2.4763     4.3407     0.0017 C.3     
   7 N7             1.9076     5.2908    -0.9739 N.am    
   8 C8             0.8907     4.3026    -1.3830 C.3     
   9 S9             2.2664     6.8425    -1.4275 S.o2    
  10 C10            3.4558     6.6540    -2.7842 C.3     
  11 O11            1.0349     7.3596    -1.9124 O.2     
  12 O12            2.8979     7.4044    -0.2852 O.2     
  13 C13            3.8693     8.0354    -3.2956 C.3     
  14 C14            4.5152     8.8283    -2.1576 C.3     
  15 C15           -0.8911    -0.5093     1.1401 C.3     
  16 N16           -2.2246     0.0945     1.0166 N.3     
  17 C17           -2.1639     1.5549     1.1634 C.3     
  18 C18           -1.3229     2.1448     0.0200 C.3     
  19 C19           -3.1111    -0.4624     1.9335 C.ar    
  20 C20           -4.4382    -0.0378     1.9944 C.ar    
  21 C21           -2.6971    -1.4639     2.8116 C.ar    
  22 C22           -3.6064    -1.9896     3.7049 C.ar    
  23 N23           -4.8531    -1.5568     3.7352 N.ar    
  24 C24           -5.2847    -0.6150     2.9173 C.ar    
  25 C25            4.8724     7.8764    -4.4399 C.3     
  26 C26            2.6337     8.7831    -3.8008 C.3     
  27 H27           -0.3779    -0.3702    -0.9518 H       
  28 H28            1.0222    -0.3573     0.1528 H       
  29 H29            0.4145     4.0817     0.7708 H       
  30 H30            2.7518     4.7987     0.9517 H       
  31 H31            3.2612     3.7060    -0.4094 H       
  32 H32            1.2098     3.6567    -2.2009 H       
  33 H33           -0.0998     4.7302    -1.5387 H       
  34 H34            4.3361     6.1214    -2.4243 H       
  35 H35            2.9956     6.0892    -3.5949 H       
  36 H36            5.3955     8.2956    -1.7977 H       
  37 H37            4.8098     9.8124    -2.5220 H       
  38 H38            3.8005     8.9416    -1.3424 H       
  39 H39           -0.9763    -1.5943     1.0813 H       
  40 H40           -0.4526    -0.2298     2.0981 H       
  41 H41           -3.1722     1.9669     1.1215 H       
  42 H42           -1.7077     1.8056     2.1210 H       
  43 H43           -1.1778     3.2123     0.1853 H       
  44 H44           -1.8328     1.9844    -0.9299 H       
  45 H45           -4.7978     0.7326     1.3283 H       
  46 H46           -1.6786    -1.8228     2.7918 H       
  47 H47           -3.2948    -2.7657     4.3883 H       
  48 H48           -6.3128    -0.2892     2.9747 H       
  49 H49            4.4122     7.3116    -5.2506 H       
  50 H50            5.1670     8.8605    -4.8042 H       
  51 H51            5.7527     7.3438    -4.0799 H       
  52 H52            1.9190     8.8964    -2.9856 H       
  53 H53            2.9282     9.7672    -4.1652 H       
  54 H54            2.1735     8.2182    -4.6116 H       
@<TRIPOS>BOND
   1    1    2 1
   2    1    3 am
   3    1   18 1
   4    2   15 1
   5    2   27 1
   6    2   28 1
   7    3    4 1
   8    3    5 2
   9    4    6 1
  10    4    8 1
  11    4   29 1
  12    6    7 1
  13    6   30 1
  14    6   31 1
  15    7    8 1
  16    7    9 am
  17    8   32 1
  18    8   33 1
  19    9   10 1
  20    9   11 2
  21    9   12 2
  22   10   13 1
  23   10   34 1
  24   10   35 1
  25   13   14 1
  26   13   25 1
  27   13   26 1
  28   14   36 1
  29   14   37 1
  30   14   38 1
  31   15   16 1
  32   15   39 1
  33   15   40 1
  34   16   17 1
  35   16   19 1
  36   17   18 1
  37   17   41 1
  38   17   42 1
  39   18   43 1
  40   18   44 1
  41   19   20 ar
  42   19   21 ar
  43   20   24 ar
  44   20   45 1
  45   21   22 ar
  46   21   46 1
  47   22   23 ar
  48   22   47 1
  49   23   24 ar
  50   24   48 1
  51   25   49 1
  52   25   50 1
  53   25   51 1
  54   26   52 1
  55   26   53 1
  56   26   54 1

#	End of record

