#	Name: ASD01142020
#	Creating user name:	WinNT
#	Creation time:	15. 06. 2019 19:01

#	Modifying user name:	WinNT
#	Modification time:	15. 06. 2019 19:01

#	Program:	/corina/corina34_cracker 3.40 0067  02.08.2006

@<TRIPOS>MOLECULE
ASD01142020
  14   14    0    0    0
SMALL
NO_CHARGES


@<TRIPOS>ATOM
   1 N1            -0.0156     1.3020     0.0092 N.2     
   2 C2             0.0021    -0.0041     0.0020 C.2     
   3 C3             1.3699    -0.3825    -0.0131 C.2     
   4 C4             2.0345     0.7958    -0.0131 C.2     
   5 O5             1.1032     1.7604     0.0010 O.3     
   6 C6             3.5292     0.9869    -0.0263 C.3     
   7 N7             4.0017     1.0564    -1.4155 N.3     
   8 O8            -1.0723    -0.8332     0.0085 O.3     
   9 H9             1.7842    -1.3798    -0.0224 H       
  10 H10            3.7817     1.9130     0.4901 H       
  11 H11            4.0074     0.1474     0.4784 H       
  12 H12            3.5253     1.7866    -1.9234 H       
  13 H13            5.0019     1.1845    -1.4513 H       
  14 H14           -1.3924    -1.0690    -0.8730 H       
@<TRIPOS>BOND
   1    1    2 2
   2    1    5 1
   3    2    3 1
   4    2    8 1
   5    3    4 2
   6    3    9 1
   7    4    5 1
   8    4    6 1
   9    6    7 1
  10    6   10 1
  11    6   11 1
  12    7   12 1
  13    7   13 1
  14    8   14 1

#	End of record

