#	Name: ASD00311152
#	Creating user name:	WinNT
#	Creation time:	15. 06. 2019 18:34

#	Modifying user name:	WinNT
#	Modification time:	15. 06. 2019 18:34

#	Program:	/corina/corina34_cracker 3.40 0067  02.08.2006

@<TRIPOS>MOLECULE
ASD00311152
  33   36    0    0    0
SMALL
NO_CHARGES


@<TRIPOS>ATOM
   1 C1            -0.0167     1.3773     0.0096 C.2     
   2 C2             0.0021    -0.0041     0.0020 C.2     
   3 C3             1.2580    -0.6768    -0.0143 C.2     
   4 C4             2.4314     0.0668    -0.0223 C.2     
   5 C5             2.3577     1.4745    -0.0140 C.2     
   6 N6             1.1653     2.0898     0.0022 N.am    
   7 C7            -1.3443    -0.5760     0.0126 C.2     
   8 C8            -2.3249     0.3287     0.0274 C.2     
   9 S9            -1.6786     1.9576     0.0358 S.3     
  10 O10            3.3827     2.1365    -0.0204 O.2     
  11 C11            3.7472    -0.6130    -0.0388 C.ar    
  12 C12            4.5924    -0.4759    -1.1398 C.ar    
  13 C13            5.8169    -1.1117    -1.1493 C.ar    
  14 C14            6.2068    -1.8842    -0.0699 C.ar    
  15 C15            5.3727    -2.0244     1.0249 C.ar    
  16 C16            4.1486    -1.3881     1.0491 C.ar    
  17 O17            1.3074    -2.0293    -0.0216 O.3     
  18 O18           -1.2874    -2.8825    -0.9892 O.3     
  19 C19           -1.5966    -2.0306     0.0069 C.2     
  20 C20           -2.1815    -2.7435     1.0073 C.2     
  21 C21           -2.2198    -4.0869     0.5798 C.2     
  22 C22           -1.6632    -4.1271    -0.6457 C.2     
  23 Cl23          -4.0175    -0.0569     0.0425 Cl      
  24 H24            1.1332     3.0593     0.0073 H       
  25 H25            4.2888     0.1263    -1.9834 H       
  26 H26            6.4723    -1.0063    -2.0013 H       
  27 H27            7.1661    -2.3802    -0.0821 H       
  28 H28            5.6823    -2.6293     1.8643 H       
  29 H29            3.5005    -1.4941     1.9065 H       
  30 H30            2.2045    -2.3901    -0.0327 H       
  31 H31           -2.5456    -2.3557     1.9472 H       
  32 H32           -2.6200    -4.9249     1.1311 H       
  33 H33           -1.5388    -5.0122    -1.2519 H       
@<TRIPOS>BOND
   1    1    2 2
   2    1    6 1
   3    1    9 1
   4    2    3 1
   5    2    7 1
   6    3    4 2
   7    3   17 1
   8    4    5 1
   9    4   11 1
  10    5    6 am
  11    5   10 2
  12    6   24 1
  13    7    8 2
  14    7   19 1
  15    8    9 1
  16    8   23 1
  17   11   12 ar
  18   11   16 ar
  19   12   13 ar
  20   12   25 1
  21   13   14 ar
  22   13   26 1
  23   14   15 ar
  24   14   27 1
  25   15   16 ar
  26   15   28 1
  27   16   29 1
  28   17   30 1
  29   18   19 1
  30   18   22 1
  31   19   20 2
  32   20   21 1
  33   20   31 1
  34   21   22 2
  35   21   32 1
  36   22   33 1

#	End of record

