#	Name: ASD01913104
#	Creating user name:	WinNT
#	Creation time:	15. 06. 2019 20:00

#	Modifying user name:	WinNT
#	Modification time:	15. 06. 2019 20:00

#	Program:	/corina/corina34_cracker 3.40 0067  02.08.2006

@<TRIPOS>MOLECULE
ASD01913104
  28   29    0    0    0
SMALL
NO_CHARGES


@<TRIPOS>ATOM
   1 N1            -0.0169     1.3965     0.0097 N.2     
   2 N2             0.0021    -0.0041     0.0020 N.pl3   
   3 C3             1.2284     1.8226     0.0001 C.2     
   4 C4             2.0722     0.6950    -0.0140 C.2     
   5 C5             1.2909    -0.4070    -0.0125 C.2     
   6 C6             1.7727    -1.8348    -0.0240 C.3     
   7 C7             1.6661     3.2408     0.0031 C.ar    
   8 C8             3.0181     3.5553    -0.1136 C.ar    
   9 C9             3.4196     4.8760    -0.1107 C.ar    
  10 C10            2.4824     5.8861     0.0082 C.ar    
  11 C11            1.1385     5.5793     0.1249 C.ar    
  12 C12            0.7255     4.2626     0.1169 C.ar    
  13 C13            2.0679    -2.2850     1.4082 C.3     
  14 C14            0.1231     6.6853     0.2546 C.3     
  15 H15           -0.7755    -0.5839     0.0066 H       
  16 H16            3.1521     0.7089    -0.0248 H       
  17 H17            1.0025    -2.4747    -0.4545 H       
  18 H18            2.6812    -1.9069    -0.6220 H       
  19 H19            3.7509     2.7673    -0.2058 H       
  20 H20            4.4676     5.1210    -0.2011 H       
  21 H21            2.8009     6.9180     0.0104 H       
  22 H22           -0.3239     4.0242     0.2076 H       
  23 H23            2.8381    -1.6451     1.8388 H       
  24 H24            1.1595    -2.2129     2.0062 H       
  25 H25            2.4164    -3.3178     1.3999 H       
  26 H26           -0.2177     6.9837    -0.7368 H       
  27 H27           -0.7260     6.3321     0.8397 H       
  28 H28            0.5787     7.5400     0.7547 H       
@<TRIPOS>BOND
   1    1    2 1
   2    1    3 2
   3    2    5 1
   4    2   15 1
   5    3    4 1
   6    3    7 1
   7    4    5 2
   8    4   16 1
   9    5    6 1
  10    6   13 1
  11    6   17 1
  12    6   18 1
  13    7    8 ar
  14    7   12 ar
  15    8    9 ar
  16    8   19 1
  17    9   10 ar
  18    9   20 1
  19   10   11 ar
  20   10   21 1
  21   11   12 ar
  22   11   14 1
  23   12   22 1
  24   13   23 1
  25   13   24 1
  26   13   25 1
  27   14   26 1
  28   14   27 1
  29   14   28 1

#	End of record

