#	Name: ASD01208940
#	Creating user name:	WinNT
#	Creation time:	15. 06. 2019 19:10

#	Modifying user name:	WinNT
#	Modification time:	15. 06. 2019 19:10

#	Program:	/corina/corina34_cracker 3.40 0067  02.08.2006

@<TRIPOS>MOLECULE
ASD01208940
  54   57    0    0    0
SMALL
NO_CHARGES


@<TRIPOS>ATOM
   1 C1            -2.4039     1.5873    -0.1739 C.3     
   2 C2            -2.3971     0.0435    -0.2992 C.3     
   3 C3            -2.1057    -0.2136    -1.7922 C.3     
   4 C4            -2.5437     1.0521    -2.5498 C.3     
   5 C5            -3.0859     2.0341    -1.4908 C.3     
   6 C6            -1.2943    -0.5597     0.5731 C.3     
   7 C7            -1.3944    -2.0860     0.5387 C.3     
   8 C8            -0.2300    -2.6827     1.2866 C.2     
   9 N9             1.0258    -2.5063     0.8302 N.am    
  10 C10            2.0890    -3.1406     1.4597 C.2     
  11 N11           -2.6476    -2.5076     1.1694 N.pl3   
  12 N12            3.3315    -3.0434     1.1084 N.2     
  13 C13            4.1995    -3.7373     1.8514 C.2     
  14 C14            3.6485    -4.4404     2.8634 C.2     
  15 S15            1.9565    -4.1945     2.8626 S.3     
  16 C16           -2.8463    -2.6998     2.4902 C.2     
  17 C17           -4.1325    -3.0832     2.6624 C.2     
  18 C18           -4.7408    -3.1268     1.4036 C.2     
  19 N19           -3.8531    -2.7766     0.5084 N.2     
  20 C20           -7.3235    -2.0020     1.1696 C.3     
  21 O21           -0.4231    -3.3217     2.2992 O.2     
  22 C22           -8.8474    -2.0605     1.0466 C.3     
  23 C23           -8.2001    -1.7628     2.4006 C.3     
  24 C24            5.6457    -3.7353     1.5859 C.2     
  25 O25            6.3940    -4.3839     2.2911 O.2     
  26 O26            6.1418    -3.0142     0.5605 O.3     
  27 C27            7.5789    -3.0591     0.3576 C.3     
  28 S28           -6.4152    -3.5697     1.0800 S.o2    
  29 O29           -6.3966    -4.0597    -0.2537 O.2     
  30 O30           -6.7704    -4.4146     2.1660 O.2     
  31 H31           -2.9889     1.9022     0.6902 H       
  32 H32           -1.3867     1.9746    -0.1150 H       
  33 H33           -3.3691    -0.3658    -0.0242 H       
  34 H34           -1.0398    -0.3872    -1.9401 H       
  35 H35           -2.6766    -1.0740    -2.1412 H       
  36 H36           -1.6904     1.4927    -3.0654 H       
  37 H37           -3.3271     0.8059    -3.2665 H       
  38 H38           -4.1692     1.9463    -1.4083 H       
  39 H39           -2.8030     3.0571    -1.7389 H       
  40 H40           -0.3206    -0.2507     0.1931 H       
  41 H41           -1.4112    -0.2110     1.5992 H       
  42 H42           -1.3753    -2.4281    -0.4961 H       
  43 H43            1.1870    -1.9363     0.0621 H       
  44 H44            4.1909    -5.0569     3.5649 H       
  45 H45           -2.1104    -2.5710     3.2702 H       
  46 H46           -4.6059    -3.3146     3.6051 H       
  47 H47           -6.8164    -1.1395     0.7372 H       
  48 H48           -9.3429    -1.2362     0.5336 H       
  49 H49           -9.3042    -3.0409     0.9118 H       
  50 H50           -8.2310    -2.5475     3.1566 H       
  51 H51           -8.2697    -0.7428     2.7784 H       
  52 H52            8.0835    -2.6864     1.2489 H       
  53 H53            7.8872    -4.0874     0.1687 H       
  54 H54            7.8447    -2.4373    -0.4973 H       
@<TRIPOS>BOND
   1    1    2 1
   2    1    5 1
   3    1   31 1
   4    1   32 1
   5    2    3 1
   6    2    6 1
   7    2   33 1
   8    3    4 1
   9    3   34 1
  10    3   35 1
  11    4    5 1
  12    4   36 1
  13    4   37 1
  14    5   38 1
  15    5   39 1
  16    6    7 1
  17    6   40 1
  18    6   41 1
  19    7    8 1
  20    7   11 1
  21    7   42 1
  22    8    9 am
  23    8   21 2
  24    9   10 1
  25    9   43 1
  26   10   12 2
  27   10   15 1
  28   11   16 1
  29   11   19 1
  30   12   13 1
  31   13   14 2
  32   13   24 1
  33   14   15 1
  34   14   44 1
  35   16   17 2
  36   16   45 1
  37   17   18 1
  38   17   46 1
  39   18   19 2
  40   18   28 1
  41   20   22 1
  42   20   28 1
  43   20   23 1
  44   20   47 1
  45   22   23 1
  46   22   48 1
  47   22   49 1
  48   23   50 1
  49   23   51 1
  50   24   25 2
  51   24   26 1
  52   26   27 1
  53   27   52 1
  54   27   53 1
  55   27   54 1
  56   28   29 2
  57   28   30 2

#	End of record

