#	Name: ASD02398082
#	Creating user name:	WinNT
#	Creation time:	15. 06. 2019 20:20

#	Modifying user name:	WinNT
#	Modification time:	15. 06. 2019 20:20

#	Program:	/corina/corina34_cracker 3.40 0067  02.08.2006

@<TRIPOS>MOLECULE
ASD02398082
  65   67    0    0    0
SMALL
NO_CHARGES


@<TRIPOS>ATOM
   1 C1            -0.0167     1.3833     0.0096 C.ar    
   2 C2             0.0021    -0.0041     0.0020 C.ar    
   3 C3            -1.1853    -0.7097     0.0095 C.ar    
   4 C4            -2.3921    -0.0347     0.0242 C.ar    
   5 C5            -2.4135     1.3476     0.0318 C.ar    
   6 C6            -1.2285     2.0581     0.0306 C.ar    
   7 C7             1.3169    -0.7404    -0.0149 C.3     
   8 C8             1.4196    -1.6237     1.2277 C.3     
   9 C9             0.4523    -2.7730     1.1215 C.2     
  10 C10            0.1990    -3.3264    -0.0658 C.2     
  11 C11            0.8684    -2.8049    -1.2718 C.2     
  12 C12            1.3991    -1.5879    -1.2566 C.2     
  13 C13            2.0861    -1.0529    -2.4865 C.3     
  14 O14            2.0344    -2.0491    -3.5417 O.3     
  15 C15           -3.6860    -0.8071     0.0313 C.3     
  16 C16           -4.1047    -1.0727     1.4544 C.2     
  17 O17           -3.4223    -0.6755     2.3690 O.2     
  18 O18           -5.2356    -1.7505     1.7060 O.3     
  19 C19            2.6078    -1.7258    -4.7162 C.2     
  20 N20            2.5949    -2.6054    -5.7372 N.am    
  21 O21            3.1370    -0.6409    -4.8556 O.2     
  22 C22            1.9568    -3.9134    -5.5690 C.3     
  23 C23            0.4834    -3.8174    -5.9697 C.3     
  24 C24            3.2188    -2.2536    -7.0151 C.3     
  25 C25            4.6653    -2.6761    -7.0010 C.ar    
  26 C26            5.0211    -3.9381    -7.4388 C.ar    
  27 C27            6.3479    -4.3256    -7.4259 C.ar    
  28 C28            7.3191    -3.4510    -6.9755 C.ar    
  29 C29            6.9634    -2.1887    -6.5385 C.ar    
  30 C30            5.6370    -1.7996    -6.5556 C.ar    
  31 O31           -0.6712    -4.3656    -0.1631 O.3     
  32 C32           -1.2809    -4.8168     1.0480 C.3     
  33 O33            1.1501     2.0799     0.0022 O.3     
  34 C34            1.0546     3.5057     0.0108 C.3     
  35 H35           -1.1711    -1.7896     0.0036 H       
  36 H36           -3.3573     1.8725     0.0432 H       
  37 H37           -1.2458     3.1379     0.0366 H       
  38 H38            2.1349    -0.0201    -0.0155 H       
  39 H39            2.4347    -2.0116     1.3132 H       
  40 H40            1.1837    -1.0326     2.1126 H       
  41 H41           -0.0367    -3.1499     2.0076 H       
  42 H42            0.9269    -3.4107    -2.1641 H       
  43 H43            1.5819    -0.1454    -2.8186 H       
  44 H44            3.1260    -0.8258    -2.2520 H       
  45 H45           -4.4587    -0.2262    -0.4723 H       
  46 H46           -3.5465    -1.7546    -0.4892 H       
  47 H47           -5.4627    -1.8964     2.6345 H       
  48 H48            2.4583    -4.6462    -6.2013 H       
  49 H49            2.0305    -4.2223    -4.5263 H       
  50 H50            0.4098    -3.5086    -7.0124 H       
  51 H51            0.0087    -4.7906    -5.8446 H       
  52 H52           -0.0181    -3.0846    -5.3375 H       
  53 H53            2.6991    -2.7641    -7.8259 H       
  54 H54            3.1565    -1.1758    -7.1653 H       
  55 H55            4.2624    -4.6214    -7.7907 H       
  56 H56            6.6258    -5.3118    -7.7673 H       
  57 H57            8.3556    -3.7540    -6.9647 H       
  58 H58            7.7221    -1.5054    -6.1864 H       
  59 H59            5.3596    -0.8121    -6.2176 H       
  60 H60           -1.8483    -4.0006     1.4952 H       
  61 H61           -1.9511    -5.6482     0.8295 H       
  62 H62           -0.5084    -5.1458     1.7430 H       
  63 H63            2.0556     3.9369     0.0036 H       
  64 H64            0.5092     3.8386    -0.8722 H       
  65 H65            0.5262     3.8290     0.9076 H       
@<TRIPOS>BOND
   1    1    2 ar
   2    1   33 1
   3    1    6 ar
   4    2    3 ar
   5    2    7 1
   6    3    4 ar
   7    3   35 1
   8    4    5 ar
   9    4   15 1
  10    5    6 ar
  11    5   36 1
  12    6   37 1
  13    7    8 1
  14    7   12 1
  15    7   38 1
  16    8    9 1
  17    8   39 1
  18    8   40 1
  19    9   10 2
  20    9   41 1
  21   10   11 1
  22   10   31 1
  23   11   12 2
  24   11   42 1
  25   12   13 1
  26   13   14 1
  27   13   43 1
  28   13   44 1
  29   14   19 1
  30   15   16 1
  31   15   45 1
  32   15   46 1
  33   16   17 2
  34   16   18 1
  35   18   47 1
  36   19   20 am
  37   19   21 2
  38   20   22 1
  39   20   24 1
  40   22   23 1
  41   22   48 1
  42   22   49 1
  43   23   50 1
  44   23   51 1
  45   23   52 1
  46   24   25 1
  47   24   53 1
  48   24   54 1
  49   25   26 ar
  50   25   30 ar
  51   26   27 ar
  52   26   55 1
  53   27   28 ar
  54   27   56 1
  55   28   29 ar
  56   28   57 1
  57   29   30 ar
  58   29   58 1
  59   30   59 1
  60   31   32 1
  61   32   60 1
  62   32   61 1
  63   32   62 1
  64   33   34 1
  65   34   63 1
  66   34   64 1
  67   34   65 1

#	End of record

