#	Name: ASD00431415
#	Creating user name:	WinNT
#	Creation time:	15. 06. 2019 18:35

#	Modifying user name:	WinNT
#	Modification time:	15. 06. 2019 18:35

#	Program:	/corina/corina34_cracker 3.40 0067  02.08.2006

@<TRIPOS>MOLECULE
ASD00431415
  34   35    0    0    0
SMALL
NO_CHARGES


@<TRIPOS>ATOM
   1 C1            -0.0478     1.4464     0.0082 C.2     
   2 C2            -0.0243    -0.0216    -0.0260 C.ar    
   3 C3             0.4021    -0.6908    -1.1799 C.ar    
   4 C4             0.4222    -2.0615    -1.2067 C.ar    
   5 C5             0.0195    -2.7873    -0.0905 C.ar    
   6 C6            -0.4054    -2.1274     1.0579 C.ar    
   7 C7            -0.4228    -0.7570     1.0972 C.ar    
   8 O8            -0.4175     2.0239     1.0087 O.2     
   9 O9             0.0407    -4.1433    -0.1223 O.3     
  10 C10            1.2466    -4.7598    -0.2162 C.ar    
  11 C11            1.3165    -6.1454    -0.1484 C.ar    
  12 C12            2.5503    -6.7639    -0.2456 C.ar    
  13 C13            3.6804    -5.9671    -0.4086 C.ar    
  14 C14            3.5337    -4.5909    -0.4677 C.ar    
  15 N15            2.3405    -4.0348    -0.3765 N.ar    
  16 O16            4.9130    -6.5329    -0.5081 O.3     
  17 C17            4.9975    -7.9444    -0.3016 C.3     
  18 C18            4.9057    -8.6634    -1.6490 C.3     
  19 C19            6.3312    -8.2830     0.3674 C.3     
  20 H20            0.2683     2.0118    -0.8560 H       
  21 H21            0.7143    -0.1282    -2.0473 H       
  22 H22            0.7508    -2.5785    -2.0961 H       
  23 H23           -0.7174    -2.6955     1.9218 H       
  24 H24           -0.7482    -0.2455     1.9911 H       
  25 H25            0.4190    -6.7326    -0.0211 H       
  26 H26            2.6348    -7.8394    -0.1959 H       
  27 H27            4.4056    -3.9661    -0.5940 H       
  28 H28            4.1772    -8.2676     0.3393 H       
  29 H29            4.9702    -9.7400    -1.4915 H       
  30 H30            3.9556    -8.4221    -2.1256 H       
  31 H31            5.7261    -8.3402    -2.2899 H       
  32 H32            6.3965    -7.7708     1.3273 H       
  33 H33            6.3956    -9.3596     0.5249 H       
  34 H34            7.1515    -7.9598    -0.2735 H       
@<TRIPOS>BOND
   1    1    2 1
   2    1    8 2
   3    1   20 1
   4    2    3 ar
   5    2    7 ar
   6    3    4 ar
   7    3   21 1
   8    4    5 ar
   9    4   22 1
  10    5    6 ar
  11    5    9 1
  12    6    7 ar
  13    6   23 1
  14    7   24 1
  15    9   10 1
  16   10   11 ar
  17   10   15 ar
  18   11   12 ar
  19   11   25 1
  20   12   13 ar
  21   12   26 1
  22   13   14 ar
  23   13   16 1
  24   14   15 ar
  25   14   27 1
  26   16   17 1
  27   17   18 1
  28   17   19 1
  29   17   28 1
  30   18   29 1
  31   18   30 1
  32   18   31 1
  33   19   32 1
  34   19   33 1
  35   19   34 1

#	End of record

