#	Name: ASD03330004
#	Creating user name:	WinNT
#	Creation time:	15. 06. 2019 20:36

#	Modifying user name:	WinNT
#	Modification time:	15. 06. 2019 20:36

#	Program:	/corina/corina34_cracker 3.40 0067  02.08.2006

@<TRIPOS>MOLECULE
ASD03330004
  51   54    0    0    0
SMALL
NO_CHARGES


@<TRIPOS>ATOM
   1 C1            -0.0168     1.3857     0.0097 C.ar    
   2 C2             0.0021    -0.0041     0.0020 C.ar    
   3 C3            -1.1731    -0.7218     0.0098 C.ar    
   4 C4            -2.3931    -0.0521     0.0256 C.ar    
   5 C5            -2.4101     1.3565     0.0333 C.ar    
   6 C6            -1.2016     2.0646     0.0303 C.ar    
   7 N7            -3.7005    -0.4788     0.0363 N.pl3   
   8 C8            -4.5290     0.6265     0.0504 C.2     
   9 C9            -3.7693     1.7530     0.0489 C.2     
  10 Cl10           1.4792     2.2664     0.0001 Cl      
  11 C11           -4.2815     3.1702     0.0616 C.3     
  12 C12           -4.4410     3.6419     1.5084 C.3     
  13 C13           -5.9991     0.5898     0.0644 C.2     
  14 N14           -6.6437    -0.5938     0.0645 N.am    
  15 O15           -6.6333     1.6278     0.0759 O.2     
  16 C16           -8.1082    -0.6303     0.0784 C.3     
  17 C17           -8.6321    -0.5617     1.5277 C.3     
  18 C18           -9.4124    -1.8776     1.7349 C.3     
  19 N19           -8.8323    -2.8172     0.7412 N.3     
  20 C20           -8.6160    -1.9819    -0.4681 C.3     
  21 C21           -9.7579    -3.9225     0.4589 C.3     
  22 C22          -10.9426    -3.4008    -0.3127 C.ar    
  23 C23          -10.9124    -3.3795    -1.6946 C.ar    
  24 C24          -11.9991    -2.9010    -2.4024 C.ar    
  25 C25          -13.1162    -2.4442    -1.7284 C.ar    
  26 C26          -13.1468    -2.4665    -0.3465 C.ar    
  27 C27          -12.0618    -2.9490     0.3612 C.ar    
  28 H28            0.9475    -0.5261    -0.0105 H       
  29 H29           -1.1482    -1.8015     0.0034 H       
  30 H30           -1.2067     3.1446     0.0362 H       
  31 H31           -3.9928    -1.4037     0.0339 H       
  32 H32           -3.5729     3.8172    -0.4554 H       
  33 H33           -5.2468     3.2122    -0.4428 H       
  34 H34           -5.1496     2.9948     2.0254 H       
  35 H35           -3.4757     3.5999     2.0128 H       
  36 H36           -4.8115     4.6670     1.5175 H       
  37 H37           -6.1379    -1.4215     0.0554 H       
  38 H38           -8.5124     0.1936    -0.5097 H       
  39 H39           -7.7996    -0.5008     2.2287 H       
  40 H40           -9.2949     0.2948     1.6505 H       
  41 H41           -9.2617    -2.2536     2.7468 H       
  42 H42          -10.4738    -1.7249     1.5393 H       
  43 H43           -9.5528    -1.8456    -1.0085 H       
  44 H44           -7.8657    -2.4365    -1.1150 H       
  45 H45           -9.2464    -4.6831    -0.1309 H       
  46 H46          -10.0993    -4.3592     1.3974 H       
  47 H47          -10.0396    -3.7363    -2.2212 H       
  48 H48          -11.9752    -2.8836    -3.4820 H       
  49 H49          -13.9649    -2.0697    -2.2813 H       
  50 H50          -14.0195    -2.1093     0.1801 H       
  51 H51          -12.0857    -2.9664     1.4408 H       
@<TRIPOS>BOND
   1    1    2 ar
   2    1   10 1
   3    1    6 ar
   4    2    3 ar
   5    2   28 1
   6    3    4 ar
   7    3   29 1
   8    4    5 ar
   9    4    7 1
  10    5    6 ar
  11    5    9 1
  12    6   30 1
  13    7    8 1
  14    7   31 1
  15    8    9 2
  16    8   13 1
  17    9   11 1
  18   11   12 1
  19   11   32 1
  20   11   33 1
  21   12   34 1
  22   12   35 1
  23   12   36 1
  24   13   14 am
  25   13   15 2
  26   14   16 1
  27   14   37 1
  28   16   17 1
  29   16   20 1
  30   16   38 1
  31   17   18 1
  32   17   39 1
  33   17   40 1
  34   18   19 1
  35   18   41 1
  36   18   42 1
  37   19   20 1
  38   19   21 1
  39   20   43 1
  40   20   44 1
  41   21   22 1
  42   21   45 1
  43   21   46 1
  44   22   23 ar
  45   22   27 ar
  46   23   24 ar
  47   23   47 1
  48   24   25 ar
  49   24   48 1
  50   25   26 ar
  51   25   49 1
  52   26   27 ar
  53   26   50 1
  54   27   51 1

#	End of record

