#	Name: ASD01883095
#	Creating user name:	WinNT
#	Creation time:	15. 06. 2019 19:45

#	Modifying user name:	WinNT
#	Modification time:	15. 06. 2019 19:45

#	Program:	/corina/corina34_cracker 3.40 0067  02.08.2006

@<TRIPOS>MOLECULE
ASD01883095
  50   52    0    0    0
SMALL
NO_CHARGES


@<TRIPOS>ATOM
   1 N1            -0.0126     1.3353     0.0118 N.am    
   2 C2             0.0045    -0.0105     0.0142 C.2     
   3 C3            -1.2143    -0.7327     0.0224 C.2     
   4 C4            -2.4237    -0.0154     0.0278 C.2     
   5 C5            -2.3751     1.3925     0.0249 C.2     
   6 C6            -1.1810     2.0272     0.0222 C.2     
   7 O7             1.0677    -0.6073     0.0090 O.2     
   8 C8            -1.2145    -2.1647     0.0246 C.1     
   9 N9            -1.2147    -3.3007     0.0264 N.1     
  10 C10            1.2554     2.0689     0.0038 C.3     
  11 C11           -3.7201    -0.7245     0.0360 C.ar    
  12 C12            1.6893     2.3216    -1.4415 C.3     
  13 O13            0.7474     3.1880    -2.0771 O.3     
  14 C14            0.9871     3.5146    -3.3743 C.ar    
  15 C15            0.1134     4.3517    -4.0529 C.ar    
  16 C16            0.3593     4.6822    -5.3715 C.ar    
  17 C17            1.4751     4.1794    -6.0149 C.ar    
  18 C18            2.3471     3.3446    -5.3409 C.ar    
  19 C19            2.1090     3.0161    -4.0204 C.ar    
  20 C20           -4.5736    -0.6106     1.1359 C.ar    
  21 C21           -5.7822    -1.2738     1.1394 C.ar    
  22 C22           -6.1513    -2.0549     0.0500 C.ar    
  23 C23           -5.3045    -2.1701    -1.0456 C.ar    
  24 C24           -4.0978    -1.5059    -1.0589 C.ar    
  25 O25           -7.3423    -2.7072     0.0569 O.3     
  26 C26           -7.7126    -3.3943    -1.1401 C.3     
  27 C27           -7.0835    -4.7889    -1.1431 C.3     
  28 C28           -9.2359    -3.5217    -1.2045 C.3     
  29 Cl29          -6.8440    -1.1339     2.5057 Cl      
  30 H30           -3.2910     1.9648     0.0290 H       
  31 H31           -1.1561     3.1069     0.0204 H       
  32 H32            1.1270     3.0221     0.5165 H       
  33 H33            2.0183     1.4814     0.5147 H       
  34 H34            2.6745     2.7880    -1.4488 H       
  35 H35            1.7319     1.3743    -1.9790 H       
  36 H36           -0.7585     4.7443    -3.5509 H       
  37 H37           -0.3208     5.3335    -5.9004 H       
  38 H38            1.6656     4.4390    -7.0458 H       
  39 H39            3.2176     2.9527    -5.8459 H       
  40 H40            2.7905     2.3640    -3.4943 H       
  41 H41           -4.2869    -0.0042     1.9824 H       
  42 H42           -5.5948    -2.7778    -1.8899 H       
  43 H43           -3.4406    -1.5959    -1.9111 H       
  44 H44           -7.3580    -2.8339    -2.0052 H       
  45 H45           -7.3660    -5.3130    -2.0561 H       
  46 H46           -5.9983    -4.6981    -1.0972 H       
  47 H47           -7.4381    -5.3493    -0.2780 H       
  48 H48           -9.6841    -2.5281    -1.2024 H       
  49 H49           -9.5184    -4.0458    -2.1176 H       
  50 H50           -9.5905    -4.0821    -0.3394 H       
@<TRIPOS>BOND
   1    1    2 am
   2    1   10 1
   3    1    6 1
   4    2    3 1
   5    2    7 2
   6    3    4 2
   7    3    8 1
   8    4    5 1
   9    4   11 1
  10    5    6 2
  11    5   30 1
  12    6   31 1
  13    8    9 3
  14   10   12 1
  15   10   32 1
  16   10   33 1
  17   11   20 ar
  18   11   24 ar
  19   12   13 1
  20   12   34 1
  21   12   35 1
  22   13   14 1
  23   14   15 ar
  24   14   19 ar
  25   15   16 ar
  26   15   36 1
  27   16   17 ar
  28   16   37 1
  29   17   18 ar
  30   17   38 1
  31   18   19 ar
  32   18   39 1
  33   19   40 1
  34   20   21 ar
  35   20   41 1
  36   21   22 ar
  37   21   29 1
  38   22   23 ar
  39   22   25 1
  40   23   24 ar
  41   23   42 1
  42   24   43 1
  43   25   26 1
  44   26   27 1
  45   26   28 1
  46   26   44 1
  47   27   45 1
  48   27   46 1
  49   27   47 1
  50   28   48 1
  51   28   49 1
  52   28   50 1

#	End of record

