#	Name: ASD02038977
#	Creating user name:	WinNT
#	Creation time:	15. 06. 2019 20:17

#	Modifying user name:	WinNT
#	Modification time:	15. 06. 2019 20:17

#	Program:	/corina/corina34_cracker 3.40 0067  02.08.2006

@<TRIPOS>MOLECULE
ASD02038977
  41   44    0    0    0
SMALL
NO_CHARGES


@<TRIPOS>ATOM
   1 N1             0.3582     0.7715     0.0525 N.am    
   2 C2             0.4462    -0.5689     0.1321 C.2     
   3 C3             1.7859    -1.2478     0.2292 C.3     
   4 C4             2.8183    -0.4835    -0.6002 C.3     
   5 C5             2.7406     0.9851    -0.2727 C.ar    
   6 C6             3.8836     1.7595    -0.2850 C.ar    
   7 C7             3.8084     3.1114     0.0166 C.ar    
   8 C8             2.5851     3.6858     0.3306 C.ar    
   9 C9             1.4415     2.9122     0.3436 C.ar    
  10 C10            1.5160     1.5590     0.0413 C.ar    
  11 O11           -0.5657    -1.2376     0.1258 O.2     
  12 O12            4.9341     3.8739     0.0048 O.3     
  13 C13            4.7833     5.2584     0.3251 C.3     
  14 O14            7.0001     6.0715     1.2789 O.3     
  15 C15            6.1269     5.9379     0.2617 C.2     
  16 N16            6.6541     6.5020    -0.7853 N.2     
  17 N17            7.8085     6.9813    -0.4805 N.2     
  18 C18            8.0595     6.7372     0.7827 C.2     
  19 N19            9.2008     7.0973     1.4768 N.pl3   
  20 C20           10.2751     7.6833     0.8001 C.ar    
  21 C21           11.1126     8.5722     1.4617 C.ar    
  22 C22           12.1728     9.1495     0.7909 C.ar    
  23 C23           12.4008     8.8435    -0.5394 C.ar    
  24 C24           11.5676     7.9586    -1.2011 C.ar    
  25 C25           10.5099     7.3732    -0.5334 C.ar    
  26 Cl26          13.7340     9.5716    -1.3797 Cl      
  27 H27           -0.5129     1.1947    -0.0014 H       
  28 H28            2.1048    -1.2720     1.2712 H       
  29 H29            1.7029    -2.2676    -0.1465 H       
  30 H30            3.8167    -0.8548    -0.3689 H       
  31 H31            2.6130    -0.6305    -1.6606 H       
  32 H32            4.8361     1.3127    -0.5290 H       
  33 H33            2.5274     4.7384     0.5653 H       
  34 H34            0.4895     3.3594     0.5889 H       
  35 H35            4.1059     5.7251    -0.3901 H       
  36 H36            4.3738     5.3562     1.3305 H       
  37 H37            9.2559     6.9432     2.4329 H       
  38 H38           10.9347     8.8119     2.4996 H       
  39 H39           12.8243     9.8408     1.3048 H       
  40 H40           11.7477     7.7218    -2.2393 H       
  41 H41            9.8629     6.6790    -1.0489 H       
@<TRIPOS>BOND
   1    1    2 am
   2    1   10 1
   3    1   27 1
   4    2    3 1
   5    2   11 2
   6    3    4 1
   7    3   28 1
   8    3   29 1
   9    4    5 1
  10    4   30 1
  11    4   31 1
  12    5    6 ar
  13    5   10 ar
  14    6    7 ar
  15    6   32 1
  16    7    8 ar
  17    7   12 1
  18    8    9 ar
  19    8   33 1
  20    9   10 ar
  21    9   34 1
  22   12   13 1
  23   13   15 1
  24   13   35 1
  25   13   36 1
  26   14   15 1
  27   14   18 1
  28   15   16 2
  29   16   17 1
  30   17   18 2
  31   18   19 1
  32   19   20 1
  33   19   37 1
  34   20   21 ar
  35   20   25 ar
  36   21   22 ar
  37   21   38 1
  38   22   23 ar
  39   22   39 1
  40   23   24 ar
  41   23   26 1
  42   24   25 ar
  43   24   40 1
  44   25   41 1

#	End of record

