#	Name: ASD06170134
#	Creating user name:	WinNT
#	Creation time:	15. 06. 2019 21:05

#	Modifying user name:	WinNT
#	Modification time:	15. 06. 2019 21:05

#	Program:	/corina/corina34_cracker 3.40 0067  02.08.2006

@<TRIPOS>MOLECULE
ASD06170134
  71   76    0    0    0
SMALL
NO_CHARGES


@<TRIPOS>ATOM
   1 N1             0.0633     1.1964    -0.6230 N.pl3   
   2 N2             0.0493    -0.1924    -0.4635 N.am    
   3 C3             1.2866    -0.5966    -0.1082 C.2     
   4 C4             2.1194     0.6148    -0.0432 C.2     
   5 C5             1.2970     1.6745    -0.3722 C.2     
   6 C6             3.5440     0.6834     0.3039 C.2     
   7 O7             4.1152     1.7579     0.3203 O.2     
   8 N8             4.2195    -0.4434     0.6045 N.am    
   9 C9            -1.0613    -1.0237    -0.6423 C.ar    
  10 C10           -1.9028    -0.8362    -1.7311 C.ar    
  11 C11           -2.9984    -1.6590    -1.9050 C.ar    
  12 C12           -3.2578    -2.6686    -0.9964 C.ar    
  13 C13           -2.4221    -2.8577     0.0890 C.ar    
  14 C14           -1.3217    -2.0420     0.2655 C.ar    
  15 O15            1.6434    -1.7383     0.1152 O.2     
  16 C16            1.7107     3.1221    -0.4396 C.3     
  17 C17           -1.0912     2.0102    -1.0116 C.3     
  18 C18           -1.7257     2.6246     0.2377 C.3     
  19 C19           -3.0024     3.3716    -0.1535 C.3     
  20 C20           -2.0689     1.5151     1.2337 C.3     
  21 O21           -0.8054     3.5372     0.8396 O.3     
  22 C22            5.6083    -0.4018     0.7792 C.ar    
  23 C23            6.2201     0.7706     1.2037 C.ar    
  24 C24            7.5909     0.8105     1.3763 C.ar    
  25 C25            8.3557    -0.3224     1.1250 C.ar    
  26 C26            7.7439    -1.4920     0.7009 C.ar    
  27 C27            6.3731    -1.5341     0.5337 C.ar    
  28 O28            9.7045    -0.2835     1.2947 O.3     
  29 C29           12.0381    -0.3110     4.1235 C.ar    
  30 C30           11.5693    -0.3322     2.8070 C.ar    
  31 C31           10.1869    -0.2651     2.5633 C.ar    
  32 C32            9.3267    -0.1793     3.6472 C.ar    
  33 C33            9.8562    -0.1627     4.9279 C.ar    
  34 N34           11.1474    -0.2275     5.1347 N.ar    
  35 C35           13.4382    -0.3893     4.1967 C.2     
  36 C36           14.0747    -0.4692     3.0227 C.2     
  37 S37           12.9273    -0.4454     1.6948 S.3     
  38 O38           16.4485    -0.5765     3.8509 O.3     
  39 N39           17.5609    -0.6582     3.3745 N.2     
  40 C40           17.4990    -0.7017     2.0760 C.2     
  41 N41           16.2052    -0.6394     1.7277 N.2     
  42 C42           15.5352    -0.5594     2.8662 C.2     
  43 C43           18.6699    -0.8036     1.1328 C.3     
  44 F44            8.1872     1.9505     1.7886 F       
  45 H45            3.7436    -1.2833     0.6999 H       
  46 H46           -1.7010    -0.0476    -2.4409 H       
  47 H47           -3.6533    -1.5135    -2.7513 H       
  48 H48           -4.1151    -3.3107    -1.1346 H       
  49 H49           -2.6277    -3.6469     0.7970 H       
  50 H50           -0.6669    -2.1930     1.1110 H       
  51 H51            1.5638     3.5877     0.5349 H       
  52 H52            2.7625     3.1867    -0.7184 H       
  53 H53            1.1051     3.6387    -1.1842 H       
  54 H54           -0.7660     2.8053    -1.6825 H       
  55 H55           -1.8234     1.3828    -1.5199 H       
  56 H56           -3.7044     2.6755    -0.6126 H       
  57 H57           -3.4544     3.8093     0.7365 H       
  58 H58           -2.7579     4.1620    -0.8631 H       
  59 H59           -1.1594     0.9829     1.5124 H       
  60 H60           -2.5209     1.9528     2.1237 H       
  61 H61           -2.7709     0.8190     0.7746 H       
  62 H62           -0.5431     4.2684     0.2638 H       
  63 H63            5.6252     1.6506     1.3984 H       
  64 H64            8.3387    -2.3720     0.5054 H       
  65 H65            5.8969    -2.4469     0.2076 H       
  66 H66            8.2587    -0.1259     3.4956 H       
  67 H67            9.1887    -0.0959     5.7742 H       
  68 H68           13.9664    -0.3849     5.1387 H       
  69 H69           18.8926    -1.8535     0.9423 H       
  70 H70           18.4242    -0.3081     0.1936 H       
  71 H71           19.5399    -0.3231     1.5804 H       
@<TRIPOS>BOND
   1    1    2 1
   2    1    5 1
   3    1   17 1
   4    2    3 am
   5    2    9 1
   6    3    4 1
   7    3   15 2
   8    4    5 2
   9    4    6 1
  10    5   16 1
  11    6    7 2
  12    6    8 am
  13    8   22 1
  14    8   45 1
  15    9   10 ar
  16    9   14 ar
  17   10   11 ar
  18   10   46 1
  19   11   12 ar
  20   11   47 1
  21   12   13 ar
  22   12   48 1
  23   13   14 ar
  24   13   49 1
  25   14   50 1
  26   16   51 1
  27   16   52 1
  28   16   53 1
  29   17   18 1
  30   17   54 1
  31   17   55 1
  32   18   19 1
  33   18   20 1
  34   18   21 1
  35   19   56 1
  36   19   57 1
  37   19   58 1
  38   20   59 1
  39   20   60 1
  40   20   61 1
  41   21   62 1
  42   22   23 ar
  43   22   27 ar
  44   23   24 ar
  45   23   63 1
  46   24   25 ar
  47   24   44 1
  48   25   26 ar
  49   25   28 1
  50   26   27 ar
  51   26   64 1
  52   27   65 1
  53   28   31 1
  54   29   30 ar
  55   29   34 ar
  56   29   35 1
  57   30   31 ar
  58   30   37 1
  59   31   32 ar
  60   32   33 ar
  61   32   66 1
  62   33   34 ar
  63   33   67 1
  64   35   36 2
  65   35   68 1
  66   36   37 1
  67   36   42 1
  68   38   39 1
  69   38   42 1
  70   39   40 2
  71   40   41 1
  72   40   43 1
  73   41   42 2
  74   43   69 1
  75   43   70 1
  76   43   71 1

#	End of record

