#	Name: ASD01910932
#	Creating user name:	WinNT
#	Creation time:	15. 06. 2019 19:56

#	Modifying user name:	WinNT
#	Modification time:	15. 06. 2019 19:56

#	Program:	/corina/corina34_cracker 3.40 0067  02.08.2006

@<TRIPOS>MOLECULE
ASD01910932
  53   56    0    0    0
SMALL
NO_CHARGES


@<TRIPOS>ATOM
   1 N1             0.3475     0.7789     0.0583 N.3     
   2 C2             0.1230    -0.6249     0.4283 C.3     
   3 C3            -1.3775    -0.8636     0.6272 C.3     
   4 N4            -2.0859    -0.4183    -0.5824 N.am    
   5 C5            -1.8078     0.9322    -1.0942 C.3     
   6 C6            -0.2903     1.1002    -1.2254 C.3     
   7 C7            -2.9660    -1.2266    -1.2056 C.2     
   8 C8            -3.7514    -0.7206    -2.3518 C.ar    
   9 C9            -3.9391    -1.5223    -3.4799 C.ar    
  10 C10           -4.6721    -1.0519    -4.5518 C.ar    
  11 C11           -5.2244     0.2125    -4.5170 C.ar    
  12 C12           -5.0443     1.0265    -3.3943 C.ar    
  13 C13           -4.3103     0.5547    -2.3062 C.ar    
  14 C14           -5.6173     2.3384    -3.3593 C.1     
  15 O15           -3.1143    -2.3716    -0.8255 O.2     
  16 C16           -6.0870     3.4139    -3.3306 C.1     
  17 C17           -6.6600     4.7259    -3.2956 C.ar    
  18 C18           -6.4864     5.5475    -2.1791 C.ar    
  19 N19           -7.0137     6.7538    -2.1477 N.ar    
  20 C20           -7.7189     7.2327    -3.1545 C.ar    
  21 C21           -7.9370     6.4816    -4.2960 C.ar    
  22 C22           -7.3998     5.2100    -4.3831 C.ar    
  23 C23            1.7112     1.0764     0.0278 C.2     
  24 C24            2.2567     2.2448     0.3959 C.2     
  25 C25            3.6363     2.3030     0.2779 C.2     
  26 C26            4.2091     1.1917    -0.1824 C.2     
  27 S27            2.9790    -0.0262    -0.4924 S.3     
  28 S28            5.9390     0.9729    -0.4361 S.o2    
  29 N29            6.5695     0.3758     0.9739 N.am    
  30 O30            6.0753    -0.0577    -1.4048 O.2     
  31 O31            6.4877     2.2731    -0.6021 O.2     
  32 N32            1.4484     3.3836     0.8895 N.pl3   
  33 O33            1.9916     4.4322     1.1873 O.2     
  34 O34            0.2404     3.2714     0.9974 O.2     
  35 H35            0.4924    -1.2738    -0.3658 H       
  36 H36            0.6525    -0.8460     1.3550 H       
  37 H37           -1.5610    -1.9258     0.7889 H       
  38 H38           -1.7281    -0.2935     1.4876 H       
  39 H39           -2.2758     1.0573    -2.0706 H       
  40 H40           -2.1997     1.6750    -0.3993 H       
  41 H41           -0.0606     2.1303    -1.4979 H       
  42 H42            0.0848     0.4273    -1.9964 H       
  43 H43           -3.5095    -2.5126    -3.5143 H       
  44 H44           -4.8135    -1.6763    -5.4216 H       
  45 H45           -5.7965     0.5740    -5.3587 H       
  46 H46           -4.1678     1.1787    -1.4363 H       
  47 H47           -5.9155     5.1904    -1.3348 H       
  48 H48           -8.1333     8.2277    -3.0865 H       
  49 H49           -8.5169     6.8859    -5.1125 H       
  50 H50           -7.5545     4.6022    -5.2624 H       
  51 H51            4.2045     3.1835     0.5392 H       
  52 H52            7.3468    -0.2040     0.9504 H       
  53 H53            6.1616     0.6059     1.8234 H       
@<TRIPOS>BOND
   1    1    2 1
   2    1   23 1
   3    1    6 1
   4    2    3 1
   5    2   35 1
   6    2   36 1
   7    3    4 1
   8    3   37 1
   9    3   38 1
  10    4    5 1
  11    4    7 am
  12    5    6 1
  13    5   39 1
  14    5   40 1
  15    6   41 1
  16    6   42 1
  17    7    8 1
  18    7   15 2
  19    8    9 ar
  20    8   13 ar
  21    9   10 ar
  22    9   43 1
  23   10   11 ar
  24   10   44 1
  25   11   12 ar
  26   11   45 1
  27   12   13 ar
  28   12   14 1
  29   13   46 1
  30   14   16 3
  31   16   17 1
  32   17   18 ar
  33   17   22 ar
  34   18   19 ar
  35   18   47 1
  36   19   20 ar
  37   20   21 ar
  38   20   48 1
  39   21   22 ar
  40   21   49 1
  41   22   50 1
  42   23   24 2
  43   23   27 1
  44   24   25 1
  45   24   32 1
  46   25   26 2
  47   25   51 1
  48   26   27 1
  49   26   28 1
  50   28   29 am
  51   28   30 2
  52   28   31 2
  53   29   52 1
  54   29   53 1
  55   32   33 2
  56   32   34 2

#	End of record

