#	Name: ASD01882210
#	Creating user name:	WinNT
#	Creation time:	15. 06. 2019 19:44

#	Modifying user name:	WinNT
#	Modification time:	15. 06. 2019 19:44

#	Program:	/corina/corina34_cracker 3.40 0067  02.08.2006

@<TRIPOS>MOLECULE
ASD01882210
  38   40    0    0    0
SMALL
NO_CHARGES


@<TRIPOS>ATOM
   1 C1            -0.0168     1.3848     0.0097 C.ar    
   2 C2             0.0021    -0.0041     0.0020 C.ar    
   3 C3             1.2285    -0.6620    -0.0133 C.ar    
   4 C4             2.3939     0.1076    -0.0203 C.ar    
   5 C5             2.2932     1.4813    -0.0120 C.ar    
   6 N6             1.1138     2.0759     0.0026 N.ar    
   7 N7             1.2919    -2.0534    -0.0209 N.3     
   8 C8             1.9890    -2.5419    -1.2175 C.3     
   9 C9             1.9126    -4.0696    -1.2660 C.3     
  10 C10            2.5587    -4.6483    -0.0042 C.3     
  11 C11            1.8454    -4.0863     1.2287 C.3     
  12 C12            1.9237    -2.5581     1.2048 C.3     
  13 C13            2.4333    -6.1500    -0.0176 C.ar    
  14 C14            3.1986    -6.9153     0.8423 C.ar    
  15 C15            3.0836    -8.2928     0.8300 C.ar    
  16 C16            2.2029    -8.9050    -0.0421 C.ar    
  17 C17            1.4369    -8.1397    -0.9014 C.ar    
  18 C18            1.5488    -6.7620    -0.8860 C.ar    
  19 F19            3.9108    -4.2913     0.0346 F       
  20 Cl20          -1.4815    -0.9055     0.0120 Cl      
  21 N21           -1.2346     2.0569     0.0191 N.pl3   
  22 H22            3.3631    -0.3690    -0.0318 H       
  23 H23            3.1915     2.0808    -0.0174 H       
  24 H24            1.5171    -2.1262    -2.1078 H       
  25 H25            3.0332    -2.2314    -1.1816 H       
  26 H26            0.8691    -4.3804    -1.3158 H       
  27 H27            2.4435    -4.4327    -2.1460 H       
  28 H28            0.8008    -4.3974     1.2181 H       
  29 H29            2.3283    -4.4614     2.1310 H       
  30 H30            2.9683    -2.2476     1.2294 H       
  31 H31            1.4044    -2.1543     2.0739 H       
  32 H32            3.8867    -6.4370     1.5237 H       
  33 H33            3.6820    -8.8907     1.5014 H       
  34 H34            2.1135    -9.9813    -0.0522 H       
  35 H35            0.7491    -8.6181    -1.5829 H       
  36 H36            0.9476    -6.1639    -1.5548 H       
  37 H37           -2.0652     1.5558     0.0203 H       
  38 H38           -1.2533     3.0267     0.0244 H       
@<TRIPOS>BOND
   1    1    2 ar
   2    1    6 ar
   3    1   21 1
   4    2    3 ar
   5    2   20 1
   6    3    4 ar
   7    3    7 1
   8    4    5 ar
   9    4   22 1
  10    5    6 ar
  11    5   23 1
  12    7    8 1
  13    7   12 1
  14    8    9 1
  15    8   24 1
  16    8   25 1
  17    9   10 1
  18    9   26 1
  19    9   27 1
  20   10   11 1
  21   10   13 1
  22   10   19 1
  23   11   12 1
  24   11   28 1
  25   11   29 1
  26   12   30 1
  27   12   31 1
  28   13   14 ar
  29   13   18 ar
  30   14   15 ar
  31   14   32 1
  32   15   16 ar
  33   15   33 1
  34   16   17 ar
  35   16   34 1
  36   17   18 ar
  37   17   35 1
  38   18   36 1
  39   21   37 1
  40   21   38 1

#	End of record

