#	Name: ASD05380136
#	Creating user name:	WinNT
#	Creation time:	15. 06. 2019 20:59

#	Modifying user name:	WinNT
#	Modification time:	15. 06. 2019 20:59

#	Program:	/corina/corina34_cracker 3.40 0067  02.08.2006

@<TRIPOS>MOLECULE
ASD05380136
  48   52    0    0    0
SMALL
NO_CHARGES


@<TRIPOS>ATOM
   1 C1             0.2232     0.7498    -0.0629 C.ar    
   2 C2             0.0901    -0.5952    -0.4747 C.ar    
   3 C3             1.4893     1.3095     0.0944 C.ar    
   4 C4             2.6065     0.5422    -0.1544 C.ar    
   5 C5             2.4793    -0.7799    -0.5592 C.ar    
   6 C6             1.2372    -1.3522    -0.7201 C.ar    
   7 N7            -1.1527    -1.1189    -0.6212 N.2     
   8 C8            -2.2193    -0.4148    -0.3925 C.2     
   9 N9            -2.1855     0.8855     0.0066 N.am    
  10 C10           -1.0037     1.5180     0.1937 C.2     
  11 C11           -3.3844     1.5737     0.2319 C.ar    
  12 C12           -4.1804     1.2463     1.3216 C.ar    
  13 C13           -5.7524     2.9336     0.6773 C.ar    
  14 C14           -3.5630    -1.0710    -0.5791 C.3     
  15 O15           -4.1660    -0.5883    -1.7814 O.3     
  16 C16           -5.5190    -0.6160    -1.8450 C.ar    
  17 N17           -6.2399    -0.9991    -0.7985 N.ar    
  18 O18           -0.9585     2.6809     0.5506 O.2     
  19 C19           -6.1900    -0.2350    -3.0165 C.ar    
  20 C20           -7.5953    -0.2845    -3.0229 C.ar    
  21 N21           -8.2318    -0.6865    -1.9287 N.ar    
  22 C22           -7.5592    -1.0296    -0.8503 C.ar    
  23 N23           -5.8009     0.2025    -4.2385 N.2     
  24 C24           -6.8511     0.4192    -4.9757 C.2     
  25 N25           -7.9824     0.1335    -4.2711 N.pl3   
  26 C26           -5.3618     1.9271     1.5414 C.ar    
  27 C27           -4.9591     3.2659    -0.4055 C.ar    
  28 C28           -3.7766     2.5888    -0.6306 C.ar    
  29 C29            1.6359     2.7438     0.5329 C.3     
  30 C30           -3.3815    -2.5873    -0.6727 C.3     
  31 H31            3.5895     0.9729    -0.0338 H       
  32 H32            3.3657    -1.3667    -0.7502 H       
  33 H33            1.1508    -2.3816    -1.0351 H       
  34 H34           -3.8762     0.4598     1.9964 H       
  35 H35           -6.6769     3.4644     0.8511 H       
  36 H36           -4.2043    -0.8335     0.2697 H       
  37 H37           -8.1066    -1.3482     0.0245 H       
  38 H38           -6.8296     0.7738    -5.9956 H       
  39 H39           -8.8941     0.2112    -4.5931 H       
  40 H40           -5.9813     1.6729     2.3887 H       
  41 H41           -5.2671     4.0523    -1.0787 H       
  42 H42           -3.1574     2.8488    -1.4765 H       
  43 H43            1.5737     2.7996     1.6197 H       
  44 H44            2.6017     3.1274     0.2041 H       
  45 H45            0.8383     3.3419     0.0921 H       
  46 H46           -2.9216    -2.9555     0.2443 H       
  47 H47           -4.3534    -3.0619    -0.8077 H       
  48 H48           -2.7402    -2.8247    -1.5215 H       
@<TRIPOS>BOND
   1    1    2 ar
   2    1    3 ar
   3    1   10 1
   4    2    7 1
   5    2    6 ar
   6    3    4 ar
   7    3   29 1
   8    4    5 ar
   9    4   31 1
  10    5    6 ar
  11    5   32 1
  12    6   33 1
  13    7    8 2
  14    8    9 1
  15    8   14 1
  16    9   10 am
  17    9   11 1
  18   10   18 2
  19   11   12 ar
  20   11   28 ar
  21   12   26 ar
  22   12   34 1
  23   13   26 ar
  24   13   27 ar
  25   13   35 1
  26   14   15 1
  27   14   30 1
  28   14   36 1
  29   15   16 1
  30   16   17 ar
  31   16   19 ar
  32   17   22 ar
  33   19   20 ar
  34   19   23 1
  35   20   21 ar
  36   20   25 1
  37   21   22 ar
  38   22   37 1
  39   23   24 2
  40   24   25 1
  41   24   38 1
  42   25   39 1
  43   26   40 1
  44   27   28 ar
  45   27   41 1
  46   28   42 1
  47   29   43 1
  48   29   44 1
  49   29   45 1
  50   30   46 1
  51   30   47 1
  52   30   48 1

#	End of record

