#	Name: ASD04030004
#	Creating user name:	WinNT
#	Creation time:	15. 06. 2019 20:48

#	Modifying user name:	WinNT
#	Modification time:	15. 06. 2019 20:48

#	Program:	/corina/corina34_cracker 3.40 0067  02.08.2006

@<TRIPOS>MOLECULE
ASD04030004
  50   52    0    0    0
SMALL
NO_CHARGES


@<TRIPOS>ATOM
   1 N1            -0.0515     1.4396    -0.1106 N.am    
   2 C2             1.3824    -0.5169    -0.1830 C.2     
   3 C3            -0.0417    -0.0248    -0.1515 C.3     
   4 C4             0.0239     8.3641     0.0970 C.3     
   5 C5            -0.1780     9.8567     0.1482 C.ar    
   6 C6            -0.2996    10.5780    -1.0248 C.ar    
   7 C7            -0.4905    11.9461    -0.9784 C.ar    
   8 C8            -0.5599    12.5936     0.2422 C.ar    
   9 C9            -1.2230     2.1048    -0.0719 C.2     
  10 C10           -7.1629     5.9064     1.2647 C.ar    
  11 Cl11          -0.8003    14.3119     0.3013 Cl      
  12 C12           -1.2330     3.5803    -0.0307 C.ar    
  13 C13           -2.4467     4.2711     0.0154 C.ar    
  14 C14           -2.4504     5.6532     0.0596 C.ar    
  15 C15           -1.2430     6.3539     0.0582 C.ar    
  16 C16           -0.0386     5.6661     0.0124 C.ar    
  17 C17           -0.0290     4.2885    -0.0318 C.ar    
  18 N18           -3.6648     6.3497     0.1054 N.am    
  19 C19           -4.7637     5.7555     0.6112 C.2     
  20 C20           -6.0229     6.5187     0.7413 C.ar    
  21 O21           -4.7193     4.5919     0.9605 O.2     
  22 O22           -2.2717     1.4896    -0.0709 O.2     
  23 O23            1.6365    -1.8343    -0.2228 O.3     
  24 O24            2.2954     0.2745    -0.1723 O.2     
  25 O25           -1.2471     7.7111     0.1012 O.3     
  26 C26           -0.4382    11.8712     1.4158 C.ar    
  27 C27           -0.2472    10.5031     1.3682 C.ar    
  28 C28           -8.3364     6.6227     1.3782 C.ar    
  29 C29           -8.3851     7.9451     0.9740 C.ar    
  30 C30           -7.2587     8.5582     0.4547 C.ar    
  31 C31           -6.0774     7.8548     0.3407 C.ar    
  32 H32            0.7852     1.9304    -0.1074 H       
  33 H33           -0.5419    -0.4164     0.7342 H       
  34 H34           -0.5641    -0.3668    -1.0449 H       
  35 H35            0.5643     8.1016    -0.8125 H       
  36 H36            0.5991     8.0453     0.9663 H       
  37 H37           -0.2451    10.0725    -1.9777 H       
  38 H38           -0.5852    12.5096    -1.8949 H       
  39 H39           -7.1274     4.8728     1.5761 H       
  40 H40           -3.3796     3.7269     0.0160 H       
  41 H41            0.8935     6.2116     0.0111 H       
  42 H42            0.9102     3.7561    -0.0632 H       
  43 H43           -3.7149     7.2596    -0.2270 H       
  44 H44            2.5656    -2.1018    -0.2418 H       
  45 H45           -0.4919    12.3761     2.3690 H       
  46 H46           -0.1569     9.9384     2.2843 H       
  47 H47           -9.2191     6.1502     1.7830 H       
  48 H48           -9.3075     8.5002     1.0610 H       
  49 H49           -7.3034     9.5906     0.1410 H       
  50 H50           -5.1989     8.3345    -0.0648 H       
@<TRIPOS>BOND
   1    1    3 1
   2    1   32 1
   3    1    9 am
   4    2   23 1
   5    2   24 2
   6    2    3 1
   7    3   33 1
   8    3   34 1
   9    4   35 1
  10    4   36 1
  11    4    5 1
  12    4   25 1
  13    5   27 ar
  14    5    6 ar
  15    6   37 1
  16    6    7 ar
  17    7    8 ar
  18    7   38 1
  19    8   26 ar
  20    8   11 1
  21    9   12 1
  22    9   22 2
  23   10   20 ar
  24   10   39 1
  25   10   28 ar
  26   12   17 ar
  27   12   13 ar
  28   13   40 1
  29   13   14 ar
  30   14   15 ar
  31   14   18 1
  32   15   16 ar
  33   15   25 1
  34   16   17 ar
  35   16   41 1
  36   17   42 1
  37   18   43 1
  38   18   19 am
  39   19   21 2
  40   19   20 1
  41   20   31 ar
  42   23   44 1
  43   26   27 ar
  44   26   45 1
  45   27   46 1
  46   28   47 1
  47   28   29 ar
  48   29   30 ar
  49   29   48 1
  50   30   31 ar
  51   30   49 1
  52   31   50 1

#	End of record

