#	Name: ASD01901420
#	Creating user name:	WinNT
#	Creation time:	15. 06. 2019 19:53

#	Modifying user name:	WinNT
#	Modification time:	15. 06. 2019 19:53

#	Program:	/corina/corina34_cracker 3.40 0067  02.08.2006

@<TRIPOS>MOLECULE
ASD01901420
  43   46    0    0    0
SMALL
NO_CHARGES


@<TRIPOS>ATOM
   1 C1            -0.0168     1.3889     0.0097 C.ar    
   2 C2             1.1706     2.0928     0.0021 C.ar    
   3 C3             2.3775     1.4176    -0.0135 C.ar    
   4 C4             2.4021     0.0344    -0.0212 C.ar    
   5 C5             1.2210    -0.6792    -0.0133 C.ar    
   6 C6             0.0021    -0.0041     0.0020 C.ar    
   7 C7            -1.2714    -0.7662     0.0106 C.2     
   8 N8            -3.1797    -1.5367    -1.1467 N.2     
   9 C9            -2.0561    -0.8622    -1.1592 C.2     
  10 C10           -1.6982    -1.3899     1.1495 C.2     
  11 N11           -2.8725    -2.0820     1.1229 N.pl3   
  12 C12           -3.6089    -2.1474    -0.0320 C.2     
  13 C13           -3.5498    -2.7948     2.0754 C.2     
  14 C14           -4.6688    -3.2734     1.4914 C.2     
  15 N15           -4.6904    -2.8720     0.2169 N.2     
  16 C16           -5.7193    -4.1184     2.1648 C.3     
  17 O17           -5.3508    -4.3400     3.5276 O.3     
  18 C18           -6.1960    -5.0882     4.2804 C.ar    
  19 C19           -5.8951    -5.3336     5.6137 C.ar    
  20 N20           -7.3013    -5.5724     3.7387 N.ar    
  21 C21           -8.1502    -6.3044     4.4347 C.ar    
  22 C22           -7.9118    -6.5926     5.7639 C.ar    
  23 C23           -6.7657    -6.0984     6.3709 C.ar    
  24 C24           -1.3311     2.1259     0.0325 C.3     
  25 C25           -1.8167     2.2580     1.4773 C.3     
  26 H26            1.1571     3.1727     0.0080 H       
  27 H27            3.3042     1.9722    -0.0201 H       
  28 H28            3.3473    -0.4878    -0.0337 H       
  29 H29            1.2413    -1.7590    -0.0192 H       
  30 H30           -1.7295    -0.3777    -2.0675 H       
  31 H31           -1.1141    -1.3355     2.0563 H       
  32 H32           -3.2460    -2.9460     3.1007 H       
  33 H33           -6.6791    -3.6033     2.1271 H       
  34 H34           -5.8003    -5.0758     1.6501 H       
  35 H35           -4.9938    -4.9334     6.0540 H       
  36 H36           -9.0429    -6.6826     3.9589 H       
  37 H37           -8.6118    -7.1926     6.3264 H       
  38 H38           -6.5579    -6.3056     7.4102 H       
  39 H39           -1.1987     3.1183    -0.3985 H       
  40 H40           -2.0682     1.5724    -0.5494 H       
  41 H41           -1.9491     1.2656     1.9083 H       
  42 H42           -1.0797     2.8115     2.0592 H       
  43 H43           -2.7673     2.7911     1.4938 H       
@<TRIPOS>BOND
   1    1    6 ar
   2    1    2 ar
   3    1   24 1
   4    2    3 ar
   5    2   26 1
   6    3    4 ar
   7    3   27 1
   8    4    5 ar
   9    4   28 1
  10    5    6 ar
  11    5   29 1
  12    6    7 1
  13    7   10 2
  14    7    9 1
  15    8    9 2
  16    8   12 1
  17    9   30 1
  18   10   11 1
  19   10   31 1
  20   11   13 1
  21   11   12 1
  22   12   15 2
  23   13   14 2
  24   13   32 1
  25   14   15 1
  26   14   16 1
  27   16   17 1
  28   16   33 1
  29   16   34 1
  30   17   18 1
  31   18   20 ar
  32   18   19 ar
  33   19   23 ar
  34   19   35 1
  35   20   21 ar
  36   21   22 ar
  37   21   36 1
  38   22   23 ar
  39   22   37 1
  40   23   38 1
  41   24   25 1
  42   24   39 1
  43   24   40 1
  44   25   41 1
  45   25   42 1
  46   25   43 1

#	End of record

