#	Name: ASD01814886
#	Creating user name:	WinNT
#	Creation time:	15. 06. 2019 19:33

#	Modifying user name:	WinNT
#	Modification time:	15. 06. 2019 19:33

#	Program:	/corina/corina34_cracker 3.40 0067  02.08.2006

@<TRIPOS>MOLECULE
ASD01814886
  58   61    0    0    0
SMALL
NO_CHARGES


@<TRIPOS>ATOM
   1 C1             0.3061     1.1879     1.2307 C.2     
   2 C2             0.1597    -0.1574     0.8663 C.2     
   3 C3             1.2688    -0.9389     0.7237 C.2     
   4 C4             2.5393    -0.3816     0.9447 C.2     
   5 N5             2.6528     0.9350     1.3000 N.am    
   6 C6             1.5373     1.7065     1.4392 C.2     
   7 C7             3.6806    -1.1827     0.7989 C.2     
   8 C8             4.9195    -0.6513     1.0116 C.2     
   9 C9             5.0325     0.7031     1.3763 C.2     
  10 C10            3.8660     1.4826     1.5154 C.2     
  11 O11            3.9546     2.6572     1.8308 O.2     
  12 C12            6.3503     1.2975     1.6108 C.2     
  13 O13            6.4519     2.5965     1.9602 O.3     
  14 O14            7.3533     0.6198     1.4904 O.2     
  15 C15            3.5393    -2.6311     0.4076 C.3     
  16 N16            3.6905    -2.7622    -1.0477 N.3     
  17 C17            3.7959    -4.1742    -1.4412 C.3     
  18 C18            3.8716    -4.2716    -2.9667 C.3     
  19 N19            5.0306    -3.5061    -3.4469 N.3     
  20 C20            4.9252    -2.0941    -3.0534 C.3     
  21 C21            4.8494    -1.9967    -1.5279 C.3     
  22 H22            4.6955    -4.6073    -1.0040 H       
  23 C23            5.1743    -3.6307    -4.8305 C.ar    
  24 C24            4.2772    -2.9990    -5.6828 C.ar    
  25 C25            6.2172    -4.3814    -5.3563 C.ar    
  26 C26            6.3563    -4.5026    -6.7297 C.ar    
  27 C27            5.4536    -3.8739    -7.5762 C.ar    
  28 C28            4.4192    -3.1229    -7.0515 C.ar    
  29 C29            4.0224    -5.7376    -3.3777 C.3     
  30 C30            2.5921    -3.6983    -3.5790 C.3     
  31 O31            7.3763    -5.2363    -7.2475 O.3     
  32 C32            7.4588    -5.3181    -8.6718 C.3     
  33 H33           -0.5672     1.8136     1.3411 H       
  34 H34           -0.8234    -0.5723     0.7000 H       
  35 H35            1.1709    -1.9773     0.4436 H       
  36 H36            1.6383     2.7445     1.7199 H       
  37 H37            5.8026    -1.2631     0.9016 H       
  38 H38            7.3427     2.9439     2.1043 H       
  39 H39            4.3091    -3.2192     0.9073 H       
  40 H40            2.5551    -2.9934     0.7048 H       
  41 H41            2.9204    -4.7172    -1.0852 H       
  42 H42            5.8006    -1.5511    -3.4094 H       
  43 H43            4.0255    -1.6610    -3.4906 H       
  44 H44            4.7420    -0.9523    -1.2351 H       
  45 H45            5.7610    -2.4051    -1.0917 H       
  46 H46            3.4681    -2.4112    -5.2752 H       
  47 H47            6.9189    -4.8695    -4.6962 H       
  48 H48            5.5622    -3.9686    -8.6466 H       
  49 H49            3.7181    -2.6351    -7.7124 H       
  50 H50            3.2174    -6.3238    -2.9345 H       
  51 H51            3.9744    -5.8172    -4.4638 H       
  52 H52            4.9828    -6.1162    -3.0278 H       
  53 H53            2.5502    -2.6248    -3.3945 H       
  54 H54            2.5891    -3.8827    -4.6533 H       
  55 H55            1.7252    -4.1790    -3.1254 H       
  56 H56            8.3152    -5.9316    -8.9515 H       
  57 H57            6.5464    -5.7678    -9.0633 H       
  58 H58            7.5777    -4.3173    -9.0869 H       
@<TRIPOS>BOND
   1    1    2 1
   2    1    6 2
   3    1   33 1
   4    2    3 2
   5    2   34 1
   6    3    4 1
   7    3   35 1
   8    4    5 1
   9    4    7 2
  10    5    6 1
  11    5   10 am
  12    6   36 1
  13    7   15 1
  14    7    8 1
  15    8    9 2
  16    8   37 1
  17    9   10 1
  18    9   12 1
  19   10   11 2
  20   12   13 1
  21   12   14 2
  22   13   38 1
  23   15   16 1
  24   15   39 1
  25   15   40 1
  26   16   17 1
  27   16   21 1
  28   17   18 1
  29   17   22 1
  30   17   41 1
  31   18   19 1
  32   18   29 1
  33   18   30 1
  34   19   20 1
  35   19   23 1
  36   20   21 1
  37   20   42 1
  38   20   43 1
  39   21   44 1
  40   21   45 1
  41   23   24 ar
  42   23   25 ar
  43   24   28 ar
  44   24   46 1
  45   25   26 ar
  46   25   47 1
  47   26   27 ar
  48   26   31 1
  49   27   28 ar
  50   27   48 1
  51   28   49 1
  52   29   50 1
  53   29   51 1
  54   29   52 1
  55   30   53 1
  56   30   54 1
  57   30   55 1
  58   31   32 1
  59   32   56 1
  60   32   57 1
  61   32   58 1

#	End of record

