#	Name: ASD03490025
#	Creating user name:	WinNT
#	Creation time:	15. 06. 2019 20:42

#	Modifying user name:	WinNT
#	Modification time:	15. 06. 2019 20:42

#	Program:	/corina/corina34_cracker 3.40 0067  02.08.2006

@<TRIPOS>MOLECULE
ASD03490025
  59   59    0    0    0
SMALL
NO_CHARGES


@<TRIPOS>ATOM
   1 O1            -0.5645     1.7476     0.8291 O.3     
   2 C2            -0.3448     0.4235     0.8091 C.2     
   3 C3            -1.4829    -0.5250     0.5332 C.3     
   4 O4             0.7654    -0.0078     1.0122 O.2     
   5 O5            -1.0273    -1.8715     0.6797 O.3     
   6 C6            -2.6198    -0.2601     1.5237 C.3     
   7 O7            -1.9577    -0.3249    -0.7997 O.3     
   8 C8            -3.0261    -1.1962    -1.1756 C.3     
   9 C9            -4.2251    -0.9581    -0.2539 C.3     
  10 C10           -3.7957    -1.1864     1.1989 C.3     
  11 C11           -3.4311    -0.9120    -2.6234 C.3     
  12 C12           -2.2876    -1.3074    -3.5598 C.3     
  13 C13           -2.7373    -1.1407    -5.0127 C.3     
  14 O14           -1.6963    -1.6269    -5.9004 O.3     
  15 O15           -1.1573    -0.4690    -3.3119 O.3     
  16 C16           -4.7207     0.4797    -0.4208 C.3     
  17 O17           -5.7650     0.7359     0.5204 O.3     
  18 O18           -3.3941    -2.5470     1.3705 O.3     
  19 C19           -1.9355    -1.5511    -7.2191 C.2     
  20 O20           -2.9801    -1.0937    -7.6183 O.2     
  21 C21           -0.9011    -2.0366    -8.2016 C.3     
  22 N22           -1.1552    -1.4351    -9.5175 N.3     
  23 C23           -0.9797    -3.5605    -8.3137 C.3     
  24 C24            0.1498    -4.0646    -9.2142 C.3     
  25 C25            0.0723    -5.5656    -9.3245 C.2     
  26 O26            0.9692    -6.2310   -10.0693 O.3     
  27 O27           -0.7971    -6.1701    -8.7427 O.2     
  28 N28           -5.2328     0.6650    -1.7808 N.am    
  29 O29           -4.3319     2.6878    -1.9172 O.2     
  30 C30           -4.9818     1.8104    -2.4452 C.2     
  31 C31           -5.5086     2.0010    -3.8442 C.3     
  32 H32            0.1964     2.3161     1.0103 H       
  33 H33           -0.3059    -2.1098     0.0815 H       
  34 H34           -2.2719    -0.4551     2.5381 H       
  35 H35           -2.9405     0.7784     1.4409 H       
  36 H36           -2.6990    -2.2321    -1.0861 H       
  37 H37           -5.0253    -1.6523    -0.5106 H       
  38 H38           -4.6296    -0.9643     1.8648 H       
  39 H39           -4.3209    -1.4904    -2.8720 H       
  40 H40           -3.6445     0.1506    -2.7390 H       
  41 H41           -2.0147    -2.3475    -3.3810 H       
  42 H42           -3.6514    -1.7111    -5.1778 H       
  43 H43           -2.9252    -0.0865    -5.2161 H       
  44 H44           -1.3278     0.4725    -3.4515 H       
  45 H45           -3.8962     1.1709    -0.2458 H       
  46 H46           -6.5629     0.2092     0.3756 H       
  47 H47           -3.1090    -2.7627     2.2689 H       
  48 H48            0.0917    -1.7485    -7.8560 H       
  49 H49           -0.4379    -1.6941   -10.1781 H       
  50 H50           -2.0702    -1.6875    -9.8598 H       
  51 H51           -0.8795    -4.0033    -7.3227 H       
  52 H52           -1.9407    -3.8441    -8.7429 H       
  53 H53            0.0496    -3.6218   -10.2051 H       
  54 H54            1.1108    -3.7810    -8.7849 H       
  55 H55            0.8790    -7.1929   -10.1097 H       
  56 H56           -5.7526    -0.0367    -2.2031 H       
  57 H57           -6.0640     1.1134    -4.1474 H       
  58 H58           -6.1681     2.8684    -3.8691 H       
  59 H59           -4.6747     2.1589    -4.5281 H       
@<TRIPOS>BOND
   1    1    2 1
   2    1   32 1
   3    2    3 1
   4    2    4 2
   5    3    5 1
   6    3    6 1
   7    3    7 1
   8    5   33 1
   9    6   10 1
  10    6   34 1
  11    6   35 1
  12    7    8 1
  13    8    9 1
  14    8   11 1
  15    8   36 1
  16    9   10 1
  17    9   16 1
  18    9   37 1
  19   10   18 1
  20   10   38 1
  21   11   12 1
  22   11   39 1
  23   11   40 1
  24   12   13 1
  25   12   15 1
  26   12   41 1
  27   13   14 1
  28   13   42 1
  29   13   43 1
  30   14   19 1
  31   15   44 1
  32   16   17 1
  33   16   28 1
  34   16   45 1
  35   17   46 1
  36   18   47 1
  37   19   20 2
  38   19   21 1
  39   21   22 1
  40   21   23 1
  41   21   48 1
  42   22   49 1
  43   22   50 1
  44   23   24 1
  45   23   51 1
  46   23   52 1
  47   24   25 1
  48   24   53 1
  49   24   54 1
  50   25   26 1
  51   25   27 2
  52   26   55 1
  53   28   30 am
  54   28   56 1
  55   29   30 2
  56   30   31 1
  57   31   57 1
  58   31   58 1
  59   31   59 1

#	End of record

