#	Name: ASD01911903
#	Creating user name:	WinNT
#	Creation time:	15. 06. 2019 19:58

#	Modifying user name:	WinNT
#	Modification time:	15. 06. 2019 19:58

#	Program:	/corina/corina34_cracker 3.40 0067  02.08.2006

@<TRIPOS>MOLECULE
ASD01911903
  35   37    0    0    0
SMALL
NO_CHARGES


@<TRIPOS>ATOM
   1 C1            -1.0489    -0.4838    -2.0512 C.ar    
   2 C2            -1.0617     0.0601    -0.7708 C.ar    
   3 C3            -1.0260     1.4448    -0.6424 C.ar    
   4 N4            -0.9813     2.1899    -1.7345 N.ar    
   5 C5            -0.9705     1.6368    -2.9307 C.ar    
   6 N6            -1.0034     0.3294    -3.0936 N.ar    
   7 O7            -1.1085    -0.7408     0.3263 O.3     
   8 C8            -1.1452    -2.0853     0.1335 C.ar    
   9 C9             0.0138    -2.7700    -0.2047 C.ar    
  10 C10           -0.0223    -4.1394    -0.4013 C.ar    
  11 C11           -1.2140    -4.8290    -0.2611 C.ar    
  12 C12           -2.3756    -4.1473     0.0771 C.ar    
  13 C13           -2.3390    -2.7744     0.2801 C.ar    
  14 N14           -3.5800    -4.8437     0.2179 N.am    
  15 C15           -3.5758    -6.1117     0.6749 C.2     
  16 C16           -4.8355    -6.8835     0.7246 C.ar    
  17 O17           -2.5361    -6.6205     1.0462 O.2     
  18 C18           -4.8345    -8.1968     1.1973 C.ar    
  19 C19           -6.0134    -8.9123     1.2413 C.ar    
  20 C20           -7.1952    -8.3313     0.8182 C.ar    
  21 C21           -7.2038    -7.0288     0.3476 C.ar    
  22 C22           -6.0320    -6.3001     0.3043 C.ar    
  23 Cl23          -8.6920    -6.3088    -0.1822 Cl      
  24 F24            1.1069    -4.8037    -0.7309 F       
  25 H25           -1.0711    -1.5543    -2.1920 H       
  26 H26           -1.0349     1.9049     0.3347 H       
  27 H27           -0.9341     2.2732    -3.8025 H       
  28 H28            0.9446    -2.2335    -0.3149 H       
  29 H29           -1.2406    -5.8976    -0.4152 H       
  30 H30           -3.2414    -2.2426     0.5433 H       
  31 H31           -4.4185    -4.4143    -0.0133 H       
  32 H32           -3.9126    -8.6521     1.5276 H       
  33 H33           -6.0134    -9.9287     1.6066 H       
  34 H34           -8.1152    -8.8959     0.8548 H       
  35 H35           -6.0395    -5.2844    -0.0625 H       
@<TRIPOS>BOND
   1    1    2 ar
   2    1    6 ar
   3    1   25 1
   4    2    3 ar
   5    2    7 1
   6    3    4 ar
   7    3   26 1
   8    4    5 ar
   9    5    6 ar
  10    5   27 1
  11    7    8 1
  12    8    9 ar
  13    8   13 ar
  14    9   10 ar
  15    9   28 1
  16   10   11 ar
  17   10   24 1
  18   11   12 ar
  19   11   29 1
  20   12   13 ar
  21   12   14 1
  22   13   30 1
  23   14   15 am
  24   14   31 1
  25   15   16 1
  26   15   17 2
  27   16   18 ar
  28   16   22 ar
  29   18   19 ar
  30   18   32 1
  31   19   20 ar
  32   19   33 1
  33   20   21 ar
  34   20   34 1
  35   21   22 ar
  36   21   23 1
  37   22   35 1

#	End of record

