#	Name: ASD04660032
#	Creating user name:	WinNT
#	Creation time:	15. 06. 2019 20:52

#	Modifying user name:	WinNT
#	Modification time:	15. 06. 2019 20:52

#	Program:	/corina/corina34_cracker 3.40 0067  02.08.2006

@<TRIPOS>MOLECULE
ASD04660032
  45   48    0    0    0
SMALL
NO_CHARGES


@<TRIPOS>ATOM
   1 N1             8.9476    -0.2653    -4.3711 N.am    
   2 C2            10.1966     0.1053    -3.9836 C.2     
   3 C3            10.0729     0.9044    -2.7586 C.ar    
   4 C4             8.6927     0.9428    -2.5101 C.ar    
   5 C5             8.1066     1.6036    -1.4299 C.ar    
   6 C6             6.7070     1.5428    -1.3278 C.ar    
   7 C7             6.0122     0.8486    -2.2808 C.ar    
   8 C8             6.6246     0.1968    -3.3505 C.ar    
   9 C9             8.0001     0.2335    -3.4860 C.ar    
  10 C10            8.9672     2.2699    -0.5407 C.ar    
  11 C11           10.3159     2.2378    -0.7749 C.ar    
  12 C12           10.8857     1.5726    -1.8600 C.ar    
  13 O13           11.2349    -0.1760    -4.5523 O.2     
  14 S14            5.8649     2.3419    -0.0022 S.o2    
  15 O15            6.3726     3.6679     0.0543 O.2     
  16 O16            4.4851     2.0443    -0.1660 O.2     
  17 N17            6.3404     1.5990     1.3993 N.am    
  18 C18            6.0112     0.1901     1.6297 C.3     
  19 C19            4.4940     0.0340     1.7502 C.3     
  20 O20            6.4854    -0.5951     0.5339 O.3     
  21 C21            6.6671    -0.2772     2.9035 C.ar    
  22 C22            7.0455    -1.6013     3.0376 C.ar    
  23 C23            7.6467    -2.0357     4.2007 C.ar    
  24 C24            7.8731    -1.1357     5.2439 C.ar    
  25 C25            7.4887     0.1991     5.1019 C.ar    
  26 C26            6.8932     0.6211     3.9313 C.ar    
  27 C27            8.5160    -1.5938     6.4926 C.2     
  28 O28            8.8490    -2.7557     6.6135 O.2     
  29 O29            8.7330    -0.7229     7.4972 O.3     
  30 H30            8.7462    -0.7985    -5.1559 H       
  31 H31            4.9361     0.8032    -2.2002 H       
  32 H32            6.0247    -0.3371    -4.0726 H       
  33 H33            8.5710     2.7991     0.3133 H       
  34 H34           10.9697     2.7525    -0.0864 H       
  35 H35           11.9569     1.5783    -1.9981 H       
  36 H36            6.8369     2.0966     2.0677 H       
  37 H37            4.0276     0.2676     0.7931 H       
  38 H38            4.2555    -0.9922     2.0298 H       
  39 H39            4.1181     0.7153     2.5135 H       
  40 H40            7.4414    -0.5440     0.3980 H       
  41 H41            6.8695    -2.2964     2.2300 H       
  42 H42            7.9413    -3.0696     4.3042 H       
  43 H43            7.6606     0.9003     5.9051 H       
  44 H44            6.5991     1.6542     3.8185 H       
  45 H45            9.1566    -1.0692     8.2946 H       
@<TRIPOS>BOND
   1    1    2 am
   2    1    9 1
   3    1   30 1
   4    2    3 1
   5    2   13 2
   6    3    4 ar
   7    3   12 ar
   8    4    5 ar
   9    4    9 ar
  10    5    6 ar
  11    5   10 ar
  12    6    7 ar
  13    6   14 1
  14    7    8 ar
  15    7   31 1
  16    8    9 ar
  17    8   32 1
  18   10   11 ar
  19   10   33 1
  20   11   12 ar
  21   11   34 1
  22   12   35 1
  23   14   15 2
  24   14   16 2
  25   14   17 am
  26   17   18 1
  27   17   36 1
  28   18   19 1
  29   18   20 1
  30   18   21 1
  31   19   37 1
  32   19   38 1
  33   19   39 1
  34   20   40 1
  35   21   22 ar
  36   21   26 ar
  37   22   23 ar
  38   22   41 1
  39   23   24 ar
  40   23   42 1
  41   24   25 ar
  42   24   27 1
  43   25   26 ar
  44   25   43 1
  45   26   44 1
  46   27   28 2
  47   27   29 1
  48   29   45 1

#	End of record

