#	Name: ASD02030364
#	Creating user name:	WinNT
#	Creation time:	15. 06. 2019 20:15

#	Modifying user name:	WinNT
#	Modification time:	15. 06. 2019 20:15

#	Program:	/corina/corina34_cracker 3.40 0067  02.08.2006

@<TRIPOS>MOLECULE
ASD02030364
  35   37    0    0    0
SMALL
NO_CHARGES


@<TRIPOS>ATOM
   1 N1             0.0004     1.3779     0.1759 N.3     
   2 C2             0.0071    -0.0872     0.0525 C.3     
   3 C3             0.7308    -0.4895    -1.2357 C.3     
   4 N4             2.0895     0.0714    -1.2169 N.am    
   5 C5             2.2398     1.5200    -0.9967 C.3     
   6 C6             1.3727     1.9035     0.2085 C.3     
   7 C7             3.1674    -0.7176    -1.3958 C.2     
   8 O8             3.0353    -1.9246    -1.4453 O.2     
   9 C9             4.5133    -0.1135    -1.5321 C.ar    
  10 N10            4.6350     1.2049    -1.6379 N.ar    
  11 C11            5.8151     1.7817    -1.7609 C.ar    
  12 C12            6.9809     1.0208    -1.7840 C.ar    
  13 C13            6.8934    -0.3559    -1.6762 C.ar    
  14 C14            5.6385    -0.9323    -1.5424 C.ar    
  15 O15            5.8935     3.1320    -1.8666 O.3     
  16 C16            4.6628     3.8577    -1.8370 C.3     
  17 C17            1.5965     3.2786     0.8354 C.3     
  18 C18            2.0602     2.0178     1.5684 C.3     
  19 H19           -0.5313     1.8012    -0.5700 H       
  20 H20            0.5224    -0.5214     0.9092 H       
  21 H21           -1.0190    -0.4538     0.0222 H       
  22 H22            0.7858    -1.5763    -1.2989 H       
  23 H23            0.1872    -0.0998    -2.0963 H       
  24 H24            3.2838     1.7557    -0.7903 H       
  25 H25            1.9055     2.0643    -1.8800 H       
  26 H26            7.9434     1.5001    -1.8854 H       
  27 H27            7.7830    -0.9682    -1.6915 H       
  28 H28            5.5356    -2.0039    -1.4556 H       
  29 H29            4.8676     4.9242    -1.9301 H       
  30 H30            4.0310     3.5353    -2.6646 H       
  31 H31            4.1512     3.6670    -0.8936 H       
  32 H32            2.3633     3.9146     0.3933 H       
  33 H33            0.7245     3.7991     1.2315 H       
  34 H34            1.4933     1.7088     2.4466 H       
  35 H35            3.1322     1.8243     1.6084 H       
@<TRIPOS>BOND
   1    1    2 1
   2    1    6 1
   3    1   19 1
   4    2    3 1
   5    2   20 1
   6    2   21 1
   7    3    4 1
   8    3   22 1
   9    3   23 1
  10    4    5 1
  11    4    7 am
  12    5    6 1
  13    5   24 1
  14    5   25 1
  15    6   17 1
  16    6   18 1
  17    7    8 2
  18    7    9 1
  19    9   10 ar
  20    9   14 ar
  21   10   11 ar
  22   11   12 ar
  23   11   15 1
  24   12   13 ar
  25   12   26 1
  26   13   14 ar
  27   13   27 1
  28   14   28 1
  29   15   16 1
  30   16   29 1
  31   16   30 1
  32   16   31 1
  33   17   18 1
  34   17   32 1
  35   17   33 1
  36   18   34 1
  37   18   35 1

#	End of record

