#	Name: ASD09610023
#	Creating user name:	WinNT
#	Creation time:	15. 06. 2019 21:22

#	Modifying user name:	WinNT
#	Modification time:	15. 06. 2019 21:22

#	Program:	/corina/corina34_cracker 3.40 0067  02.08.2006

@<TRIPOS>MOLECULE
ASD09610023
  52   53    0    0    0
SMALL
NO_CHARGES


@<TRIPOS>ATOM
   1 C1            -0.6962     1.4749    -1.3693 C.2     
   2 C2            -0.6688     0.0244    -1.1006 C.ar    
   3 C3             0.5272    -0.6920    -1.2279 C.ar    
   4 C4             0.5408    -2.0610    -0.9716 C.ar    
   5 C5            -0.6263    -2.7060    -0.5927 C.ar    
   6 C6            -1.8082    -1.9959    -0.4673 C.ar    
   7 C7            -1.8355    -0.6399    -0.7121 C.ar    
   8 O8             0.3215     2.0509    -1.7023 O.2     
   9 N9            -1.8505     2.1605    -1.2512 N.am    
  10 O10            1.6672    -0.0561    -1.5995 O.3     
  11 N11            1.7335    -2.7860    -1.0971 N.am    
  12 C12            1.8635    -3.9805    -0.4865 C.2     
  13 O13            0.9898    -4.3818     0.2530 O.2     
  14 C14           -1.8778     3.6048    -1.5188 C.3     
  15 C15           -3.2943     4.0089    -1.9262 C.3     
  16 C16           -3.3457     5.5026    -2.2428 C.3     
  17 C17           -2.8315     6.3365    -1.0802 C.3     
  18 C18           -1.5240     5.8639    -0.4679 C.3     
  19 C19           -1.4956     4.3558    -0.2457 C.3     
  20 C20           -0.3227     6.2957    -1.3113 C.3     
  21 C21           -1.3798     6.5401     0.9146 C.3     
  22 C22           -2.5870     5.8010    -3.5346 C.3     
  23 C23           -4.8259     5.8773    -2.4761 C.3     
  24 C24           -5.3796     5.0633    -3.6473 C.3     
  25 H25           -0.6137    -3.7676    -0.3948 H       
  26 H26           -2.7128    -2.5065    -0.1716 H       
  27 H27           -2.7599    -0.0911    -0.6080 H       
  28 H28           -2.6633     1.7003    -0.9894 H       
  29 H29            2.1843     0.2891    -0.8589 H       
  30 H30            2.4656    -2.4281    -1.6233 H       
  31 H31            2.7455    -4.5804    -0.6558 H       
  32 H32           -1.1737     3.8254    -2.3161 H       
  33 H33           -3.5931     3.4406    -2.8090 H       
  34 H34           -3.9838     3.7867    -1.1098 H       
  35 H35           -2.7068     7.3759    -1.4206 H       
  36 H36           -3.6021     6.3568    -0.2942 H       
  37 H37           -2.1967     4.0935     0.5514 H       
  38 H38           -0.4912     4.0534     0.0632 H       
  39 H39           -0.3658     7.3715    -1.4810 H       
  40 H40            0.5989     6.0475    -0.7848 H       
  41 H41           -0.3454     5.7757    -2.2690 H       
  42 H42           -2.2197     6.2547     1.5480 H       
  43 H43           -0.4480     6.2195     1.3804 H       
  44 H44           -1.3701     7.6229     0.7901 H       
  45 H45           -3.0946     5.3234    -4.3727 H       
  46 H46           -2.5539     6.8784    -3.6960 H       
  47 H47           -1.5710     5.4139    -3.4569 H       
  48 H48           -5.4021     5.6586    -1.5770 H       
  49 H49           -4.8998     6.9404    -2.7053 H       
  50 H50           -4.8034     5.2821    -4.5463 H       
  51 H51           -5.3057     4.0003    -3.4180 H       
  52 H52           -6.4242     5.3278    -3.8119 H       
@<TRIPOS>BOND
   1    1    2 1
   2    1    8 2
   3    1    9 am
   4    2    3 ar
   5    2    7 ar
   6    3    4 ar
   7    3   10 1
   8    4    5 ar
   9    4   11 1
  10    5    6 ar
  11    5   25 1
  12    6    7 ar
  13    6   26 1
  14    7   27 1
  15    9   14 1
  16    9   28 1
  17   10   29 1
  18   11   12 am
  19   11   30 1
  20   12   13 2
  21   12   31 1
  22   14   15 1
  23   14   19 1
  24   14   32 1
  25   15   16 1
  26   15   33 1
  27   15   34 1
  28   16   17 1
  29   16   22 1
  30   16   23 1
  31   17   18 1
  32   17   35 1
  33   17   36 1
  34   18   19 1
  35   18   20 1
  36   18   21 1
  37   19   37 1
  38   19   38 1
  39   20   39 1
  40   20   40 1
  41   20   41 1
  42   21   42 1
  43   21   43 1
  44   21   44 1
  45   22   45 1
  46   22   46 1
  47   22   47 1
  48   23   24 1
  49   23   48 1
  50   23   49 1
  51   24   50 1
  52   24   51 1
  53   24   52 1

#	End of record

