#	Name: ASD06020041
#	Creating user name:	WinNT
#	Creation time:	15. 06. 2019 21:04

#	Modifying user name:	WinNT
#	Modification time:	15. 06. 2019 21:04

#	Program:	/corina/corina34_cracker 3.40 0067  02.08.2006

@<TRIPOS>MOLECULE
ASD06020041
  40   43    0    0    0
SMALL
NO_CHARGES


@<TRIPOS>ATOM
   1 C1             2.2993     1.3280     0.0132 C.ar    
   2 N2             2.2982     0.0106     0.0000 N.ar    
   3 C3             1.1548    -0.6720    -0.0054 C.ar    
   4 C4            -0.0487     0.0265     0.0031 C.ar    
   5 C5            -0.0034     1.4172     0.0168 C.ar    
   6 N6             1.1816     2.0252     0.0215 N.ar    
   7 N7             1.1633    -2.0597    -0.0196 N.pl3   
   8 N8            -1.1745     2.1590     0.0252 N.pl3   
   9 C9             2.3678    -2.7472    -0.1399 C.ar    
  10 C10            2.3853    -4.1424    -0.0416 C.ar    
  11 C11            3.5996    -4.8276    -0.1633 C.ar    
  12 C12            4.7622    -4.0458    -0.3834 C.ar    
  13 C13            4.6548    -2.6934    -0.4656 C.ar    
  14 N14            3.4880    -2.0785    -0.3518 N.ar    
  15 S15            1.1071    -5.3229     0.2235 S.3     
  16 C16            2.2843    -6.6279     0.1515 C.2     
  17 N17            3.4691    -6.1500    -0.0498 N.2     
  18 C18            1.9655    -8.0636     0.3002 C.ar    
  19 C19            2.9813    -9.0193     0.2258 C.ar    
  20 C20            2.6760   -10.3589     0.3655 C.ar    
  21 C21            1.3678   -10.7550     0.5783 C.ar    
  22 C22            0.3565    -9.8141     0.6527 C.ar    
  23 C23            0.6479    -8.4705     0.5214 C.ar    
  24 Cl24          -0.6216    -7.2908     0.6234 Cl      
  25 Cl25           4.6235    -8.5245    -0.0424 Cl      
  26 C26            1.0427   -12.2187     0.7293 C.3     
  27 N27            1.1298   -12.5960     2.1464 N.3     
  28 H28            3.2439     1.8515     0.0218 H       
  29 H29           -0.9933    -0.4971    -0.0014 H       
  30 H30            0.3299    -2.5506     0.0542 H       
  31 H31           -2.0337     1.7089     0.0214 H       
  32 H32           -1.1347     3.1282     0.0348 H       
  33 H33            5.7263    -4.5218    -0.4846 H       
  34 H34            5.5448    -2.1049    -0.6333 H       
  35 H35            3.4604   -11.0990     0.3082 H       
  36 H36           -0.6627   -10.1306     0.8183 H       
  37 H37            0.0327   -12.4061     0.3649 H       
  38 H38            1.7530   -12.8102     0.1516 H       
  39 H39            0.5275   -12.0172     2.7123 H       
  40 H40            0.9160   -13.5738     2.2740 H       
@<TRIPOS>BOND
   1    1    2 ar
   2    1    6 ar
   3    1   28 1
   4    2    3 ar
   5    3    4 ar
   6    3    7 1
   7    4    5 ar
   8    4   29 1
   9    5    6 ar
  10    5    8 1
  11    7    9 1
  12    7   30 1
  13    8   31 1
  14    8   32 1
  15    9   10 ar
  16    9   14 ar
  17   10   11 ar
  18   10   15 1
  19   11   12 ar
  20   11   17 1
  21   12   13 ar
  22   12   33 1
  23   13   14 ar
  24   13   34 1
  25   15   16 1
  26   16   17 2
  27   16   18 1
  28   18   19 ar
  29   18   23 ar
  30   19   20 ar
  31   19   25 1
  32   20   21 ar
  33   20   35 1
  34   21   22 ar
  35   21   26 1
  36   22   23 ar
  37   22   36 1
  38   23   24 1
  39   26   27 1
  40   26   37 1
  41   26   38 1
  42   27   39 1
  43   27   40 1

#	End of record

