#	Name: ASD04910199
#	Creating user name:	WinNT
#	Creation time:	15. 06. 2019 20:55

#	Modifying user name:	WinNT
#	Modification time:	15. 06. 2019 20:55

#	Program:	/corina/corina34_cracker 3.40 0067  02.08.2006

@<TRIPOS>MOLECULE
ASD04910199
  49   50    0    0    0
SMALL
NO_CHARGES


@<TRIPOS>ATOM
   1 C1            -0.0184     1.5028     0.0103 C.2     
   2 C2             0.0021    -0.0041     0.0020 C.3     
   3 C3             1.4513    -0.4944    -0.0145 C.3     
   4 O4             1.0197     2.1211     0.0037 O.2     
   5 O5            -1.1898     2.1580     0.0194 O.3     
   6 C6             2.6473    -2.6171    -0.0373 C.2     
   7 C7             2.6674    -4.0977    -0.0454 C.ar    
   8 C8             3.8858    -4.7784    -0.0607 C.ar    
   9 C9             3.9058    -6.1559    -0.0678 C.ar    
  10 C10            2.7050    -6.8720    -0.0598 C.ar    
  11 C11            1.4853    -6.1889    -0.0444 C.ar    
  12 C12            1.4680    -4.8113    -0.0320 C.ar    
  13 O13            3.6914    -1.9953    -0.0439 O.2     
  14 N14            1.4712    -1.9592    -0.0225 N.am    
  15 C15            2.7250    -8.3457    -0.0679 C.2     
  16 O16            3.7829    -8.9375    -0.0815 O.2     
  17 C17            1.4303    -9.1169    -0.0591 C.3     
  18 C18            1.5486   -10.5261    -0.6634 C.3     
  19 C19            0.6227   -11.0034     0.4678 C.3     
  20 C20            1.1313    -9.8034     1.2840 C.3     
  21 C21           -0.8646   -10.9208     0.1184 C.3     
  22 C22            1.0219   -12.3582     1.0561 C.3     
  23 C23           -1.1335     3.6089     0.0270 C.3     
  24 C24           -2.5551     4.1744     0.0369 C.3     
  25 H25           -0.4983    -0.3791     0.8948 H       
  26 H26           -0.5153    -0.3696    -0.8850 H       
  27 H27            1.9516    -0.1193    -0.9073 H       
  28 H28            1.9686    -0.1289     0.8726 H       
  29 H29            4.8132    -4.2250    -0.0673 H       
  30 H30            4.8487    -6.6824    -0.0800 H       
  31 H31            0.5570    -6.7409    -0.0386 H       
  32 H32            0.5260    -4.2834    -0.0156 H       
  33 H33            0.6378    -2.4556    -0.0172 H       
  34 H34            0.5924    -8.5418    -0.4532 H       
  35 H35            1.1066   -10.6141    -1.6559 H       
  36 H36            2.5548   -10.9416    -0.6087 H       
  37 H37            2.0234   -10.0214     1.8712 H       
  38 H38            0.3524    -9.3080     1.8637 H       
  39 H39           -1.0683   -11.5431    -0.7530 H       
  40 H40           -1.4564   -11.2736     0.9631 H       
  41 H41           -1.1288    -9.8869    -0.1037 H       
  42 H42            2.0297   -12.2935     1.4662 H       
  43 H43            0.3241   -12.6302     1.8481 H       
  44 H44            0.9962   -13.1161     0.2731 H       
  45 H45           -0.6017     3.9472     0.9164 H       
  46 H46           -0.6102     3.9569    -0.8636 H       
  47 H47           -2.5128     5.2636     0.0426 H       
  48 H48           -3.0869     3.8361    -0.8525 H       
  49 H49           -3.0784     3.8265     0.9275 H       
@<TRIPOS>BOND
   1    1    2 1
   2    1    4 2
   3    1    5 1
   4    2    3 1
   5    2   25 1
   6    2   26 1
   7    3   14 1
   8    3   27 1
   9    3   28 1
  10    5   23 1
  11    6    7 1
  12    6   13 2
  13    6   14 am
  14    7    8 ar
  15    7   12 ar
  16    8    9 ar
  17    8   29 1
  18    9   10 ar
  19    9   30 1
  20   10   11 ar
  21   10   15 1
  22   11   12 ar
  23   11   31 1
  24   12   32 1
  25   14   33 1
  26   15   16 2
  27   15   17 1
  28   17   18 1
  29   17   20 1
  30   17   34 1
  31   18   19 1
  32   18   35 1
  33   18   36 1
  34   19   20 1
  35   19   21 1
  36   19   22 1
  37   20   37 1
  38   20   38 1
  39   21   39 1
  40   21   40 1
  41   21   41 1
  42   22   42 1
  43   22   43 1
  44   22   44 1
  45   23   24 1
  46   23   45 1
  47   23   46 1
  48   24   47 1
  49   24   48 1
  50   24   49 1

#	End of record

