#	Name: ASD02039020
#	Creating user name:	WinNT
#	Creation time:	15. 06. 2019 20:17

#	Modifying user name:	WinNT
#	Modification time:	15. 06. 2019 20:17

#	Program:	/corina/corina34_cracker 3.40 0067  02.08.2006

@<TRIPOS>MOLECULE
ASD02039020
  39   42    0    0    0
SMALL
NO_CHARGES


@<TRIPOS>ATOM
   1 N1            -0.0167     1.2911     0.1668 N.2     
   2 N2            -0.0038     0.0049     0.1933 N.2     
   3 C3             1.2121     1.7350     0.0619 C.2     
   4 O4             2.0225     0.6610     0.0220 O.3     
   5 C5             1.2228    -0.4198     0.1072 C.2     
   6 N6             1.6034     3.0607     0.0028 N.pl3   
   7 C7             0.6403     4.0705    -0.0881 C.ar    
   8 C8             1.6682    -1.8595     0.1034 C.3     
   9 O9             1.7047    -2.3433    -1.2407 O.3     
  10 C10            2.0894    -3.6348    -1.4216 C.ar    
  11 C11            2.1454    -4.1627    -2.6961 C.ar    
  12 C12            2.4303    -4.4169    -0.3210 C.ar    
  13 C13            2.8222    -5.7273    -0.4853 C.ar    
  14 C14            2.8801    -6.2804    -1.7598 C.ar    
  15 C15            2.5418    -5.4917    -2.8757 C.ar    
  16 C16            1.0178     5.4043     0.0134 C.ar    
  17 C17           -0.6949     3.7432    -0.2857 C.ar    
  18 C18           -1.6437     4.7429    -0.3750 C.ar    
  19 C19           -1.2659     6.0690    -0.2684 C.ar    
  20 C20            0.0630     6.3995    -0.0769 C.ar    
  21 N21            3.2699    -7.5915    -1.9453 N.am    
  22 C22            3.3263    -8.1286    -3.1765 C.2     
  23 C23            2.9925    -7.3819    -4.3265 C.2     
  24 O24            3.6750    -9.2898    -3.3026 O.2     
  25 C25            2.6068    -6.0870    -4.2119 C.2     
  26 Cl26           2.6862     5.8196     0.2539 Cl      
  27 H27            2.5457     3.2897     0.0244 H       
  28 H28            2.6628    -1.9333     0.5433 H       
  29 H29            0.9679    -2.4580     0.6861 H       
  30 H30            1.8846    -3.5533    -3.5488 H       
  31 H31            2.3873    -3.9919     0.6710 H       
  32 H32            3.0847    -6.3246     0.3754 H       
  33 H33           -0.9910     2.7080    -0.3699 H       
  34 H34           -2.6820     4.4887    -0.5287 H       
  35 H35           -2.0101     6.8485    -0.3390 H       
  36 H36            0.3546     7.4361     0.0060 H       
  37 H37            3.5069    -8.1330    -1.1762 H       
  38 H38            3.0487    -7.8422    -5.3019 H       
  39 H39            2.3492    -5.5085    -5.0867 H       
@<TRIPOS>BOND
   1    1    2 1
   2    1    3 2
   3    2    5 2
   4    3    4 1
   5    3    6 1
   6    4    5 1
   7    5    8 1
   8    6    7 1
   9    6   27 1
  10    7   16 ar
  11    7   17 ar
  12    8    9 1
  13    8   28 1
  14    8   29 1
  15    9   10 1
  16   10   11 ar
  17   10   12 ar
  18   11   15 ar
  19   11   30 1
  20   12   13 ar
  21   12   31 1
  22   13   14 ar
  23   13   32 1
  24   14   15 ar
  25   14   21 1
  26   15   25 1
  27   16   26 1
  28   16   20 ar
  29   17   18 ar
  30   17   33 1
  31   18   19 ar
  32   18   34 1
  33   19   20 ar
  34   19   35 1
  35   20   36 1
  36   21   22 am
  37   21   37 1
  38   22   23 1
  39   22   24 2
  40   23   25 2
  41   23   38 1
  42   25   39 1

#	End of record

