#	Name: ASD05503035
#	Creating user name:	WinNT
#	Creation time:	15. 06. 2019 21:01

#	Modifying user name:	WinNT
#	Modification time:	15. 06. 2019 21:01

#	Program:	/corina/corina34_cracker 3.40 0067  02.08.2006

@<TRIPOS>MOLECULE
ASD05503035
  39   40    0    0    0
SMALL
NO_CHARGES


@<TRIPOS>ATOM
   1 C1            -0.1504     1.3617     0.4407 C.ar    
   2 C2            -0.0933    -0.0173     0.2841 C.ar    
   3 C3             1.1367    -0.6546     0.2033 C.ar    
   4 C4             2.3060     0.0885     0.2794 C.ar    
   5 C5             2.2419     1.4677     0.4360 C.ar    
   6 C6             1.0158     2.0989     0.5160 C.ar    
   7 N7            -1.2747    -0.7632     0.2083 N.am    
   8 C8            -1.3350    -1.8514    -0.5845 C.2     
   9 C9            -2.5642    -2.7233    -0.5752 C.3     
  10 O10           -0.4000    -2.1291    -1.3054 O.2     
  11 C11           -2.3753    -3.8815    -1.5570 C.3     
  12 C12           -3.6232    -4.7666    -1.5476 C.3     
  13 N13            3.5476    -0.5500     0.1988 N.am    
  14 C14            4.5808     0.0606    -0.4145 C.2     
  15 C15            5.8620    -0.6538    -0.5908 C.ar    
  16 O16            4.4585     1.1991    -0.8227 O.2     
  17 C17            6.0058    -1.9614    -0.1232 C.ar    
  18 C18            7.2044    -2.6233    -0.2906 C.ar    
  19 C19            8.2642    -1.9952    -0.9204 C.ar    
  20 C20            8.1307    -0.6988    -1.3867 C.ar    
  21 C21            6.9333    -0.0259    -1.2313 C.ar    
  22 Cl22           6.7660     1.6000    -1.8162 Cl      
  23 Cl23           9.4667     0.0805    -2.1751 Cl      
  24 H24           -1.1075     1.8587     0.4991 H       
  25 H25            1.1838    -1.7267     0.0819 H       
  26 H26            3.1516     2.0468     0.4953 H       
  27 H27            0.9687     3.1710     0.6378 H       
  28 H28           -2.0504    -0.4970     0.7264 H       
  29 H29           -2.7211    -3.1194     0.4281 H       
  30 H30           -3.4308    -2.1327    -0.8724 H       
  31 H31           -2.2184    -3.4854    -2.5603 H       
  32 H32           -1.5087    -4.4720    -1.2598 H       
  33 H33           -4.4898    -4.1761    -1.8447 H       
  34 H34           -3.4887    -5.5917    -2.2470 H       
  35 H35           -3.7802    -5.1627    -0.5443 H       
  36 H36            3.6652    -1.4323     0.5844 H       
  37 H37            5.1802    -2.4537     0.3691 H       
  38 H38            7.3160    -3.6347     0.0714 H       
  39 H39            9.2001    -2.5187    -1.0485 H       
@<TRIPOS>BOND
   1    1    2 ar
   2    1    6 ar
   3    1   24 1
   4    2    3 ar
   5    2    7 1
   6    3    4 ar
   7    3   25 1
   8    4    5 ar
   9    4   13 1
  10    5    6 ar
  11    5   26 1
  12    6   27 1
  13    7    8 am
  14    7   28 1
  15    8    9 1
  16    8   10 2
  17    9   11 1
  18    9   29 1
  19    9   30 1
  20   11   12 1
  21   11   31 1
  22   11   32 1
  23   12   33 1
  24   12   34 1
  25   12   35 1
  26   13   14 am
  27   13   36 1
  28   14   15 1
  29   14   16 2
  30   15   17 ar
  31   15   21 ar
  32   17   18 ar
  33   17   37 1
  34   18   19 ar
  35   18   38 1
  36   19   20 ar
  37   19   39 1
  38   20   21 ar
  39   20   23 1
  40   21   22 1

#	End of record

