#	Name: ASD05143260
#	Creating user name:	WinNT
#	Creation time:	15. 06. 2019 20:57

#	Modifying user name:	WinNT
#	Modification time:	15. 06. 2019 20:57

#	Program:	/corina/corina34_cracker 3.40 0067  02.08.2006

@<TRIPOS>MOLECULE
ASD05143260
  47   49    0    0    0
SMALL
NO_CHARGES


@<TRIPOS>ATOM
   1 C1             0.4018     1.2077     0.1170 C.2     
   2 N2             0.3469    -0.0615    -0.2353 N.2     
   3 S3            -1.3063    -0.4298    -0.3728 S.3     
   4 C4            -1.8405     1.1513     0.0530 C.2     
   5 N5            -0.7433     1.8420     0.2730 N.2     
   6 N6            -3.1455     1.5979     0.1484 N.pl3   
   7 C7            -3.4098     2.8906     0.6098 C.ar    
   8 C8            -4.7181     3.2880     0.8562 C.ar    
   9 C9            -4.9757     4.5657     1.3119 C.ar    
  10 C10           -3.9332     5.4498     1.5227 C.ar    
  11 C11           -2.6300     5.0577     1.2780 C.ar    
  12 C12           -2.3647     3.7789     0.8284 C.ar    
  13 C13            1.4047    -0.9090    -0.4469 C.ar    
  14 C14            2.3680    -0.6010    -1.4088 C.ar    
  15 C15            1.5254    -2.0804     0.3030 C.ar    
  16 C16            2.5914    -2.9282     0.0851 C.ar    
  17 C17            3.5400    -2.6198    -0.8741 C.ar    
  18 C18            3.4293    -1.4577    -1.6166 C.ar    
  19 C19            1.6978     1.8919     0.3347 C.ar    
  20 C20            1.8300     3.2496     0.0449 C.ar    
  21 C21            2.7887     1.1820     0.8355 C.ar    
  22 C22            3.9931     1.8247     1.0361 C.ar    
  23 C23            4.1197     3.1705     0.7418 C.ar    
  24 C24            3.0396     3.8812     0.2497 C.ar    
  25 C25            0.4937    -2.4177     1.3483 C.3     
  26 C26           -5.8548     2.3257     0.6259 C.3     
  27 H27           -3.8776     1.0142    -0.1049 H       
  28 H28           -5.9925     4.8752     1.5036 H       
  29 H29           -4.1374     6.4487     1.8788 H       
  30 H30           -1.8182     5.7506     1.4433 H       
  31 H31           -1.3466     3.4732     0.6378 H       
  32 H32            2.2826     0.3056    -1.9893 H       
  33 H33            2.6862    -3.8345     0.6648 H       
  34 H34            4.3729    -3.2868    -1.0405 H       
  35 H35            4.1728    -1.2230    -2.3640 H       
  36 H36            0.9875     3.8054    -0.3394 H       
  37 H37            2.6908     0.1315     1.0663 H       
  38 H38            4.8387     1.2760     1.4240 H       
  39 H39            5.0642     3.6694     0.9012 H       
  40 H40            3.1444     4.9317     0.0218 H       
  41 H41           -0.2623    -3.0724     0.9148 H       
  42 H42            0.9758    -2.9234     2.1849 H       
  43 H43            0.0211    -1.5011     1.7014 H       
  44 H44           -6.0464     1.7641     1.5402 H       
  45 H45           -6.7501     2.8812     0.3464 H       
  46 H46           -5.5902     1.6359    -0.1756 H       
  47 Br47          10.0642    11.4487     7.1849 Br      
@<TRIPOS>BOND
   1    1    2 2
   2    1   19 1
   3    1    5 1
   4    2    3 1
   5    2   13 1
   6    3    4 1
   7    4    5 2
   8    4    6 1
   9    6    7 1
  10    6   27 1
  11    7    8 ar
  12    7   12 ar
  13    8    9 ar
  14    8   26 1
  15    9   10 ar
  16    9   28 1
  17   10   11 ar
  18   10   29 1
  19   11   12 ar
  20   11   30 1
  21   12   31 1
  22   13   14 ar
  23   13   15 ar
  24   14   18 ar
  25   14   32 1
  26   15   16 ar
  27   15   25 1
  28   16   17 ar
  29   16   33 1
  30   17   18 ar
  31   17   34 1
  32   18   35 1
  33   19   20 ar
  34   19   21 ar
  35   20   24 ar
  36   20   36 1
  37   21   22 ar
  38   21   37 1
  39   22   23 ar
  40   22   38 1
  41   23   24 ar
  42   23   39 1
  43   24   40 1
  44   25   41 1
  45   25   42 1
  46   25   43 1
  47   26   44 1
  48   26   45 1
  49   26   46 1

#	End of record

