#	Name: ASD03092710
#	Creating user name:	WinNT
#	Creation time:	15. 06. 2019 20:33

#	Modifying user name:	WinNT
#	Modification time:	15. 06. 2019 20:33

#	Program:	/corina/corina34_cracker 3.40 0067  02.08.2006

@<TRIPOS>MOLECULE
ASD03092710
  53   55    0    0    0
SMALL
NO_CHARGES


@<TRIPOS>ATOM
   1 C1            -0.2660     1.7721    -0.7687 C.3     
   2 C2            -0.1740     0.2450    -0.7461 C.3     
   3 C3            -1.5485    -0.3440    -0.4224 C.3     
   4 H4            -1.9162     0.0831     0.5106 H       
   5 O5            -2.4597    -0.0358    -1.4792 O.3     
   6 C6            -1.4312    -1.8625    -0.2768 C.3     
   7 C7            -2.7551    -2.4283     0.1683 C.2     
   8 C8            -3.8111    -2.7069    -0.6283 C.2     
   9 C9            -4.8406    -3.2172     0.1812 C.2     
  10 N10           -6.1034    -3.6275    -0.2591 N.pl3   
  11 C11           -6.9912    -4.2338     0.6329 C.ar    
  12 C12           -8.3588    -4.1691     0.4041 C.ar    
  13 C13           -9.2364    -4.7719     1.2916 C.ar    
  14 O14          -10.5759    -4.7109     1.0704 O.3     
  15 C15          -11.0093    -4.0091    -0.0965 C.3     
  16 C16           -8.7465    -5.4383     2.4060 C.ar    
  17 C17           -7.3844    -5.5014     2.6326 C.ar    
  18 C18           -6.5062    -4.9075     1.7477 C.ar    
  19 C19           -6.8564    -6.2256     3.8442 C.3     
  20 F20           -7.9268    -6.7451     4.5802 F       
  21 F21           -6.0207    -7.2705     3.4355 F       
  22 F22           -6.1316    -5.3334     4.6416 F       
  23 N23           -4.4125    -3.2422     1.4217 N.2     
  24 N24           -3.0992    -2.7551     1.4414 N.pl3   
  25 C25           -2.2868    -2.6261     2.5719 C.ar    
  26 C26           -1.5158    -1.4827     2.7712 C.ar    
  27 C27           -0.7273    -1.3937     3.9003 C.ar    
  28 N28           -0.6983    -2.3733     4.7837 N.ar    
  29 C29           -1.4138    -3.4715     4.6306 C.ar    
  30 C30           -1.3415    -4.5578     5.6727 C.3     
  31 C31           -2.2316    -3.6353     3.5316 C.ar    
  32 H32            0.7132     2.1917    -0.9993 H       
  33 H33           -0.9824     2.0817    -1.5297 H       
  34 H34           -0.5944     2.1308     0.2068 H       
  35 H35            0.1544    -0.1137    -1.7216 H       
  36 H36            0.5423    -0.0646     0.0149 H       
  37 H37           -2.1952    -0.3855    -2.3411 H       
  38 H38           -1.1536    -2.2991    -1.2362 H       
  39 H39           -0.6675    -2.0986     0.4643 H       
  40 H40           -3.8560    -2.5624    -1.6976 H       
  41 H41           -6.3625    -3.4910    -1.1838 H       
  42 H42           -8.7383    -3.6498    -0.4634 H       
  43 H43          -10.5874    -4.4826    -0.9830 H       
  44 H44          -12.0975    -4.0360    -0.1534 H       
  45 H45          -10.6738    -2.9734    -0.0433 H       
  46 H46           -9.4305    -5.9079     3.0974 H       
  47 H47           -5.4421    -4.9627     1.9243 H       
  48 H48           -1.5347    -0.6773     2.0518 H       
  49 H49           -0.1262    -0.5113     4.0627 H       
  50 H50           -2.1029    -4.3833     6.4329 H       
  51 H51           -1.5138    -5.5255     5.2013 H       
  52 H52           -0.3556    -4.5504     6.1374 H       
  53 H53           -2.8178    -4.5348     3.4145 H       
@<TRIPOS>BOND
   1    1    2 1
   2    1   32 1
   3    1   33 1
   4    1   34 1
   5    2    3 1
   6    2   35 1
   7    2   36 1
   8    3    4 1
   9    3    5 1
  10    3    6 1
  11    5   37 1
  12    6    7 1
  13    6   38 1
  14    6   39 1
  15    7   24 1
  16    7    8 2
  17    8    9 1
  18    8   40 1
  19    9   10 1
  20    9   23 2
  21   10   11 1
  22   10   41 1
  23   11   18 ar
  24   11   12 ar
  25   12   13 ar
  26   12   42 1
  27   13   14 1
  28   13   16 ar
  29   14   15 1
  30   15   43 1
  31   15   44 1
  32   15   45 1
  33   16   17 ar
  34   16   46 1
  35   17   18 ar
  36   17   19 1
  37   18   47 1
  38   19   20 1
  39   19   21 1
  40   19   22 1
  41   23   24 1
  42   24   25 1
  43   25   31 ar
  44   25   26 ar
  45   26   27 ar
  46   26   48 1
  47   27   28 ar
  48   27   49 1
  49   28   29 ar
  50   29   30 1
  51   29   31 ar
  52   30   50 1
  53   30   51 1
  54   30   52 1
  55   31   53 1

#	End of record

