#	Name: ASD01150233
#	Creating user name:	WinNT
#	Creation time:	15. 06. 2019 19:03

#	Modifying user name:	WinNT
#	Modification time:	15. 06. 2019 19:03

#	Program:	/corina/corina34_cracker 3.40 0067  02.08.2006

@<TRIPOS>MOLECULE
ASD01150233
  47   50    0    0    0
SMALL
NO_CHARGES


@<TRIPOS>ATOM
   1 C1             0.2854     0.8520     0.1486 C.ar    
   2 C2             0.1653    -0.5276     0.3024 C.ar    
   3 C3            -1.0573    -1.1213     0.3790 C.ar    
   4 C4            -2.2206    -0.3356     0.3028 C.ar    
   5 C5            -2.0946     1.0660     0.1471 C.ar    
   6 C6            -0.8214     1.6455     0.0768 C.ar    
   7 N7            -3.4338    -0.8936     0.3749 N.ar    
   8 C8            -4.5293    -0.1759     0.3053 C.ar    
   9 C9            -4.4942     1.2051     0.1527 C.ar    
  10 C10           -3.2701     1.8557     0.0707 C.ar    
  11 Br11           2.0039     1.6344     0.0460 Br      
  12 C12           -3.1947     3.3255    -0.0916 C.ar    
  13 C13           -5.7772     1.9919     0.0761 C.3     
  14 C14           -6.4086     1.8047    -1.3049 C.3     
  15 O15           -6.6815     1.5273     1.0802 O.3     
  16 C16           -5.8648    -0.8687     0.3928 C.3     
  17 C17           -2.6405     4.1136     0.9174 C.ar    
  18 C18           -2.5727     5.4822     0.7615 C.ar    
  19 C19           -3.0543     6.0749    -0.3950 C.ar    
  20 C20           -3.6058     5.2964    -1.4003 C.ar    
  21 C21           -3.6725     3.9264    -1.2566 C.ar    
  22 F22           -2.9864     7.4161    -0.5427 F       
  23 C23           -7.6287     2.4023     1.5101 C.ar    
  24 C24           -8.4639     2.0595     2.5633 C.ar    
  25 C25           -9.4257     2.9503     2.9992 C.ar    
  26 C26           -9.5561     4.1837     2.3859 C.ar    
  27 C27           -8.7240     4.5274     1.3353 C.ar    
  28 C28           -7.7576     3.6414     0.9000 C.ar    
  29 Cl29         -10.7658     5.3012     2.9350 Cl      
  30 H30            1.0561    -1.1355     0.3614 H       
  31 H31           -1.1333    -2.1921     0.4975 H       
  32 H32           -0.7169     2.7139    -0.0420 H       
  33 H33           -5.5655     3.0487     0.2386 H       
  34 H34           -6.5322     0.7407    -1.5067 H       
  35 H35           -7.3820     2.2945    -1.3288 H       
  36 H36           -5.7613     2.2455    -2.0631 H       
  37 H37           -6.1439    -0.9889     1.4395 H       
  38 H38           -6.6189    -0.2698    -0.1179 H       
  39 H39           -5.7975    -1.8484    -0.0802 H       
  40 H40           -2.2656     3.6527     1.8193 H       
  41 H41           -2.1438     6.0931     1.5421 H       
  42 H42           -3.9798     5.7629    -2.2997 H       
  43 H43           -4.1021     3.3205    -2.0406 H       
  44 H44           -8.3626     1.0967     3.0420 H       
  45 H45          -10.0763     2.6836     3.8189 H       
  46 H46           -8.8273     5.4906     0.8578 H       
  47 H47           -7.1082     3.9101     0.0799 H       
@<TRIPOS>BOND
   1    1    2 ar
   2    1   11 1
   3    1    6 ar
   4    2    3 ar
   5    2   30 1
   6    3    4 ar
   7    3   31 1
   8    4    5 ar
   9    4    7 ar
  10    5    6 ar
  11    5   10 ar
  12    6   32 1
  13    7    8 ar
  14    8    9 ar
  15    8   16 1
  16    9   10 ar
  17    9   13 1
  18   10   12 1
  19   12   17 ar
  20   12   21 ar
  21   13   14 1
  22   13   15 1
  23   13   33 1
  24   14   34 1
  25   14   35 1
  26   14   36 1
  27   15   23 1
  28   16   37 1
  29   16   38 1
  30   16   39 1
  31   17   18 ar
  32   17   40 1
  33   18   19 ar
  34   18   41 1
  35   19   20 ar
  36   19   22 1
  37   20   21 ar
  38   20   42 1
  39   21   43 1
  40   23   24 ar
  41   23   28 ar
  42   24   25 ar
  43   24   44 1
  44   25   26 ar
  45   25   45 1
  46   26   27 ar
  47   26   29 1
  48   27   28 ar
  49   27   46 1
  50   28   47 1

#	End of record

