#	Name: ASD02030418
#	Creating user name:	WinNT
#	Creation time:	15. 06. 2019 20:15

#	Modifying user name:	WinNT
#	Modification time:	15. 06. 2019 20:15

#	Program:	/corina/corina34_cracker 3.40 0067  02.08.2006

@<TRIPOS>MOLECULE
ASD02030418
  55   58    0    0    0
SMALL
NO_CHARGES


@<TRIPOS>ATOM
   1 N1             0.1408     1.4788    -0.2246 N.am    
   2 C2            -0.0744     0.0289    -0.3314 C.3     
   3 C3            -0.9790    -0.4187     0.8234 C.3     
   4 N4            -2.1491     0.4692     0.8746 N.am    
   5 C5            -1.9338     1.9190     0.9814 C.3     
   6 C6            -1.0292     2.3662    -0.1677 C.3     
   7 C7             1.3889     1.9851    -0.1740 C.2     
   8 C8             2.5519     1.0769    -0.0843 C.2     
   9 N9             3.8030     1.4381     0.1034 N.2     
  10 N10            2.5167    -0.2653    -0.1742 N.2     
  11 C11            3.7457    -0.6961    -0.0449 C.2     
  12 N12            4.5391     0.3809     0.1281 N.pl3   
  13 O13            1.5582     3.1885    -0.2022 O.2     
  14 C14           -3.3971    -0.0371     0.8241 C.2     
  15 C15           -3.6006    -1.5046     0.7931 C.ar    
  16 O16           -4.3554     0.7097     0.8039 O.2     
  17 C17           -0.5719     3.8068     0.0695 C.3     
  18 C18           -1.7959     2.2781    -1.4888 C.3     
  19 C19            5.9292     0.3545     0.3045 C.ar    
  20 C20            6.6313     1.5400     0.4730 C.ar    
  21 C21            8.0025     1.5105     0.6473 C.ar    
  22 C22            8.6742     0.3007     0.6533 C.ar    
  23 C23            7.9764    -0.8813     0.4855 C.ar    
  24 C24            6.6060    -0.8582     0.3168 C.ar    
  25 Cl25           8.8822     2.9922     0.8582 Cl      
  26 C26           -4.8431    -2.0205     0.4411 C.ar    
  27 C27           -5.0178    -3.4020     0.4164 C.ar    
  28 C28           -3.9351    -4.2116     0.7471 C.ar    
  29 C29           -2.7295    -3.6239     1.0870 C.ar    
  30 N30           -2.5931    -2.3152     1.0966 N.ar    
  31 O31           -6.2149    -3.9456     0.0786 O.3     
  32 C32           -6.3032    -5.3719     0.0799 C.3     
  33 H33           -0.5548    -0.2005    -1.2825 H       
  34 H34            0.8828    -0.4887    -0.2680 H       
  35 H35           -1.3056    -1.4450     0.6556 H       
  36 H36           -0.4306    -0.3557     1.7633 H       
  37 H37           -2.8910     2.4366     0.9180 H       
  38 H38           -1.4534     2.1485     1.9326 H       
  39 H39            4.0661    -1.7272    -0.0691 H       
  40 H40            0.1598     3.8274     0.8771 H       
  41 H41           -0.1190     4.1989    -0.8412 H       
  42 H42           -1.4307     4.4205     0.3415 H       
  43 H43           -2.6717     2.9254    -1.4445 H       
  44 H44           -1.1492     2.5972    -2.3062 H       
  45 H45           -2.1129     1.2489    -1.6570 H       
  46 H46            6.1072     2.4842     0.4677 H       
  47 H47            9.7455     0.2796     0.7888 H       
  48 H48            8.5034    -1.8241     0.4903 H       
  49 H49            6.0619    -1.7819     0.1862 H       
  50 H50           -5.6602    -1.3600     0.1910 H       
  51 H51           -4.0349    -5.2869     0.7387 H       
  52 H52           -1.8870    -4.2486     1.3446 H       
  53 H53           -6.0818    -5.7488     1.0784 H       
  54 H54           -7.3104    -5.6738    -0.2073 H       
  55 H55           -5.5848    -5.7811    -0.6305 H       
@<TRIPOS>BOND
   1    1    2 1
   2    1    7 am
   3    1    6 1
   4    2    3 1
   5    2   33 1
   6    2   34 1
   7    3    4 1
   8    3   35 1
   9    3   36 1
  10    4    5 1
  11    4   14 am
  12    5    6 1
  13    5   37 1
  14    5   38 1
  15    6   17 1
  16    6   18 1
  17    7    8 1
  18    7   13 2
  19    8    9 2
  20    8   10 1
  21    9   12 1
  22   10   11 2
  23   11   12 1
  24   11   39 1
  25   12   19 1
  26   14   15 1
  27   14   16 2
  28   15   26 ar
  29   15   30 ar
  30   17   40 1
  31   17   41 1
  32   17   42 1
  33   18   43 1
  34   18   44 1
  35   18   45 1
  36   19   20 ar
  37   19   24 ar
  38   20   21 ar
  39   20   46 1
  40   21   22 ar
  41   21   25 1
  42   22   23 ar
  43   22   47 1
  44   23   24 ar
  45   23   48 1
  46   24   49 1
  47   26   27 ar
  48   26   50 1
  49   27   28 ar
  50   27   31 1
  51   28   29 ar
  52   28   51 1
  53   29   30 ar
  54   29   52 1
  55   31   32 1
  56   32   53 1
  57   32   54 1
  58   32   55 1

#	End of record

