#	Name: ASD01410864
#	Creating user name:	WinNT
#	Creation time:	15. 06. 2019 19:18

#	Modifying user name:	WinNT
#	Modification time:	15. 06. 2019 19:18

#	Program:	/corina/corina34_cracker 3.40 0067  02.08.2006

@<TRIPOS>MOLECULE
ASD01410864
 130  137    0    0    0
SMALL
NO_CHARGES


@<TRIPOS>ATOM
   1 C1             1.3838     1.9970     2.3362 C.3     
   2 C2             1.0420     0.4969     2.1807 C.3     
   3 N3             1.0781    -0.0345     3.5588 N.am    
   4 C4             0.7703     1.0604     4.4870 C.3     
   5 C5             0.6261     2.3475     3.6459 C.3     
   6 O6             2.7914     2.1896     2.4900 O.3     
   7 C7            -0.5208     0.7726     5.2089 C.2     
   8 O8            -1.1316    -0.2488     4.9752 O.2     
   9 N9            -0.9967     1.6502     6.1143 N.am    
  10 C10            2.1472    -0.2054     1.3840 C.3     
  11 C11            1.8907    -2.2710     2.8500 C.3     
  12 C12            1.3844    -1.3025     3.8815 C.2     
  13 O13            1.2502    -1.6725     5.0287 O.2     
  14 C14            0.9538    -3.4793     2.7949 C.3     
  15 O15            1.6431    -4.5908     2.2192 O.3     
  16 C16           -2.3026     1.4233     6.7382 C.3     
  17 C17           -3.4773     1.3928     5.7947 C.2     
  18 N18           -3.3035     1.6931     4.4924 N.am    
  19 O19           -4.5790     1.0981     6.2073 O.2     
  20 S20           -4.6109     1.7710     3.4790 S.o2    
  21 C21           -5.5844     3.1689     4.1026 C.3     
  22 C22           -2.3521     0.5009     7.9579 C.3     
  23 C23           -2.5313     2.0110     8.1322 C.3     
  24 C24           -6.9384     3.4372     3.4425 C.3     
  25 C25           -6.8784     2.8494     4.8538 C.3     
  26 O26           -4.0523     2.0793     2.2093 O.2     
  27 O27           -5.2984     0.5470     3.6992 O.2     
  28 C28           -3.5720    -0.3682     8.1240 C.2     
  29 C29           -3.4483    -1.6720     8.1536 C.2     
  30 C30            3.3023     3.3689     2.0571 C.ar    
  31 C31            4.6780     3.6625     2.2061 C.ar    
  32 C32            2.5008     4.3052     1.4585 C.ar    
  33 C33            3.0534     5.5161     1.0193 C.ar    
  34 N34            4.3400     5.7828     1.1675 N.ar    
  35 C35            5.1712     4.9060     1.7396 C.ar    
  36 C36            2.1779     6.5176     0.3753 C.2     
  37 S37            0.4469     6.3373     0.1019 S.3     
  38 C38            6.5372     5.2015     1.8920 C.ar    
  39 C39            7.3703     4.2795     2.4855 C.ar    
  40 C40            6.8729     3.0540     2.9376 C.ar    
  41 C41            5.5537     2.7456     2.8055 C.ar    
  42 Cl42           7.1699     6.7191     1.3350 Cl      
  43 O43            8.6907     4.5641     2.6327 O.3     
  44 C44            9.5036     3.5676     3.2558 C.3     
  45 N45            2.5613     7.6776    -0.0763 N.2     
  46 C46            1.6433     8.4402    -0.6191 C.2     
  47 C47            0.4040     7.9332    -0.6449 C.2     
  48 C48            1.9624     9.8032    -1.1773 C.3     
  49 C49            2.2190     9.6910    -2.6814 C.3     
  50 C50            0.7820    10.7446    -0.9301 C.3     
  51 C51           10.9489     4.0636     3.3332 C.3     
  52 N52           11.0187     5.2325     4.2203 N.3     
  53 C53           12.4146     5.5926     4.5085 C.3     
  54 C54           12.4416     6.8477     5.3848 C.3     
  55 O55           11.6874     6.6077     6.5760 O.3     
  56 C56           10.3230     6.2550     6.3322 C.3     
  57 C57           10.2745     4.9939     5.4655 C.3     
  58 C58            0.5007    -3.8383     4.2115 C.3     
  59 C59           -0.2682    -3.1385     1.9396 C.3     
  60 C60            0.8529    -5.7773     2.1212 C.3     
  61 N61            1.9533    -1.6540     1.5269 N.am    
  62 O62            1.7474    -1.8489    -0.7890 O.3     
  63 C63            1.6183    -2.7379    -1.9298 C.3     
  64 C64            0.3472    -3.5765    -1.7816 C.3     
  65 C65            1.5367    -1.9107    -3.2143 C.3     
  66 C66            2.8350    -3.6632    -1.9955 C.3     
  67 C67            1.8319    -2.4223     0.4262 C.2     
  68 O68            1.7987    -3.6325     0.5307 O.2     
  69 H69            1.0013     2.5751     1.4950 H       
  70 H70            0.0609     0.3583     1.7264 H       
  71 H71            1.5815     1.1762     5.2057 H       
  72 H72            1.0972     3.1916     4.1495 H       
  73 H73           -0.4234     2.5574     3.4396 H       
  74 H74           -0.4746     2.4322     6.3528 H       
  75 H75            2.0787     0.0741     0.3326 H       
  76 H76            3.1231     0.0770     1.7788 H       
  77 H77            2.8883    -2.6059     3.1343 H       
  78 H78           -2.4126     1.8637     4.1486 H       
  79 H79           -5.0077     4.0313     4.4369 H       
  80 H80           -1.4130     0.0629     8.2961 H       
  81 H81           -1.7100     2.5663     8.5853 H       
  82 H82           -3.5314     2.3754     8.3670 H       
  83 H83           -7.2527     4.4761     3.3430 H       
  84 H84           -7.2442     2.7737     2.6336 H       
  85 H85           -7.1448     1.7992     4.9734 H       
  86 H86           -7.1532     3.5017     5.6828 H       
  87 H87           -4.5482     0.0838     8.2187 H       
  88 H88           -4.3225    -2.2949     8.2726 H       
  89 H89           -2.4720    -2.1241     8.0588 H       
  90 H90            1.4468     4.1107     1.3254 H       
  91 H91            7.5428     2.3445     3.4004 H       
  92 H92            5.1825     1.7951     3.1592 H       
  93 H93            9.1321     3.3725     4.2618 H       
  94 H94            9.4655     2.6492     2.6700 H       
  95 H95           -0.4706     8.4188    -1.0519 H       
  96 H96            2.8514    10.1982    -0.6855 H       
  97 H97            2.4498    10.6768    -3.0852 H       
  98 H98            3.0600     9.0203    -2.8576 H       
  99 H99            1.3300     9.2960    -3.1732 H       
 100 H100           0.5992    10.8245     0.1415 H       
 101 H101           1.0128    11.7305    -1.3338 H       
 102 H102          -0.1070    10.3496    -1.4218 H       
 103 H103          11.5847     3.2705     3.7266 H       
 104 H104          11.2910     4.3429     2.3367 H       
 105 H105          12.9013     4.7711     5.0341 H       
 106 H106          12.9399     5.7897     3.5740 H       
 107 H107          13.4723     7.0855     5.6482 H       
 108 H108          12.0031     7.6826     4.8383 H       
 109 H109           9.8214     6.0642     7.2809 H       
 110 H110           9.8229     7.0728     5.8134 H       
 111 H111           9.2377     4.7541     5.2297 H       
 112 H112          10.7270     4.1629     6.0065 H       
 113 H113          -0.1784    -3.0700     4.5814 H       
 114 H114          -0.0124    -4.7998     4.1961 H       
 115 H115           1.3699    -3.9006     4.8661 H       
 116 H116           0.0546    -2.8827     0.9304 H       
 117 H117          -0.9357    -3.9993     1.9003 H       
 118 H118          -0.7940    -2.2906     2.3787 H       
 119 H119           0.5280    -6.0808     3.1164 H       
 120 H120          -0.0197    -5.5822     1.4979 H       
 121 H121           1.4477    -6.5741     1.6745 H       
 122 H122          -0.5196    -2.9173    -1.7348 H       
 123 H123           0.2503    -4.2439    -2.6380 H       
 124 H124           0.4054    -4.1658    -0.8665 H       
 125 H125           2.4422    -1.3133    -3.3199 H       
 126 H126           1.4398    -2.5781    -4.0707 H       
 127 H127           0.6699    -1.2515    -3.1675 H       
 128 H128           2.8932    -4.2526    -1.0804 H       
 129 H129           2.7381    -4.3306    -2.8519 H       
 130 H130           3.7406    -3.0658    -2.1011 H       
@<TRIPOS>BOND
   1    1    2 1
   2    1    6 1
   3    1    5 1
   4    1   69 1
   5    2    3 1
   6    2   10 1
   7    2   70 1
   8    3    4 1
   9    3   12 am
  10    4    5 1
  11    4    7 1
  12    4   71 1
  13    5   72 1
  14    5   73 1
  15    6   30 1
  16    7    8 2
  17    7    9 am
  18    9   16 1
  19    9   74 1
  20   10   61 1
  21   10   75 1
  22   10   76 1
  23   11   12 1
  24   11   14 1
  25   11   61 1
  26   11   77 1
  27   12   13 2
  28   14   15 1
  29   14   58 1
  30   14   59 1
  31   15   60 1
  32   16   17 1
  33   16   22 1
  34   16   23 1
  35   17   18 am
  36   17   19 2
  37   18   20 am
  38   18   78 1
  39   20   21 1
  40   20   26 2
  41   20   27 2
  42   21   24 1
  43   21   25 1
  44   21   79 1
  45   22   23 1
  46   22   28 1
  47   22   80 1
  48   23   81 1
  49   23   82 1
  50   24   25 1
  51   24   83 1
  52   24   84 1
  53   25   85 1
  54   25   86 1
  55   28   29 2
  56   28   87 1
  57   29   88 1
  58   29   89 1
  59   30   31 ar
  60   30   32 ar
  61   31   35 ar
  62   31   41 ar
  63   32   33 ar
  64   32   90 1
  65   33   34 ar
  66   33   36 1
  67   34   35 ar
  68   35   38 ar
  69   36   45 2
  70   36   37 1
  71   37   47 1
  72   38   39 ar
  73   38   42 1
  74   39   40 ar
  75   39   43 1
  76   40   41 ar
  77   40   91 1
  78   41   92 1
  79   43   44 1
  80   44   51 1
  81   44   93 1
  82   44   94 1
  83   45   46 1
  84   46   47 2
  85   46   48 1
  86   47   95 1
  87   48   49 1
  88   48   50 1
  89   48   96 1
  90   49   97 1
  91   49   98 1
  92   49   99 1
  93   50  100 1
  94   50  101 1
  95   50  102 1
  96   51   52 1
  97   51  103 1
  98   51  104 1
  99   52   53 1
 100   52   57 1
 101   53   54 1
 102   53  105 1
 103   53  106 1
 104   54   55 1
 105   54  107 1
 106   54  108 1
 107   55   56 1
 108   56   57 1
 109   56  109 1
 110   56  110 1
 111   57  111 1
 112   57  112 1
 113   58  113 1
 114   58  114 1
 115   58  115 1
 116   59  116 1
 117   59  117 1
 118   59  118 1
 119   60  119 1
 120   60  120 1
 121   60  121 1
 122   61   67 am
 123   62   63 1
 124   62   67 1
 125   63   64 1
 126   63   65 1
 127   63   66 1
 128   64  122 1
 129   64  123 1
 130   64  124 1
 131   65  125 1
 132   65  126 1
 133   65  127 1
 134   66  128 1
 135   66  129 1
 136   66  130 1
 137   67   68 2

#	End of record

