#	Name: ASD03470013
#	Creating user name:	WinNT
#	Creation time:	15. 06. 2019 20:42

#	Modifying user name:	WinNT
#	Modification time:	15. 06. 2019 20:42

#	Program:	/corina/corina34_cracker 3.40 0067  02.08.2006

@<TRIPOS>MOLECULE
ASD03470013
 133  133    0    0    0
SMALL
NO_CHARGES


@<TRIPOS>ATOM
   1 N1             1.1119    -0.5220    -1.2596 N.am    
   2 C2             2.0057     0.6564    -1.3240 C.3     
   3 C3             1.3159     1.8213    -0.6617 C.2     
   4 O4             0.1096     1.9334    -0.7163 O.2     
   5 C5             3.3132     0.3498    -0.5910 C.3     
   6 O6             4.1420     1.5139    -0.5881 O.3     
   7 N7             2.0657     2.7455    -0.0012 N.am    
   8 C8             1.3342     3.8645     0.6253 C.3     
   9 C9             1.8101     4.0230     2.0464 C.2     
  10 O10            2.9502     3.7428     2.3509 O.2     
  11 C11            1.6054     5.1536    -0.1528 C.3     
  12 C12            1.0238     5.0303    -1.5626 C.3     
  13 C13            1.2950     6.3195    -2.3407 C.3     
  14 N14            0.7382     6.2014    -3.6906 N.pl3   
  15 C15            0.8607     7.2440    -4.5783 C.2     
  16 N16            0.3382     7.1332    -5.8452 N.pl3   
  17 N17            1.4723     8.3375    -4.2190 N.2     
  18 N18            0.9338     4.4885     2.9851 N.am    
  19 C19            1.4790     4.6165     4.3556 C.3     
  20 C20            0.5454     3.9211     5.3126 C.2     
  21 O21           -0.6499     3.9115     5.1076 O.2     
  22 C22            2.8612     3.9639     4.4213 C.3     
  23 C23            2.7300     2.4633     4.1529 C.3     
  24 C24            4.1224     1.8317     4.0961 C.3     
  25 C25            3.9990     0.3603     3.6953 C.3     
  26 N26            5.3264    -0.2683     3.7250 N.3     
  27 N27            1.0623     3.3035     6.4099 N.am    
  28 C28            0.0984     2.6412     7.3109 C.3     
  29 C29            0.5990     1.2551     7.6263 C.2     
  30 O30            1.7886     1.0220     7.6648 O.2     
  31 C31           -0.0300     3.4466     8.6054 C.3     
  32 C32           -1.0294     2.7583     9.5373 C.3     
  33 C33            1.3346     3.5289     9.2923 C.3     
  34 C34           -1.2520     3.6266    10.7772 C.3     
  35 N35           -0.3119     0.2664     7.8683 N.am    
  36 C36            0.2605    -1.0647     8.1718 C.3     
  37 C37           -0.3995    -2.0873     7.2830 C.2     
  38 O38           -1.5606    -1.9600     6.9564 O.2     
  39 C39            1.7670    -1.0487     7.9051 C.3     
  40 C40            2.3528    -2.3934     8.2513 C.2     
  41 O41            3.6369    -2.6598     7.9653 O.3     
  42 O42            1.6665    -3.2317     8.7862 O.2     
  43 N43            0.3256    -3.1555     6.8517 N.am    
  44 C44           -0.3757    -4.1241     5.9860 C.3     
  45 C45            0.4871    -4.4190     4.7860 C.2     
  46 O46            1.6961    -4.3668     4.8667 O.2     
  47 C47           -0.6302    -5.4165     6.7643 C.3     
  48 C48           -1.5797    -5.1395     7.9013 C.2     
  49 N49           -1.9503    -6.1372     8.7281 N.am    
  50 O50           -2.0104    -4.0187     8.0723 O.2     
  51 N51           -0.1180    -4.7467     3.6060 N.am    
  52 C52            0.7988    -5.0225     2.4767 C.3     
  53 C53            0.3748    -4.1866     1.2967 C.2     
  54 O54           -0.7957    -3.9242     1.1180 O.2     
  55 C55            2.2300    -4.6580     2.8764 C.3     
  56 C56            2.2950    -3.1738     3.2423 C.3     
  57 C57            3.5511    -2.9083     4.0746 C.3     
  58 C58            2.3436    -2.3350     1.9637 C.3     
  59 N59            1.3237    -3.7298     0.4343 N.am    
  60 C60            0.8472    -2.9175    -0.7027 C.3     
  61 C61            1.6886    -1.6709    -0.7975 C.2     
  62 O62            2.8560    -1.6872    -0.4692 O.2     
  63 C63            0.9762    -3.7225    -1.9974 C.3     
  64 C64            0.0521    -4.9118    -1.9436 C.2     
  65 O65           -0.6388    -5.0965    -0.9697 O.2     
  66 O66           -0.0035    -5.7658    -2.9777 O.3     
  67 H67            0.1795    -0.4801    -1.5236 H       
  68 H68            2.2181     0.8979    -2.3654 H       
  69 H69            3.0942     0.0572     0.4359 H       
  70 H70            3.8317    -0.4641    -1.0980 H       
  71 H71            4.9897     1.3921    -0.1391 H       
  72 H72            3.0313     2.6726     0.0554 H       
  73 H73            0.2654     3.6506     0.6199 H       
  74 H74            1.1376     5.9934     0.3611 H       
  75 H75            2.6807     5.3201    -0.2166 H       
  76 H76            1.4917     4.1906    -2.0764 H       
  77 H77           -0.0515     4.8638    -1.4987 H       
  78 H78            0.8272     7.1592    -1.8268 H       
  79 H79            2.3703     6.4860    -2.4045 H       
  80 H80            0.2830     5.3876    -3.9580 H       
  81 H81           -0.1170     6.3194    -6.1126 H       
  82 H82            0.4246     7.8688    -6.4715 H       
  83 H83            1.5588     9.0731    -4.8454 H       
  84 H84            0.0170     4.7198     2.7685 H       
  85 H85            1.5594     5.6708     4.6203 H       
  86 H86            3.5107     4.4120     3.6693 H       
  87 H87            3.2900     4.1198     5.4112 H       
  88 H88            2.1533     2.0001     4.9535 H       
  89 H89            2.2213     2.3075     3.2015 H       
  90 H90            4.7308     2.3587     3.3611 H       
  91 H91            4.5939     1.9030     5.0763 H       
  92 H92            3.3384    -0.1525     4.3944 H       
  93 H93            3.5868     0.2913     2.6886 H       
  94 H94            5.7780    -0.1176     4.6146 H       
  95 H95            5.2651    -1.2528     3.5128 H       
  96 H96            2.0153     3.2985     6.5906 H       
  97 H97           -0.8734     2.5758     6.8215 H       
  98 H98           -0.3817     4.4521     8.3744 H       
  99 H99           -1.9765     2.6198     9.0159 H       
 100 H100          -0.6356     1.7878     9.8394 H       
 101 H101           2.0466     4.0192     8.6284 H       
 102 H102           1.2432     4.1027    10.2145 H       
 103 H103           1.6864     2.5234     9.5234 H       
 104 H104          -1.9640     3.1363    11.4411 H       
 105 H105          -0.3049     3.7651    11.2986 H       
 106 H106          -1.6458     4.5971    10.4752 H       
 107 H107          -1.2684     0.4257     7.8435 H       
 108 H108           0.0742    -1.3135     9.2165 H       
 109 H109           1.9472    -0.8342     6.8517 H       
 110 H110           2.2364    -0.2792     8.5181 H       
 111 H111           3.9677    -3.5359     8.2063 H       
 112 H112           1.2557    -3.2740     7.1002 H       
 113 H113          -1.3248    -3.7003     5.6580 H       
 114 H114          -1.0674    -6.1612     6.0991 H       
 115 H115           0.3124    -5.7931     7.1616 H       
 116 H116          -1.6058    -7.0336     8.5914 H       
 117 H117          -2.5614    -5.9589     9.4600 H       
 118 H118          -1.0824    -4.7956     3.5143 H       
 119 H119           0.7499    -6.0797     2.2158 H       
 120 H120           2.5312    -5.2576     3.7354 H       
 121 H121           2.9020    -4.8562     2.0415 H       
 122 H122           1.4118    -2.9033     3.8210 H       
 123 H123           4.4298    -3.2420     3.5228 H       
 124 H124           3.6334    -1.8406     4.2776 H       
 125 H125           3.4848    -3.4532     5.0163 H       
 126 H126           2.6039    -1.3064     2.2136 H       
 127 H127           3.0939    -2.7457     1.2881 H       
 128 H128           1.3678    -2.3553     1.4785 H       
 129 H129           2.2649    -3.9276     0.5605 H       
 130 H130          -0.1962    -2.6448    -0.5447 H       
 131 H131           0.7082    -3.0923    -2.8454 H       
 132 H132           2.0044    -4.0662    -2.1107 H       
 133 H133          -0.6112    -6.5137    -2.8972 H       
@<TRIPOS>BOND
   1    1   61 am
   2    1    2 1
   3    1   67 1
   4    2    5 1
   5    2    3 1
   6    2   68 1
   7    3    7 am
   8    3    4 2
   9    5    6 1
  10    5   69 1
  11    5   70 1
  12    6   71 1
  13    7    8 1
  14    7   72 1
  15    8    9 1
  16    8   11 1
  17    8   73 1
  18    9   18 am
  19    9   10 2
  20   11   12 1
  21   11   74 1
  22   11   75 1
  23   12   13 1
  24   12   76 1
  25   12   77 1
  26   13   14 1
  27   13   78 1
  28   13   79 1
  29   14   15 1
  30   14   80 1
  31   15   16 1
  32   15   17 2
  33   16   81 1
  34   16   82 1
  35   17   83 1
  36   18   19 1
  37   18   84 1
  38   19   22 1
  39   19   20 1
  40   19   85 1
  41   20   21 2
  42   20   27 am
  43   22   23 1
  44   22   86 1
  45   22   87 1
  46   23   24 1
  47   23   88 1
  48   23   89 1
  49   24   25 1
  50   24   90 1
  51   24   91 1
  52   25   26 1
  53   25   92 1
  54   25   93 1
  55   26   94 1
  56   26   95 1
  57   27   28 1
  58   27   96 1
  59   28   29 1
  60   28   31 1
  61   28   97 1
  62   29   30 2
  63   29   35 am
  64   31   33 1
  65   31   32 1
  66   31   98 1
  67   32   34 1
  68   32   99 1
  69   32  100 1
  70   33  101 1
  71   33  102 1
  72   33  103 1
  73   34  104 1
  74   34  105 1
  75   34  106 1
  76   35   36 1
  77   35  107 1
  78   36   37 1
  79   36   39 1
  80   36  108 1
  81   37   38 2
  82   37   43 am
  83   39   40 1
  84   39  109 1
  85   39  110 1
  86   40   41 1
  87   40   42 2
  88   41  111 1
  89   43   44 1
  90   43  112 1
  91   44   45 1
  92   44   47 1
  93   44  113 1
  94   45   51 am
  95   45   46 2
  96   47   48 1
  97   47  114 1
  98   47  115 1
  99   48   50 2
 100   48   49 am
 101   49  116 1
 102   49  117 1
 103   51   52 1
 104   51  118 1
 105   52   55 1
 106   52   53 1
 107   52  119 1
 108   53   59 am
 109   53   54 2
 110   55   56 1
 111   55  120 1
 112   55  121 1
 113   56   57 1
 114   56   58 1
 115   56  122 1
 116   57  123 1
 117   57  124 1
 118   57  125 1
 119   58  126 1
 120   58  127 1
 121   58  128 1
 122   59   60 1
 123   59  129 1
 124   60   63 1
 125   60   61 1
 126   60  130 1
 127   61   62 2
 128   63   64 1
 129   63  131 1
 130   63  132 1
 131   64   66 1
 132   64   65 2
 133   66  133 1

#	End of record

