#	Name: ASD01141048
#	Creating user name:	WinNT
#	Creation time:	15. 06. 2019 19:01

#	Modifying user name:	WinNT
#	Modification time:	15. 06. 2019 19:01

#	Program:	/corina/corina34_cracker 3.40 0067  02.08.2006

@<TRIPOS>MOLECULE
ASD01141048
  61   64    0    0    0
SMALL
NO_CHARGES


@<TRIPOS>ATOM
   1 C1            -0.7715     1.8489     0.2341 C.3     
   2 C2            -1.2443     0.3973     0.3384 C.3     
   3 C3            -1.4189     2.5089    -0.9840 C.3     
   4 C4             0.7506     1.8800     0.0825 C.3     
   5 C5            -1.1737     2.6079     1.5004 C.3     
   6 C6            -0.8436    -0.3637    -0.9269 C.3     
   7 C7            -0.5965    -0.2635     1.5569 C.3     
   8 H8            -2.3286     0.3754     0.4473 H       
   9 C9            -1.0172     3.9782    -1.0559 C.3     
  10 C10           -1.0019     1.7471    -2.2517 C.3     
  11 C11           -0.5252     1.9470     2.7185 C.3     
  12 C12           -1.4844     0.2996    -2.1478 C.3     
  13 C13           -0.9984     0.4958     2.8229 C.3     
  14 C14           -1.5717     4.6500    -2.3234 C.3     
  15 C15           -1.6588     2.4401    -3.4305 C.3     
  16 H16           -0.5367     0.0246     3.6907 H       
  17 O17           -2.4200     0.4674     2.9654 O.3     
  18 C18           -1.0518     3.8671    -3.5131 C.3     
  19 C19           -1.3157     1.8769    -4.8139 C.3     
  20 C20            0.4746     3.7845    -3.4506 C.3     
  21 C21           -1.4859     4.3536    -4.8917 C.3     
  22 C22           -1.6049     3.0753    -5.7586 C.3     
  23 C23           -0.4319     5.2953    -5.4777 C.3     
  24 C24           -0.3660     6.5227    -4.6678 C.1     
  25 H25            0.5402     4.8023    -5.4700 H       
  26 H26           -2.4502     4.8578    -4.8280 H       
  27 C27           -0.3134     7.5016    -4.0219 C.1     
  28 H28           -0.2664     8.3772    -3.4443 H       
  29 O29           -0.7859     5.6295    -6.8212 O.3     
  30 C30            0.1236     5.1296    -7.8035 C.3     
  31 H31           -2.5026     2.4547    -0.8802 H       
  32 H32            1.0370     1.3391    -0.8194 H       
  33 H33            1.0873     2.9141     0.0082 H       
  34 H34            1.2120     1.4092     0.9505 H       
  35 H35           -0.8377     3.6422     1.4263 H       
  36 H36           -2.2580     2.5850     1.6089 H       
  37 H37            0.2412    -0.3472    -1.0322 H       
  38 H38           -1.1854    -1.3961    -0.8532 H       
  39 H39           -0.9330    -1.2976     1.6312 H       
  40 H40            0.4879    -0.2412     1.4487 H       
  41 H41           -1.4042     4.4971    -0.1789 H       
  42 H42            0.0704     4.0507    -1.0606 H       
  43 H43            0.0820     1.7813    -2.3620 H       
  44 H44            0.5592     1.9693     2.6097 H       
  45 H45           -0.8110     2.4880     3.6206 H       
  46 H46           -1.1992    -0.2442    -3.0484 H       
  47 H47           -2.5692     0.2847    -2.0421 H       
  48 H48           -2.6614     4.6245    -2.3101 H       
  49 H49           -1.2248     5.6819    -2.3782 H       
  50 H50           -2.7394     2.4787    -3.2934 H       
  51 H51           -2.7461     0.9309     3.7489 H       
  52 H52           -0.2651     1.5909    -4.8641 H       
  53 H53           -1.9589     1.0309    -5.0561 H       
  54 H54            0.8990     4.7758    -3.6098 H       
  55 H55            0.7786     3.4119    -2.4724 H       
  56 H56            0.8338     3.1068    -4.2252 H       
  57 H57           -0.8724     3.1009    -6.5654 H       
  58 H58           -2.6114     2.9939    -6.1689 H       
  59 H59           -0.2694     5.3330    -8.7996 H       
  60 H60            1.0899     5.6203    -7.6870 H       
  61 H61            0.2442     4.0541    -7.6731 H       
@<TRIPOS>BOND
   1    1    2 1
   2    1    4 1
   3    1    5 1
   4    1    3 1
   5    2    6 1
   6    2    7 1
   7    2    8 1
   8    3   10 1
   9    3    9 1
  10    3   31 1
  11    4   32 1
  12    4   33 1
  13    4   34 1
  14    5   11 1
  15    5   35 1
  16    5   36 1
  17    6   12 1
  18    6   37 1
  19    6   38 1
  20    7   13 1
  21    7   39 1
  22    7   40 1
  23    9   14 1
  24    9   41 1
  25    9   42 1
  26   10   15 1
  27   10   12 1
  28   10   43 1
  29   11   13 1
  30   11   44 1
  31   11   45 1
  32   12   46 1
  33   12   47 1
  34   13   16 1
  35   13   17 1
  36   14   18 1
  37   14   48 1
  38   14   49 1
  39   15   19 1
  40   15   18 1
  41   15   50 1
  42   17   51 1
  43   18   20 1
  44   18   21 1
  45   19   22 1
  46   19   52 1
  47   19   53 1
  48   20   54 1
  49   20   55 1
  50   20   56 1
  51   21   22 1
  52   21   23 1
  53   21   26 1
  54   22   57 1
  55   22   58 1
  56   23   24 1
  57   23   25 1
  58   23   29 1
  59   24   27 3
  60   27   28 1
  61   29   30 1
  62   30   59 1
  63   30   60 1
  64   30   61 1

#	End of record

