#	Name: ASD01882216
#	Creating user name:	WinNT
#	Creation time:	15. 06. 2019 19:44

#	Modifying user name:	WinNT
#	Modification time:	15. 06. 2019 19:44

#	Program:	/corina/corina34_cracker 3.40 0067  02.08.2006

@<TRIPOS>MOLECULE
ASD01882216
  40   42    0    0    0
SMALL
NO_CHARGES


@<TRIPOS>ATOM
   1 C1            -0.0167     1.3781     0.0096 C.ar    
   2 C2             0.0021    -0.0041     0.0020 C.ar    
   3 C3             1.2084    -0.6789    -0.0132 C.ar    
   4 C4             2.3960     0.0285    -0.0212 C.ar    
   5 C5             2.3773     1.4107    -0.0145 C.ar    
   6 C6             1.1710     2.0855     0.0021 C.ar    
   7 C7             3.6720     2.1819    -0.0228 C.3     
   8 C8             3.7309     3.0696    -1.2690 C.3     
   9 C9             5.0192     3.8951    -1.2410 C.3     
  10 N10            5.0461     4.7217    -0.0276 N.3     
  11 C11            5.0381     3.8894     1.1822 C.3     
  12 C12            3.7503     3.0638     1.2265 C.3     
  13 C13            6.1405     5.5819    -0.0341 C.ar    
  14 C14            5.9635     6.9610     0.0144 C.ar    
  15 C15            7.4438     5.0816    -0.0836 C.ar    
  16 C16            8.5027     5.9624    -0.0880 C.ar    
  17 N17            8.3008     7.2671    -0.0463 N.ar    
  18 C18            7.0816     7.7838     0.0065 C.ar    
  19 N19            6.9205     9.1642     0.0490 N.pl3   
  20 N20            4.6035     7.5422     0.0731 N.pl3   
  21 O21            4.0752     7.7484     1.1510 O.2     
  22 O22            4.0126     7.8144    -0.9567 O.2     
  23 H23           -0.9592     1.9054     0.0170 H       
  24 H24           -0.9258    -0.5567     0.0083 H       
  25 H25            1.2231    -1.7588    -0.0184 H       
  26 H26            3.3386    -0.4987    -0.0324 H       
  27 H27            1.1563     3.1654     0.0069 H       
  28 H28            4.5106     1.4857    -0.0315 H       
  29 H29            3.7186     2.4446    -2.1619 H       
  30 H30            2.8703     3.7384    -1.2804 H       
  31 H31            5.8795     3.2258    -1.2435 H       
  32 H32            5.0574     4.5387    -2.1198 H       
  33 H33            5.8983     3.2202     1.1683 H       
  34 H34            5.0899     4.5290     2.0634 H       
  35 H35            2.8900     3.7325     1.2544 H       
  36 H36            3.7519     2.4346     2.1166 H       
  37 H37            7.6191     4.0165    -0.1176 H       
  38 H38            9.5123     5.5809    -0.1259 H       
  39 H39            7.6983     9.7437     0.0399 H       
  40 H40            6.0303     9.5476     0.0877 H       
@<TRIPOS>BOND
   1    1    2 ar
   2    1    6 ar
   3    1   23 1
   4    2    3 ar
   5    2   24 1
   6    3    4 ar
   7    3   25 1
   8    4    5 ar
   9    4   26 1
  10    5    6 ar
  11    5    7 1
  12    6   27 1
  13    7    8 1
  14    7   12 1
  15    7   28 1
  16    8    9 1
  17    8   29 1
  18    8   30 1
  19    9   10 1
  20    9   31 1
  21    9   32 1
  22   10   11 1
  23   10   13 1
  24   11   12 1
  25   11   33 1
  26   11   34 1
  27   12   35 1
  28   12   36 1
  29   13   14 ar
  30   13   15 ar
  31   14   20 1
  32   14   18 ar
  33   15   16 ar
  34   15   37 1
  35   16   17 ar
  36   16   38 1
  37   17   18 ar
  38   18   19 1
  39   19   39 1
  40   19   40 1
  41   20   21 2
  42   20   22 2

#	End of record

