#	Name: ASD01911244
#	Creating user name:	WinNT
#	Creation time:	15. 06. 2019 19:57

#	Modifying user name:	WinNT
#	Modification time:	15. 06. 2019 19:57

#	Program:	/corina/corina34_cracker 3.40 0067  02.08.2006

@<TRIPOS>MOLECULE
ASD01911244
  47   50    0    0    0
SMALL
NO_CHARGES


@<TRIPOS>ATOM
   1 C1            -0.2884     0.6881     0.1937 C.3     
   2 C2             0.4489    -0.6347     0.4245 C.3     
   3 N3             1.2302    -0.9566    -0.7775 N.am    
   4 C4             2.1653     0.0479    -1.3021 C.3     
   5 C5             1.4087     1.3631    -1.5136 C.3     
   6 C6             0.7204     1.7666    -0.2076 C.3     
   7 C7             1.0921    -2.1507    -1.3869 C.2     
   8 O8             1.6778    -2.3729    -2.4254 O.2     
   9 C9             0.2097    -3.2098    -0.7781 C.3     
  10 C10            0.1585    -4.5126    -1.5936 C.3     
  11 C11            0.1973    -5.2620    -0.2513 C.3     
  12 C12            0.8988    -4.0232     0.3303 C.3     
  13 C13            2.7313    -0.4262    -2.6159 C.2     
  14 N14            3.9542    -0.8429    -2.8311 N.2     
  15 C15            4.0031    -1.1626    -4.1441 C.2     
  16 N16            2.8188    -0.9236    -4.6440 N.2     
  17 O17            2.0779    -0.5059    -3.7793 O.3     
  18 C18            5.1809    -1.6863    -4.8800 C.ar    
  19 C19            6.3866    -1.8926    -4.2135 C.ar    
  20 C20            7.4788    -2.3799    -4.9029 C.ar    
  21 C21            7.3776    -2.6631    -6.2527 C.ar    
  22 C22            6.1826    -2.4601    -6.9196 C.ar    
  23 C23            5.0828    -1.9788    -6.2389 C.ar    
  24 C24            6.0800    -2.7706    -8.3907 C.3     
  25 H25           -1.0219     0.5616    -0.6026 H       
  26 H26           -0.7950     0.9871     1.1114 H       
  27 H27            1.1178    -0.5359     1.2794 H       
  28 H28           -0.2743    -1.4281     0.6135 H       
  29 H29            2.9742     0.2024    -0.5880 H       
  30 H30            2.1102     2.1425    -1.8111 H       
  31 H31            0.6593     1.2302    -2.2938 H       
  32 H32            0.2016     2.7148    -0.3485 H       
  33 H33            1.4679     1.8751     0.5783 H       
  34 H34           -0.7732    -2.8317    -0.4971 H       
  35 H35           -0.7734    -4.6478    -2.1424 H       
  36 H36            1.0419    -4.6763    -2.2108 H       
  37 H37           -0.7890    -5.4456     0.1749 H       
  38 H38            0.8255    -6.1526    -0.2664 H       
  39 H39            1.9845    -4.0531     0.2391 H       
  40 H40            0.5643    -3.7633     1.3347 H       
  41 H41            6.4668    -1.6714    -3.1594 H       
  42 H42            8.4142    -2.5398    -4.3872 H       
  43 H43            8.2347    -3.0438    -6.7883 H       
  44 H44            4.1503    -1.8211    -6.7603 H       
  45 H45            5.7677    -3.8065    -8.5225 H       
  46 H46            5.3469    -2.1086    -8.8515 H       
  47 H47            7.0514    -2.6212    -8.8621 H       
@<TRIPOS>BOND
   1    1    2 1
   2    1    6 1
   3    1   25 1
   4    1   26 1
   5    2    3 1
   6    2   27 1
   7    2   28 1
   8    3    4 1
   9    3    7 am
  10    4    5 1
  11    4   13 1
  12    4   29 1
  13    5    6 1
  14    5   30 1
  15    5   31 1
  16    6   32 1
  17    6   33 1
  18    7    8 2
  19    7    9 1
  20    9   10 1
  21    9   12 1
  22    9   34 1
  23   10   11 1
  24   10   35 1
  25   10   36 1
  26   11   12 1
  27   11   37 1
  28   11   38 1
  29   12   39 1
  30   12   40 1
  31   13   14 2
  32   13   17 1
  33   14   15 1
  34   15   16 2
  35   15   18 1
  36   16   17 1
  37   18   19 ar
  38   18   23 ar
  39   19   20 ar
  40   19   41 1
  41   20   21 ar
  42   20   42 1
  43   21   22 ar
  44   21   43 1
  45   22   23 ar
  46   22   24 1
  47   23   44 1
  48   24   45 1
  49   24   46 1
  50   24   47 1

#	End of record

