#	Name: ASD06020200
#	Creating user name:	WinNT
#	Creation time:	15. 06. 2019 21:04

#	Modifying user name:	WinNT
#	Modification time:	15. 06. 2019 21:04

#	Program:	/corina/corina34_cracker 3.40 0067  02.08.2006

@<TRIPOS>MOLECULE
ASD06020200
  36   36    0    0    0
SMALL
NO_CHARGES


@<TRIPOS>ATOM
   1 C1            -0.0329     1.5253     0.0060 C.2     
   2 N2            -0.1111     0.1876     0.1514 N.am    
   3 S3             1.5263     2.2893    -0.2933 S.3     
   4 S4            -1.4497     2.4813     0.1051 S.2     
   5 C5             1.0795    -0.6419    -0.0501 C.3     
   6 C6             1.6308    -0.4092    -1.4582 C.3     
   7 C7             2.1438    -0.2660     0.9828 C.3     
   8 C8            -1.3866    -0.4368     0.5111 C.3     
   9 C9            -1.7444    -1.5011    -0.5282 C.3     
  10 C10           -1.2639    -1.0904     1.8890 C.3     
  11 C11            0.9411     4.4981    -1.8037 C.ar    
  12 C12            1.0094     3.9570    -0.5304 C.ar    
  13 C13            0.6606     4.7560     0.5652 C.ar    
  14 C14            0.2584     6.0670     0.3228 C.ar    
  15 C15            0.2181     6.5283    -0.9775 C.ar    
  16 N16            0.5537     5.7465    -1.9863 N.ar    
  17 N17            0.7141     4.2524     1.8639 N.pl3   
  18 H18            0.8144    -1.6926     0.0672 H       
  19 H19            1.8144     0.6552    -1.6052 H       
  20 H20            2.5643    -0.9589    -1.5784 H       
  21 H21            0.9064    -0.7580    -2.1943 H       
  22 H22            1.7799    -0.5038     1.9824 H       
  23 H23            3.0565    -0.8282     0.7851 H       
  24 H24            2.3531     0.8016     0.9168 H       
  25 H25           -2.1682     0.3225     0.5375 H       
  26 H26           -1.0110    -2.3066    -0.4907 H       
  27 H27           -2.7350    -1.9013    -0.3122 H       
  28 H28           -1.7421    -1.0537    -1.5221 H       
  29 H29           -0.9222    -0.3506     2.6129 H       
  30 H30           -2.2358    -1.4769     2.1957 H       
  31 H31           -0.5462    -1.9093     1.8401 H       
  32 H32            1.2119     3.8930    -2.6563 H       
  33 H33           -0.0188     6.7144     1.1417 H       
  34 H34           -0.0929     7.5441    -1.1723 H       
  35 H35            0.9959     3.3371     2.0180 H       
  36 H36            0.4697     4.8173     2.6136 H       
@<TRIPOS>BOND
   1    1    2 am
   2    1    3 1
   3    1    4 2
   4    2    5 1
   5    2    8 1
   6    3   12 1
   7    5    6 1
   8    5    7 1
   9    5   18 1
  10    6   19 1
  11    6   20 1
  12    6   21 1
  13    7   22 1
  14    7   23 1
  15    7   24 1
  16    8    9 1
  17    8   10 1
  18    8   25 1
  19    9   26 1
  20    9   27 1
  21    9   28 1
  22   10   29 1
  23   10   30 1
  24   10   31 1
  25   11   12 ar
  26   11   16 ar
  27   11   32 1
  28   12   13 ar
  29   13   14 ar
  30   13   17 1
  31   14   15 ar
  32   14   33 1
  33   15   16 ar
  34   15   34 1
  35   17   35 1
  36   17   36 1

#	End of record

