#	Name: ASD03092465
#	Creating user name:	WinNT
#	Creation time:	15. 06. 2019 20:32

#	Modifying user name:	WinNT
#	Modification time:	15. 06. 2019 20:32

#	Program:	/corina/corina34_cracker 3.40 0067  02.08.2006

@<TRIPOS>MOLECULE
ASD03092465
  61   64    0    0    0
SMALL
NO_CHARGES


@<TRIPOS>ATOM
   1 O1             0.7343     1.4135     0.2835 O.3     
   2 N2             0.9086     0.2186     0.3401 N.2     
   3 C3             2.1723    -0.0908     0.3190 C.2     
   4 C4             2.8843     1.1264     0.2352 C.2     
   5 C5             1.9026     2.0792     0.2148 C.2     
   6 C6             2.0869     3.5405     0.1332 C.2     
   7 O7             3.2071     4.0097     0.0757 O.2     
   8 N8             1.0135     4.3555     0.1224 N.am    
   9 C9             4.3767     1.3283     0.1813 C.3     
  10 C10            2.7613    -1.4769     0.3740 C.3     
  11 C11            1.1966     5.8068     0.0413 C.3     
  12 S12           -2.3153     7.6004    -0.6274 S.3     
  13 C13           -1.9549     7.3528     1.0251 C.2     
  14 N14           -0.8019     6.7677     1.1522 N.2     
  15 C15           -0.1497     6.4839     0.0457 C.2     
  16 C16           -0.7883     6.8505    -1.0852 C.2     
  17 C17            0.1535     7.4818    -4.6655 C.ar    
  18 C18           -0.3182     7.7068    -3.3904 C.ar    
  19 C19           -0.2947     6.6569    -2.4626 C.ar    
  20 C20            0.2110     5.4182    -2.8791 C.ar    
  21 C21            0.6617     5.2824    -4.1743 C.ar    
  22 N22            0.6218     6.2983    -5.0164 N.ar    
  23 C23            1.2081     3.9558    -4.6356 C.3     
  24 C24            0.1284     8.6002    -5.6753 C.3     
  25 N25           -2.7734     7.7229     2.0767 N.3     
  26 C26           -4.0038     8.3614     1.5871 C.3     
  27 C27           -4.8509     8.8078     2.7817 C.3     
  28 O28           -5.1220     7.6783     3.6160 O.3     
  29 C29           -3.9459     7.0326     4.1110 C.3     
  30 C30           -3.0897     6.5682     2.9298 C.3     
  31 C31           -4.3454     5.8233     4.9590 C.3     
  32 C32           -6.1691     9.4007     2.2802 C.3     
  33 H33            0.1198     3.9812     0.1682 H       
  34 H34            4.7067     1.3243    -0.8575 H       
  35 H35            4.6308     2.2842     0.6395 H       
  36 H36            4.8722     0.5226     0.7231 H       
  37 H37            2.8735    -1.8645    -0.6385 H       
  38 H38            3.7371    -1.4381     0.8583 H       
  39 H39            2.0995    -2.1306     0.9421 H       
  40 H40            1.7778     6.1481     0.8979 H       
  41 H41            1.7254     6.0555    -0.8789 H       
  42 H42           -0.6995     8.6777    -3.1103 H       
  43 H43            0.2474     4.5829    -2.1955 H       
  44 H44            0.3983     3.3517    -5.0447 H       
  45 H45            1.9623     4.1213    -5.4050 H       
  46 H46            1.6590     3.4350    -3.7909 H       
  47 H47            1.0627     9.1590    -5.6219 H       
  48 H48            0.0107     8.1838    -6.6757 H       
  49 H49           -0.7065     9.2666    -5.4586 H       
  50 H50           -3.7467     9.2287     0.9789 H       
  51 H51           -4.5691     7.6492     0.9860 H       
  52 H52           -4.3067     9.5599     3.3530 H       
  53 H53           -3.3754     7.7331     4.7209 H       
  54 H54           -3.6403     5.8274     2.3502 H       
  55 H55           -2.1652     6.1265     3.3019 H       
  56 H56           -4.9141     5.1227     4.3475 H       
  57 H57           -3.4486     5.3316     5.3359 H       
  58 H58           -4.9582     6.1541     5.7975 H       
  59 H59           -6.7132     8.6471     1.7108 H       
  60 H60           -6.7717     9.7183     3.1312 H       
  61 H61           -5.9616    10.2592     1.6414 H       
@<TRIPOS>BOND
   1    1    2 1
   2    1    5 1
   3    2    3 2
   4    3    4 1
   5    3   10 1
   6    4    5 2
   7    4    9 1
   8    5    6 1
   9    6    7 2
  10    6    8 am
  11    8   11 1
  12    8   33 1
  13    9   34 1
  14    9   35 1
  15    9   36 1
  16   10   37 1
  17   10   38 1
  18   10   39 1
  19   11   15 1
  20   11   40 1
  21   11   41 1
  22   12   13 1
  23   12   16 1
  24   13   14 2
  25   13   25 1
  26   14   15 1
  27   15   16 2
  28   16   19 1
  29   17   18 ar
  30   17   22 ar
  31   17   24 1
  32   18   19 ar
  33   18   42 1
  34   19   20 ar
  35   20   21 ar
  36   20   43 1
  37   21   22 ar
  38   21   23 1
  39   23   44 1
  40   23   45 1
  41   23   46 1
  42   24   47 1
  43   24   48 1
  44   24   49 1
  45   25   26 1
  46   25   30 1
  47   26   27 1
  48   26   50 1
  49   26   51 1
  50   27   28 1
  51   27   32 1
  52   27   52 1
  53   28   29 1
  54   29   30 1
  55   29   31 1
  56   29   53 1
  57   30   54 1
  58   30   55 1
  59   31   56 1
  60   31   57 1
  61   31   58 1
  62   32   59 1
  63   32   60 1
  64   32   61 1

#	End of record

