#	Name: ASD01208059
#	Creating user name:	WinNT
#	Creation time:	15. 06. 2019 19:09

#	Modifying user name:	WinNT
#	Modification time:	15. 06. 2019 19:09

#	Program:	/corina/corina34_cracker 3.40 0067  02.08.2006

@<TRIPOS>MOLECULE
ASD01208059
  62   66    0    0    0
SMALL
NO_CHARGES


@<TRIPOS>ATOM
   1 C1            -0.0472     1.4001     0.1298 C.ar    
   2 C2             0.1035     0.0244     0.0330 C.ar    
   3 C3            -1.0095    -0.8041     0.0705 C.ar    
   4 C4            -2.2760    -0.2600     0.2049 C.ar    
   5 C5            -2.4320     1.1237     0.3026 C.ar    
   6 C6            -1.3096     1.9524     0.2697 C.ar    
   7 C7            -3.7812     1.7088     0.4461 C.2     
   8 C8            -4.0674     3.0397     0.5504 C.2     
   9 N9            -4.9583     1.0082     0.4910 N.pl3   
  10 C10           -5.9922     1.9017     0.6300 C.2     
  11 C11           -5.4538     3.1694     0.6685 C.2     
  12 O12            1.0461     2.2066     0.0930 O.3     
  13 C13            0.8121     3.6162     0.0769 C.3     
  14 C14            2.0045     4.3238    -0.5699 C.3     
  15 O15            3.1648     4.1425     0.2442 O.3     
  16 C16            0.6362     4.1204     1.5107 C.3     
  17 O17           -0.8564    -2.1510    -0.0251 O.3     
  18 C18           -1.3411    -2.7703    -1.1309 C.ar    
  19 C19           -1.8634    -2.0158    -2.1753 C.ar    
  20 C20           -1.3090    -4.1573    -1.2189 C.ar    
  21 C21           -1.7999    -4.7894    -2.3394 C.ar    
  22 C22           -2.3309    -4.0349    -3.3888 C.ar    
  23 C23           -2.3562    -2.6406    -3.2990 C.ar    
  24 C24           -7.4211     1.5651     0.7185 C.2     
  25 C25            4.3412     4.7676    -0.2730 C.3     
  26 N26           -8.3950     2.4240     0.8505 N.2     
  27 C27           -9.6133     1.9379     0.9121 C.2     
  28 C28           -9.7154     0.6072     0.8317 C.2     
  29 S29           -8.0943    -0.0617     0.6558 S.3     
  30 C30           -2.8581    -4.7085    -4.5917 C.2     
  31 N31           -2.9845    -6.0502    -4.6118 N.am    
  32 O32           -3.1783    -4.0531    -5.5644 O.2     
  33 C33           -3.5003    -7.0512    -5.5578 C.3     
  34 C34           -3.8033    -7.9537    -4.3537 C.3     
  35 C35           -2.6615    -7.1580    -3.7000 C.3     
  36 H36            1.0897    -0.4032    -0.0722 H       
  37 H37           -3.1416    -0.9052     0.2336 H       
  38 H38           -1.4259     3.0235     0.3454 H       
  39 H39           -3.3506     3.8475     0.5434 H       
  40 H40           -5.0464     0.0439     0.4338 H       
  41 H41           -6.0027     4.0939     0.7711 H       
  42 H42           -0.0907     3.8281    -0.4960 H       
  43 H43            2.1847     3.9018    -1.5586 H       
  44 H44            1.7886     5.3881    -0.6630 H       
  45 H45            0.4577     5.1956     1.4984 H       
  46 H46           -0.2133     3.6163     1.9715 H       
  47 H47            1.5390     3.9085     2.0836 H       
  48 H48           -1.8830    -0.9383    -2.1050 H       
  49 H49           -0.8981    -4.7398    -0.4076 H       
  50 H50           -1.7742    -5.8670    -2.4072 H       
  51 H51           -2.7661    -2.0540    -4.1079 H       
  52 H52            5.1770     4.5837     0.4019 H       
  53 H53            4.5699     4.3549    -1.2556 H       
  54 H54            4.1738     5.8412    -0.3599 H       
  55 H55          -10.4794     2.5737     1.0214 H       
  56 H56          -10.6338     0.0399     0.8649 H       
  57 H57           -4.3930    -6.7248    -6.0912 H       
  58 H58           -2.7360    -7.4552    -6.2217 H       
  59 H59           -4.7827    -7.7867    -3.9053 H       
  60 H60           -3.5753    -9.0071    -4.5162 H       
  61 H61           -1.6765    -7.5923    -3.8710 H       
  62 H62           -2.8422    -6.9214    -2.6515 H       
@<TRIPOS>BOND
   1    1    2 ar
   2    1   12 1
   3    1    6 ar
   4    2    3 ar
   5    2   36 1
   6    3    4 ar
   7    3   17 1
   8    4    5 ar
   9    4   37 1
  10    5    6 ar
  11    5    7 1
  12    6   38 1
  13    7    8 2
  14    7    9 1
  15    8   11 1
  16    8   39 1
  17    9   10 1
  18    9   40 1
  19   10   11 2
  20   10   24 1
  21   11   41 1
  22   12   13 1
  23   13   14 1
  24   13   16 1
  25   13   42 1
  26   14   15 1
  27   14   43 1
  28   14   44 1
  29   15   25 1
  30   16   45 1
  31   16   46 1
  32   16   47 1
  33   17   18 1
  34   18   19 ar
  35   18   20 ar
  36   19   23 ar
  37   19   48 1
  38   20   21 ar
  39   20   49 1
  40   21   22 ar
  41   21   50 1
  42   22   23 ar
  43   22   30 1
  44   23   51 1
  45   24   26 2
  46   24   29 1
  47   25   52 1
  48   25   53 1
  49   25   54 1
  50   26   27 1
  51   27   28 2
  52   27   55 1
  53   28   29 1
  54   28   56 1
  55   30   31 am
  56   30   32 2
  57   31   33 1
  58   31   35 1
  59   33   34 1
  60   33   57 1
  61   33   58 1
  62   34   35 1
  63   34   59 1
  64   34   60 1
  65   35   61 1
  66   35   62 1

#	End of record

