#	Name: ASD05143127
#	Creating user name:	WinNT
#	Creation time:	15. 06. 2019 20:57

#	Modifying user name:	WinNT
#	Modification time:	15. 06. 2019 20:57

#	Program:	/corina/corina34_cracker 3.40 0067  02.08.2006

@<TRIPOS>MOLECULE
ASD05143127
 150  153    0    0    0
SMALL
NO_CHARGES


@<TRIPOS>ATOM
   1 C1             0.8907     2.8199     1.5567 C.2     
   2 C2             1.1176     1.3458     1.7726 C.3     
   3 N3             1.8914     3.6952     1.7778 N.am    
   4 O4            -0.1908     3.2180     1.1791 O.2     
   5 C5             1.6709     5.1282     1.5679 C.3     
   6 C6             1.2788     5.3756     0.1098 C.3     
   7 C7             0.5642     5.6041     2.4733 C.2     
   8 C8             2.4507     5.0085    -0.8028 C.3     
   9 C9             2.0586     5.2559    -2.2609 C.3     
  10 N10            3.1807     4.9044    -3.1347 N.pl3   
  11 C11            3.0612     5.0447    -4.4971 C.2     
  12 N12            4.1142     4.7148    -5.3172 N.pl3   
  13 N13            1.9495     5.4905    -5.0113 N.2     
  14 O14           -0.2209     4.8072     2.9418 O.2     
  15 N15            0.4470     6.9152     2.7625 N.am    
  16 C16           -0.6288     7.3778     3.6428 C.3     
  17 C17           -0.2165     8.6949     4.3032 C.3     
  18 C18            1.1627     8.5336     4.9453 C.3     
  19 C19            2.0023     9.7826     4.6706 C.3     
  20 N20            1.9092    10.1314     3.2466 N.3     
  21 C21            2.8814    11.1749     2.8948 C.3     
  22 C22            2.3383    12.0052     1.7301 C.3     
  23 C23            3.4932    12.7350     1.0413 C.3     
  24 C24            2.9624    13.9964     0.3570 C.3     
  25 N25            2.6459    13.6796    -1.0498 N.am    
  26 C26            4.0113    15.0773     0.4073 C.2     
  27 N27            4.1803    15.8006     1.5319 N.am    
  28 O28            4.7035    15.2963    -0.5642 O.2     
  29 C29            1.3392    13.7816    -1.4187 C.2     
  30 O30            0.4955    14.1104    -0.6118 O.2     
  31 C31            0.9575    13.4801    -2.8451 C.3     
  32 N32           -0.5088    13.2876    -2.9146 N.am    
  33 C33            1.3645    14.6500    -3.7433 C.3     
  34 C34           -0.9168    12.0313    -3.2638 C.2     
  35 O35           -0.1050    11.1581    -3.4861 O.2     
  36 C36           -2.3935    11.7500    -3.3674 C.3     
  37 N37           -2.6034    10.2884    -3.3477 N.am    
  38 C38           -3.1212    12.3883    -2.1826 C.3     
  39 C39           -3.3582     9.7957    -2.3278 C.2     
  40 O40           -3.8235    10.5414    -1.4921 O.2     
  41 C41           -3.6088     8.3118    -2.2507 C.3     
  42 C42            1.0942    14.2957    -5.1829 C.2     
  43 C43           -0.1781    14.4462    -5.8932 C.ar    
  44 C44            0.0516    13.9880    -7.2032 C.ar    
  45 N45            1.3685    13.5917    -7.2699 N.pl3   
  46 C46            1.9751    13.7877    -6.0591 C.2     
  47 C47           -1.4421    14.9160    -5.5309 C.ar    
  48 C48           -2.4509    14.9281    -6.4522 C.ar    
  49 C49           -2.2295    14.4764    -7.7463 C.ar    
  50 C50           -0.9901    14.0097    -8.1251 C.ar    
  51 N51           -4.0607     7.9796    -0.8799 N.am    
  52 C52           -2.3158     7.5556    -2.5626 C.3     
  53 C53           -2.6307     6.1027    -2.8094 C.ar    
  54 C54           -3.2354     5.7177    -3.9911 C.ar    
  55 C55           -3.5243     4.3847    -4.2175 C.ar    
  56 C56           -3.2079     3.4371    -3.2623 C.ar    
  57 C57           -2.6021     3.8221    -2.0807 C.ar    
  58 C58           -2.3094     5.1541    -1.8562 C.ar    
  59 C59           -1.8824     7.5920     2.8341 C.2     
  60 O60           -2.4788     8.6465     2.8914 O.2     
  61 C61           -4.6298    12.3619    -2.4363 C.3     
  62 C62           -5.3662    12.8398    -1.1832 C.3     
  63 N63           -6.8107    12.8145    -1.4262 N.pl3   
  64 C64           -7.6812    13.2043    -0.4361 C.2     
  65 N65           -9.0368    13.1806    -0.6641 N.pl3   
  66 N66           -7.2214    13.5964     0.7188 N.2     
  67 N67           -2.3357     6.5848     2.0379 N.am    
  68 C68           -3.5658     6.8549     1.2672 C.3     
  69 C69           -3.1845     7.2381    -0.1394 C.2     
  70 O70           -2.1190     6.8942    -0.6057 O.2     
  71 C71           -4.3380     8.0032     1.9199 C.3     
  72 C72           -4.4913     7.7313     3.3943 C.2     
  73 C73           -5.2118     8.7070     4.2612 C.2     
  74 O74           -5.6749     9.7202     3.7796 O.2     
  75 N75           -5.3490     8.4639     5.5797 N.am    
  76 C76           -3.5804     6.7509    -5.0325 C.3     
  77 O77           -4.0304     6.7230     3.8735 O.2     
  78 F78           -4.1793     6.1242    -6.1306 F       
  79 F79           -4.4682     7.6844    -4.4870 F       
  80 F80           -2.4141     7.4031    -5.4466 F       
  81 H81            0.8714     1.0873     2.8025 H       
  82 H82            0.4824     0.7771     1.0935 H       
  83 H83            2.1631     1.1067     1.5780 H       
  84 H84            2.7577     3.3763     2.0759 H       
  85 H85            2.5866     5.6739     1.7955 H       
  86 H86            0.4148     4.7613    -0.1434 H       
  87 H87            1.0287     6.4279    -0.0256 H       
  88 H88            3.3147     5.6229    -0.5496 H       
  89 H89            2.7009     3.9563    -0.6674 H       
  90 H90            1.1946     4.6416    -2.5141 H       
  91 H91            1.8084     6.3082    -2.3963 H       
  92 H92            4.0080     4.5726    -2.7520 H       
  93 H93            4.9415     4.3830    -4.9345 H       
  94 H94            4.0299     4.8138    -6.2784 H       
  95 H95            1.8652     5.5895    -5.9726 H       
  96 H96            1.0750     7.5525     2.3879 H       
  97 H97           -0.8162     6.6287     4.4121 H       
  98 H98           -0.1769     9.4821     3.5503 H       
  99 H99           -0.9450     8.9610     5.0691 H       
 100 H100           1.0493     8.4014     6.0213 H       
 101 H101           1.6605     7.6609     4.5225 H       
 102 H102           1.6291    10.6110     5.2728 H       
 103 H103           3.0427     9.5852     4.9291 H       
 104 H104           2.0289     9.3151     2.6658 H       
 105 H105           3.0475    11.8220     3.7561 H       
 106 H106           3.8231    10.7105     2.6021 H       
 107 H107           1.8455    11.3477     1.0140 H       
 108 H108           1.6211    12.7343     2.1071 H       
 109 H109           4.2422    13.0118     1.7832 H       
 110 H110           3.9443    12.0798     0.2962 H       
 111 H111           2.0607    14.3363     0.8665 H       
 112 H112           3.3339    13.4126    -1.6794 H       
 113 H113           3.6267    15.6255     2.3090 H       
 114 H114           4.8554    16.4963     1.5643 H       
 115 H115           1.4615    12.5713    -3.1740 H       
 116 H116          -1.1358    14.0030    -2.7251 H       
 117 H117           0.7875    15.5341    -3.4721 H       
 118 H118           2.4270    14.8555    -3.6130 H       
 119 H119          -2.7791    12.1617    -4.3000 H       
 120 H120          -2.2232     9.7094    -4.0267 H       
 121 H121          -2.8958    11.8299    -1.2740 H       
 122 H122          -2.7904    13.4204    -2.0662 H       
 123 H123          -4.3808     8.0333    -2.9680 H       
 124 H124           1.8025    13.2309    -8.0587 H       
 125 H125           3.0076    13.5600    -5.8390 H       
 126 H126          -1.6218    15.2682    -4.5259 H       
 127 H127          -3.4284    15.2915    -6.1716 H       
 128 H128          -3.0370    14.4918    -8.4633 H       
 129 H129          -0.8278    13.6608    -9.1343 H       
 130 H130          -4.9189     8.2687    -0.5322 H       
 131 H131          -1.8506     7.9826    -3.4510 H       
 132 H132          -1.6323     7.6408    -1.7179 H       
 133 H133          -3.9975     4.0839    -5.1405 H       
 134 H134          -3.4342     2.3960    -3.4389 H       
 135 H135          -2.3552     3.0817    -1.3342 H       
 136 H136          -1.8362     5.4549    -0.9332 H       
 137 H137          -4.8693    13.0199    -3.2716 H       
 138 H138          -4.9404    11.3446    -2.6745 H       
 139 H139          -5.1267    12.1818    -0.3479 H       
 140 H140          -5.0556    13.8571    -0.9450 H       
 141 H141          -7.1529    12.5227    -2.2857 H       
 142 H142          -9.3790    12.8888    -1.5236 H       
 143 H143          -9.6511    13.4556     0.0344 H       
 144 H144          -7.8356    13.8714     1.4173 H       
 145 H145          -1.8743     5.7335     1.9802 H       
 146 H146          -4.1874     5.9598     1.2460 H       
 147 H147          -3.7918     8.9356     1.7773 H       
 148 H148          -5.3233     8.0854     1.4612 H       
 149 H149          -4.9788     7.6541     5.9647 H       
 150 H150          -5.8178     9.0986     6.1438 H       
@<TRIPOS>BOND
   1    1    2 1
   2    1    3 am
   3    1    4 2
   4    2   81 1
   5    2   82 1
   6    2   83 1
   7    3    5 1
   8    3   84 1
   9    5    6 1
  10    5    7 1
  11    5   85 1
  12    6    8 1
  13    6   86 1
  14    6   87 1
  15    7   14 2
  16    7   15 am
  17    8    9 1
  18    8   88 1
  19    8   89 1
  20    9   10 1
  21    9   90 1
  22    9   91 1
  23   10   11 1
  24   10   92 1
  25   11   12 1
  26   11   13 2
  27   12   93 1
  28   12   94 1
  29   13   95 1
  30   15   16 1
  31   15   96 1
  32   16   17 1
  33   16   59 1
  34   16   97 1
  35   17   18 1
  36   17   98 1
  37   17   99 1
  38   18   19 1
  39   18  100 1
  40   18  101 1
  41   19   20 1
  42   19  102 1
  43   19  103 1
  44   20   21 1
  45   20  104 1
  46   21   22 1
  47   21  105 1
  48   21  106 1
  49   22   23 1
  50   22  107 1
  51   22  108 1
  52   23   24 1
  53   23  109 1
  54   23  110 1
  55   24   25 1
  56   24   26 1
  57   24  111 1
  58   25   29 am
  59   25  112 1
  60   26   27 am
  61   26   28 2
  62   27  113 1
  63   27  114 1
  64   29   30 2
  65   29   31 1
  66   31   32 1
  67   31   33 1
  68   31  115 1
  69   32   34 am
  70   32  116 1
  71   33   42 1
  72   33  117 1
  73   33  118 1
  74   34   35 2
  75   34   36 1
  76   36   37 1
  77   36   38 1
  78   36  119 1
  79   37   39 am
  80   37  120 1
  81   38   61 1
  82   38  121 1
  83   38  122 1
  84   39   40 2
  85   39   41 1
  86   41   51 1
  87   41   52 1
  88   41  123 1
  89   42   43 1
  90   42   46 2
  91   43   44 ar
  92   43   47 ar
  93   44   45 1
  94   44   50 ar
  95   45   46 1
  96   45  124 1
  97   46  125 1
  98   47   48 ar
  99   47  126 1
 100   48   49 ar
 101   48  127 1
 102   49   50 ar
 103   49  128 1
 104   50  129 1
 105   51   69 am
 106   51  130 1
 107   52   53 1
 108   52  131 1
 109   52  132 1
 110   53   54 ar
 111   53   58 ar
 112   54   55 ar
 113   54   76 1
 114   55   56 ar
 115   55  133 1
 116   56   57 ar
 117   56  134 1
 118   57   58 ar
 119   57  135 1
 120   58  136 1
 121   59   60 2
 122   59   67 am
 123   61   62 1
 124   61  137 1
 125   61  138 1
 126   62   63 1
 127   62  139 1
 128   62  140 1
 129   63   64 1
 130   63  141 1
 131   64   65 1
 132   64   66 2
 133   65  142 1
 134   65  143 1
 135   66  144 1
 136   67   68 1
 137   67  145 1
 138   68   69 1
 139   68   71 1
 140   68  146 1
 141   69   70 2
 142   71   72 1
 143   71  147 1
 144   71  148 1
 145   72   73 1
 146   72   77 2
 147   73   74 2
 148   73   75 am
 149   75  149 1
 150   75  150 1
 151   76   78 1
 152   76   79 1
 153   76   80 1

#	End of record

