#	Name: ASD03091866
#	Creating user name:	WinNT
#	Creation time:	15. 06. 2019 20:31

#	Modifying user name:	WinNT
#	Modification time:	15. 06. 2019 20:31

#	Program:	/corina/corina34_cracker 3.40 0067  02.08.2006

@<TRIPOS>MOLECULE
ASD03091866
  50   53    0    0    0
SMALL
NO_CHARGES


@<TRIPOS>ATOM
   1 C1            -0.0150     1.4038     0.0122 C.ar    
   2 C2            -1.2260     2.0727     0.0343 C.ar    
   3 C3            -2.4069     1.3545     0.0345 C.ar    
   4 C4            -2.3902    -0.0308     0.0126 C.ar    
   5 C5            -1.1909    -0.7136    -0.0095 C.ar    
   6 C6             0.0034     0.0001    -0.0096 C.ar    
   7 O7             1.1654     2.0700     0.0167 O.3     
   8 C8             2.2609     1.4540     0.6939 C.3     
   9 N9             2.4081     0.0565     0.2863 N.am    
  10 C10            1.3154    -0.6785    -0.0267 C.2     
  11 C11           -3.6885    -0.7960     0.0134 C.3     
  12 C12           -4.1981    -0.9222    -1.3992 C.ar    
  13 C13           -5.0320     0.0432    -1.9313 C.ar    
  14 C14           -3.8318    -2.0052    -2.1834 C.ar    
  15 C15           -4.3250    -2.0798    -3.4773 C.ar    
  16 C16           -5.1591    -1.0795    -3.9388 C.ar    
  17 N17           -5.4823    -0.0607    -3.1662 N.ar    
  18 O18            1.4105    -1.8565    -0.3124 O.2     
  19 C19            3.7406    -0.5484     0.2167 C.3     
  20 C20            4.5950     0.1758    -0.8441 C.3     
  21 C21            4.4690    -0.3750     1.5610 C.3     
  22 C22            5.7406     0.4485     1.2701 C.3     
  23 C23            5.4062     1.2164    -0.0328 C.3     
  24 O24            4.8244    -1.6526     2.0935 O.3     
  25 C25           -3.7248     2.0849     0.0592 C.3     
  26 C26           -5.7008    -1.1504    -5.3433 C.3     
  27 H27           -1.2485     3.1523     0.0517 H       
  28 H28           -1.1796    -1.7934    -0.0263 H       
  29 H29            3.1776     1.9945     0.4578 H       
  30 H30            2.0874     1.4972     1.7691 H       
  31 H31           -3.5243    -1.7895     0.4306 H       
  32 H32           -4.4230    -0.2647     0.6185 H       
  33 H33           -5.3185     0.8923    -1.3284 H       
  34 H34           -3.1777    -2.7722    -1.7959 H       
  35 H35           -4.0601    -2.9092    -4.1164 H       
  36 H36            3.6574    -1.6071    -0.0291 H       
  37 H37            5.2643    -0.5273    -1.3398 H       
  38 H38            3.9561     0.6744    -1.5731 H       
  39 H39            3.8311     0.1592     2.2651 H       
  40 H40            5.9378     1.1461     2.0841 H       
  41 H41            6.5950    -0.2105     1.1159 H       
  42 H42            6.3175     1.4939    -0.5624 H       
  43 H43            4.7999     2.0963     0.1822 H       
  44 H44            5.2872    -1.6103     2.9415 H       
  45 H45           -4.0527     2.2774    -0.9623 H       
  46 H46           -4.4690     1.4744     0.5707 H       
  47 H47           -3.6060     3.0311     0.5871 H       
  48 H48           -6.6476    -1.6905    -5.3407 H       
  49 H49           -5.8595    -0.1410    -5.7229 H       
  50 H50           -4.9873    -1.6708    -5.9821 H       
@<TRIPOS>BOND
   1    1    6 ar
   2    1    7 1
   3    1    2 ar
   4    2    3 ar
   5    2   27 1
   6    3    4 ar
   7    3   25 1
   8    4    5 ar
   9    4   11 1
  10    5    6 ar
  11    5   28 1
  12    6   10 1
  13    7    8 1
  14    8    9 1
  15    8   29 1
  16    8   30 1
  17    9   10 am
  18    9   19 1
  19   10   18 2
  20   11   12 1
  21   11   31 1
  22   11   32 1
  23   12   14 ar
  24   12   13 ar
  25   13   17 ar
  26   13   33 1
  27   14   15 ar
  28   14   34 1
  29   15   16 ar
  30   15   35 1
  31   16   17 ar
  32   16   26 1
  33   19   21 1
  34   19   20 1
  35   19   36 1
  36   20   23 1
  37   20   37 1
  38   20   38 1
  39   21   22 1
  40   21   24 1
  41   21   39 1
  42   22   23 1
  43   22   40 1
  44   22   41 1
  45   23   42 1
  46   23   43 1
  47   24   44 1
  48   25   45 1
  49   25   46 1
  50   25   47 1
  51   26   48 1
  52   26   49 1
  53   26   50 1

#	End of record

