#	Name: ASD01912283
#	Creating user name:	WinNT
#	Creation time:	15. 06. 2019 19:59

#	Modifying user name:	WinNT
#	Modification time:	15. 06. 2019 19:59

#	Program:	/corina/corina34_cracker 3.40 0067  02.08.2006

@<TRIPOS>MOLECULE
ASD01912283
  48   50    0    0    0
SMALL
NO_CHARGES


@<TRIPOS>ATOM
   1 C1            -0.0167     1.3791     0.0096 C.ar    
   2 C2             0.0021    -0.0041     0.0020 C.ar    
   3 C3             1.2202    -0.6700    -0.0132 C.ar    
   4 C4             2.3829     0.0790    -0.0202 C.ar    
   5 C5             2.2916     1.4735    -0.0119 C.ar    
   6 N6             1.1034     2.0714     0.0026 N.ar    
   7 C7             3.4855     2.2642    -0.0190 C.1     
   8 C8             4.4642     2.9125    -0.0248 C.1     
   9 C9             5.6581     3.7033    -0.0320 C.2     
  10 N10            5.4112     7.5517    -1.1198 N.am    
  11 C11            6.7206     6.8901    -1.1864 C.3     
  12 C12            6.8259     5.8862    -0.0314 C.3     
  13 C13            5.5764     5.0331    -0.0241 C.2     
  14 C14            4.2319     5.7267    -0.0070 C.3     
  15 C15            4.1917     6.7346    -1.1626 C.3     
  16 S16            5.3111     9.1997    -0.9910 S.o2    
  17 O17            4.0459     9.4805    -0.4083 O.2     
  18 O18            6.5406     9.6334    -0.4258 O.2     
  19 C19            5.1795    10.8669    -5.1975 C.ar    
  20 C20            5.2599     9.8486    -2.6284 C.ar    
  21 C21            4.0047    10.5391    -4.5468 C.ar    
  22 C22            6.3944    10.6856    -4.5635 C.ar    
  23 C23            4.0449    10.0299    -3.2623 C.ar    
  24 C24            6.4346    10.1764    -3.2790 C.ar    
  25 C25            5.1360    11.4161    -6.6001 C.3     
  26 C26           -1.3378     2.1040     0.0198 C.3     
  27 H27           -0.9231    -0.5612     0.0082 H       
  28 H28            1.2589    -1.7493    -0.0190 H       
  29 H29            3.3474    -0.4068    -0.0317 H       
  30 H30            6.6247     3.2217    -0.0438 H       
  31 H31            6.8169     6.3652    -2.1368 H       
  32 H32            7.5114     7.6349    -1.0963 H       
  33 H33            7.7016     5.2531    -0.1741 H       
  34 H34            6.9099     6.4220     0.9141 H       
  35 H35            3.4378     4.9909    -0.1340 H       
  36 H36            4.1006     6.2492     0.9405 H       
  37 H37            3.3175     7.3771    -1.0569 H       
  38 H38            4.1427     6.2007    -2.1116 H       
  39 H39            3.0554    10.6811    -5.0419 H       
  40 H40            7.3123    10.9414    -5.0720 H       
  41 H41            3.1270     9.7742    -2.7538 H       
  42 H42            7.3839    10.0351    -2.7836 H       
  43 H43            5.0671    12.5033    -6.5627 H       
  44 H44            6.0429    11.1276    -7.1316 H       
  45 H45            4.2665    11.0147    -7.1207 H       
  46 H46           -1.6515     2.2732     1.0499 H       
  47 H47           -1.2307     3.0618    -0.4894 H       
  48 H48           -2.0869     1.5014    -0.4938 H       
@<TRIPOS>BOND
   1    1    2 ar
   2    1    6 ar
   3    1   26 1
   4    2    3 ar
   5    2   27 1
   6    3    4 ar
   7    3   28 1
   8    4    5 ar
   9    4   29 1
  10    5    6 ar
  11    5    7 1
  12    7    8 3
  13    8    9 1
  14    9   13 2
  15    9   30 1
  16   10   11 1
  17   10   15 1
  18   10   16 am
  19   11   12 1
  20   11   31 1
  21   11   32 1
  22   12   13 1
  23   12   33 1
  24   12   34 1
  25   13   14 1
  26   14   15 1
  27   14   35 1
  28   14   36 1
  29   15   37 1
  30   15   38 1
  31   16   17 2
  32   16   18 2
  33   16   20 1
  34   19   21 ar
  35   19   22 ar
  36   19   25 1
  37   20   23 ar
  38   20   24 ar
  39   21   23 ar
  40   21   39 1
  41   22   24 ar
  42   22   40 1
  43   23   41 1
  44   24   42 1
  45   25   43 1
  46   25   44 1
  47   25   45 1
  48   26   46 1
  49   26   47 1
  50   26   48 1

#	End of record

