#	Name: ASD01811563
#	Creating user name:	WinNT
#	Creation time:	15. 06. 2019 19:27

#	Modifying user name:	WinNT
#	Modification time:	15. 06. 2019 19:27

#	Program:	/corina/corina34_cracker 3.40 0067  02.08.2006

@<TRIPOS>MOLECULE
ASD01811563
  42   44    0    0    0
SMALL
NO_CHARGES


@<TRIPOS>ATOM
   1 C1            -0.1182     1.4621     0.2141 C.2     
   2 C2            -0.0471    -0.0094     0.1018 C.ar    
   3 C3             1.1207    -0.6207    -0.3620 C.ar    
   4 C4             1.1885    -1.9954    -0.4670 C.ar    
   5 C5             0.1044    -2.7755    -0.1149 C.ar    
   6 C6            -1.0687    -2.1776     0.3495 C.ar    
   7 C7            -1.1425    -0.7913     0.4636 C.ar    
   8 O8             0.8660     2.1369    -0.0130 O.2     
   9 O9            -1.2760     2.0558     0.5630 O.3     
  10 C10            0.1878    -4.2755    -0.2329 C.3     
  11 C11            2.3083     0.2225    -0.7489 C.3     
  12 C12           -2.2288    -3.0150     0.7252 C.2     
  13 N13           -3.4752    -2.5585     1.0369 N.pl3   
  14 C14           -4.2437    -3.6565     1.3223 C.2     
  15 C15           -3.4575    -4.7403     1.1798 C.2     
  16 N16           -2.2358    -4.3255     0.8099 N.2     
  17 C17           -4.2424    -5.9996     1.4816 C.3     
  18 C18           -5.7251    -5.5736     1.4093 C.3     
  19 C19           -5.6403    -4.0658     1.7331 C.3     
  20 O20           -6.2539    -5.7852     0.0987 O.3     
  21 C21           -6.8615    -7.0658    -0.0831 C.3     
  22 C22           -1.2725     3.5049     0.6539 C.3     
  23 H23            2.0932    -2.4631    -0.8264 H       
  24 H24           -2.0460    -0.3243     0.8269 H       
  25 H25            0.4469    -4.7023     0.7360 H       
  26 H26           -0.7757    -4.6686    -0.5572 H       
  27 H27            0.9527    -4.5406    -0.9629 H       
  28 H28            2.8807     0.4751     0.1436 H       
  29 H29            2.9402    -0.3353    -1.4400 H       
  30 H30            1.9629     1.1375    -1.2302 H       
  31 H31           -3.7632    -1.6323     1.0535 H       
  32 H32           -4.0314    -6.7654     0.7351 H       
  33 H33           -4.0017    -6.3659     2.4796 H       
  34 H34           -6.3186    -6.1000     2.1569 H       
  35 H35           -5.7855    -3.8990     2.8005 H       
  36 H36           -6.3821    -3.5120     1.1578 H       
  37 H37           -6.1229    -7.8471     0.0956 H       
  38 H38           -7.6875    -7.1791     0.6191 H       
  39 H39           -7.2378    -7.1479    -1.1029 H       
  40 H40           -0.5447     3.8204     1.4015 H       
  41 H41           -1.0060     3.9291    -0.3142 H       
  42 H42           -2.2642     3.8533     0.9425 H       
@<TRIPOS>BOND
   1    1    2 1
   2    1    8 2
   3    1    9 1
   4    2    3 ar
   5    2    7 ar
   6    3    4 ar
   7    3   11 1
   8    4    5 ar
   9    4   23 1
  10    5    6 ar
  11    5   10 1
  12    6    7 ar
  13    6   12 1
  14    7   24 1
  15    9   22 1
  16   10   25 1
  17   10   26 1
  18   10   27 1
  19   11   28 1
  20   11   29 1
  21   11   30 1
  22   12   13 1
  23   12   16 2
  24   13   14 1
  25   13   31 1
  26   14   15 2
  27   14   19 1
  28   15   16 1
  29   15   17 1
  30   17   18 1
  31   17   32 1
  32   17   33 1
  33   18   19 1
  34   18   20 1
  35   18   34 1
  36   19   35 1
  37   19   36 1
  38   20   21 1
  39   21   37 1
  40   21   38 1
  41   21   39 1
  42   22   40 1
  43   22   41 1
  44   22   42 1

#	End of record

