#	Name: ASD01918621
#	Creating user name:	WinNT
#	Creation time:	15. 06. 2019 20:11

#	Modifying user name:	WinNT
#	Modification time:	15. 06. 2019 20:11

#	Program:	/corina/corina34_cracker 3.40 0067  02.08.2006

@<TRIPOS>MOLECULE
ASD01918621
  40   43    0    0    0
SMALL
NO_CHARGES


@<TRIPOS>ATOM
   1 H1             0.0021    -0.0041     0.0020 H       
   2 C2            -0.0127     1.0858     0.0080 C.3     
   3 C3            -0.3019     1.7686    -1.3352 C.3     
   4 C4             0.7141     2.8490    -0.9355 C.3     
   5 C5             1.3591     1.8109    -0.0012 C.3     
   6 H6             2.2176     1.2643    -0.3917 H       
   7 N7             1.4683     2.2893     1.3915 N.am    
   8 C8             0.2407     2.2856     1.9355 C.2     
   9 O9            -0.0048     2.7593     3.0279 O.2     
  10 N10           -0.6854     1.6999     1.1655 N.am    
  11 C11           -2.1274     1.6898     1.4240 C.3     
  12 C12            2.6431     2.6778     2.0311 C.ar    
  13 C13            3.8309     2.7347     1.3082 C.ar    
  14 C14            4.9920     3.1209     1.9470 C.ar    
  15 C15            4.9266     3.4430     3.3109 C.ar    
  16 C16            3.6967     3.3615     3.9675 C.ar    
  17 N17            2.6124     2.9930     3.3172 N.ar    
  18 C18            6.1032     3.8487     4.0192 C.1     
  19 C19            7.0678     4.1814     4.5999 C.1     
  20 C20            8.2443     4.5871     5.3082 C.ar    
  21 C21            9.4702     4.6711     4.6423 C.ar    
  22 C22           10.5994     5.0623     5.3298 C.ar    
  23 C23           10.5207     5.3720     6.6786 C.ar    
  24 F24           11.6306     5.7552     7.3467 F       
  25 C25            9.3078     5.2907     7.3446 C.ar    
  26 C26            8.1703     4.9063     6.6668 C.ar    
  27 H27            0.0073     1.1789    -2.1982 H       
  28 H28           -1.3222     2.1421    -1.4223 H       
  29 H29            1.3631     3.1596    -1.7543 H       
  30 H30            0.2676     3.6914    -0.4071 H       
  31 H31           -2.3848     0.8090     2.0123 H       
  32 H32           -2.4040     2.5885     1.9752 H       
  33 H33           -2.6661     1.6642     0.4768 H       
  34 H34            3.8441     2.4792     0.2589 H       
  35 H35            5.9278     3.1734     1.4103 H       
  36 H36            3.6335     3.6065     5.0174 H       
  37 H37            9.5328     4.4297     3.5915 H       
  38 H38           11.5474     5.1273     4.8165 H       
  39 H39            9.2528     5.5329     8.3956 H       
  40 H40            7.2250     4.8476     7.1858 H       
@<TRIPOS>BOND
   1    1    2 1
   2    2    5 1
   3    2   10 1
   4    2    3 1
   5    3    4 1
   6    3   27 1
   7    3   28 1
   8    4    5 1
   9    4   29 1
  10    4   30 1
  11    5    6 1
  12    5    7 1
  13    7    8 am
  14    7   12 1
  15    8    9 2
  16    8   10 am
  17   10   11 1
  18   11   31 1
  19   11   32 1
  20   11   33 1
  21   12   17 ar
  22   12   13 ar
  23   13   14 ar
  24   13   34 1
  25   14   15 ar
  26   14   35 1
  27   15   16 ar
  28   15   18 1
  29   16   17 ar
  30   16   36 1
  31   18   19 3
  32   19   20 1
  33   20   26 ar
  34   20   21 ar
  35   21   22 ar
  36   21   37 1
  37   22   23 ar
  38   22   38 1
  39   23   24 1
  40   23   25 ar
  41   25   26 ar
  42   25   39 1
  43   26   40 1

#	End of record

