#	Name: ASD03090175
#	Creating user name:	WinNT
#	Creation time:	15. 06. 2019 20:28

#	Modifying user name:	WinNT
#	Modification time:	15. 06. 2019 20:28

#	Program:	/corina/corina34_cracker 3.40 0067  02.08.2006

@<TRIPOS>MOLECULE
ASD03090175
  44   46    0    0    0
SMALL
NO_CHARGES


@<TRIPOS>ATOM
   1 N1             0.0164     1.1655     1.2830 N.ar    
   2 C2             0.0729    -0.1578     1.2771 C.ar    
   3 C3             1.2687    -0.8157     1.0189 C.ar    
   4 C4             2.4144    -0.0595     0.7641 C.ar    
   5 C5             2.3043     1.3366     0.7809 C.ar    
   6 C6             1.0796     1.9109     1.0465 C.ar    
   7 C7             3.7112    -0.7160     0.4842 C.2     
   8 N8             5.7292    -3.4339    -0.4617 N.pl3   
   9 C9             4.8903    -4.4851    -0.8454 C.ar    
  10 C10            3.6846    -4.2160    -1.4797 C.ar    
  11 C11            2.8557    -5.2567    -1.8587 C.ar    
  12 C12            3.2280    -6.5677    -1.6052 C.ar    
  13 C13            4.4312    -6.8377    -0.9721 C.ar    
  14 C14            5.2649    -5.7992    -0.5976 C.ar    
  15 N15            3.8806    -1.9644     0.0976 N.2     
  16 C16            5.1811    -2.2142    -0.0601 C.2     
  17 N17            5.8632    -1.1282     0.2237 N.2     
  18 N18            4.9302    -0.1391     0.5745 N.pl3   
  19 C19            5.2208     1.2415     0.9690 C.3     
  20 C20            5.2675     2.1153    -0.2579 C.2     
  21 F21            4.7925    -8.1160    -0.7257 F       
  22 N22            5.5212     3.4335    -0.1371 N.am    
  23 F23            2.4172    -7.5831    -1.9750 F       
  24 O24            5.0768     1.6324    -1.3539 O.2     
  25 N25           -1.0771    -0.8964     1.5327 N.pl3   
  26 C26           -1.0235    -2.3604     1.5281 C.3     
  27 C27            5.5666     4.2830    -1.3298 C.3     
  28 F28            1.6827    -4.9952    -2.4758 F       
  29 H29            1.3115    -1.8948     1.0155 H       
  30 H30            3.1682     1.9556     0.5890 H       
  31 H31            0.9886     2.9869     1.0607 H       
  32 H32            6.6919    -3.5522    -0.4745 H       
  33 H33            3.3940    -3.1946    -1.6768 H       
  34 H34            6.2023    -6.0099    -0.1043 H       
  35 H35            4.4404     1.5995     1.6406 H       
  36 H36            6.1838     1.2787     1.4785 H       
  37 H37            5.6738     3.8197     0.7395 H       
  38 H38           -1.9148    -0.4423     1.7140 H       
  39 H39           -2.0133    -2.7609     1.7469 H       
  40 H40           -0.6991    -2.7090     0.5477 H       
  41 H41           -0.3181    -2.7005     2.2864 H       
  42 H42            5.7829     5.3102    -1.0363 H       
  43 H43            6.3470     3.9250    -2.0014 H       
  44 H44            4.6037     4.2457    -1.8392 H       
@<TRIPOS>BOND
   1    1    2 ar
   2    1    6 ar
   3    2    3 ar
   4    2   25 1
   5    3    4 ar
   6    3   29 1
   7    4    5 ar
   8    4    7 1
   9    5    6 ar
  10    5   30 1
  11    6   31 1
  12    7   15 2
  13    7   18 1
  14    8    9 1
  15    8   16 1
  16    8   32 1
  17    9   10 ar
  18    9   14 ar
  19   10   11 ar
  20   10   33 1
  21   11   12 ar
  22   11   28 1
  23   12   13 ar
  24   12   23 1
  25   13   14 ar
  26   13   21 1
  27   14   34 1
  28   15   16 1
  29   16   17 2
  30   17   18 1
  31   18   19 1
  32   19   20 1
  33   19   35 1
  34   19   36 1
  35   20   22 am
  36   20   24 2
  37   22   27 1
  38   22   37 1
  39   25   26 1
  40   25   38 1
  41   26   39 1
  42   26   40 1
  43   26   41 1
  44   27   42 1
  45   27   43 1
  46   27   44 1

#	End of record

