#	Name: ASD01940508
#	Creating user name:	WinNT
#	Creation time:	15. 06. 2019 20:12

#	Modifying user name:	WinNT
#	Modification time:	15. 06. 2019 20:12

#	Program:	/corina/corina34_cracker 3.40 0067  02.08.2006

@<TRIPOS>MOLECULE
ASD01940508
  59   62    0    0    0
SMALL
NO_CHARGES


@<TRIPOS>ATOM
   1 N1             1.2157     2.1122    -2.3821 N.am    
   2 N2             1.5597     0.8998    -2.9915 N.2     
   3 C3             2.3420     0.2191    -2.2048 C.2     
   4 C4             2.5517     0.9661    -1.0215 C.ar    
   5 C5             3.2917     0.7330     0.1516 C.ar    
   6 C6             3.2924     1.6996     1.1633 C.ar    
   7 C7             2.5598     2.8870     1.0019 C.ar    
   8 C8             1.8438     3.1122    -0.1324 C.ar    
   9 C9             1.8264     2.1634    -1.1584 C.ar    
  10 C10            4.0608     1.4718     2.3974 C.2     
  11 O11            4.7752     0.4922     2.4969 O.2     
  12 N12            3.9732     2.3483     3.4174 N.am    
  13 O13            4.7126     2.1291     4.6049 O.3     
  14 C14            4.5245     3.1362     5.6010 C.3     
  15 C15            5.3664     2.7985     6.8331 C.3     
  16 O16            6.7532     2.8575     6.4931 O.3     
  17 C17            7.6417     2.5822     7.4807 C.2     
  18 C18            8.9346     2.6193     7.2324 C.2     
  19 S19            0.2437     3.2848    -3.0323 S.o2    
  20 O20            0.5964     4.5012    -2.3879 O.2     
  21 O21            0.2916     3.1096    -4.4416 O.2     
  22 C22           -4.0035     2.3554    -1.7720 C.ar    
  23 C23           -1.4095     2.9230    -2.5417 C.ar    
  24 C24           -3.2090     3.1638    -0.9808 C.ar    
  25 C25           -3.5010     1.8308    -2.9481 C.ar    
  26 C26           -1.9119     3.4476    -1.3657 C.ar    
  27 C27           -2.2040     2.1146    -3.3330 C.ar    
  28 C28           -5.4154     2.0410    -1.3494 C.3     
  29 N29            4.0111    -0.4399     0.3038 N.pl3   
  30 C30            3.4436    -1.5259     0.9787 C.ar    
  31 C31            4.1157    -2.7430     1.0308 C.ar    
  32 C32            3.5516    -3.8135     1.6991 C.ar    
  33 C33            2.3204    -3.6746     2.3154 C.ar    
  34 C34            1.6505    -2.4659     2.2644 C.ar    
  35 C35            2.2112    -1.3900     1.6029 C.ar    
  36 I36            1.4690    -5.2995     3.3273 I       
  37 F37            5.3175    -2.8785     0.4287 F       
  38 H38            2.7607    -0.7531    -2.4191 H       
  39 H39            2.5647     3.6289     1.7868 H       
  40 H40            1.2850     4.0300    -0.2409 H       
  41 H41            3.4035     3.1294     3.3380 H       
  42 H42            4.8338     4.1028     5.2034 H       
  43 H43            3.4718     3.1784     5.8808 H       
  44 H44            5.1557     3.5170     7.6252 H       
  45 H45            5.1193     1.7945     7.1780 H       
  46 H46            7.2888     2.3327     8.4704 H       
  47 H47            9.6419     2.4002     8.0186 H       
  48 H48            9.2875     2.8688     6.2427 H       
  49 H49           -3.6017     3.5740    -0.0621 H       
  50 H50           -4.1217     1.1989    -3.5661 H       
  51 H51           -1.2913     4.0795    -0.7477 H       
  52 H52           -1.8115     1.7050    -4.2520 H       
  53 H53           -6.0922     2.7928    -1.7553 H       
  54 H54           -5.6969     1.0575    -1.7258 H       
  55 H55           -5.4784     2.0451    -0.2612 H       
  56 H56            4.9086    -0.5088    -0.0575 H       
  57 H57            4.0720    -4.7590     1.7401 H       
  58 H58            0.6896    -2.3613     2.7463 H       
  59 H59            1.6889    -0.4454     1.5678 H       
@<TRIPOS>BOND
   1    1    2 1
   2    1    9 1
   3    1   19 am
   4    2    3 2
   5    3    4 1
   6    3   38 1
   7    4    5 ar
   8    4    9 ar
   9    5    6 ar
  10    5   29 1
  11    6    7 ar
  12    6   10 1
  13    7    8 ar
  14    7   39 1
  15    8    9 ar
  16    8   40 1
  17   10   11 2
  18   10   12 am
  19   12   13 1
  20   12   41 1
  21   13   14 1
  22   14   15 1
  23   14   42 1
  24   14   43 1
  25   15   16 1
  26   15   44 1
  27   15   45 1
  28   16   17 1
  29   17   18 2
  30   17   46 1
  31   18   47 1
  32   18   48 1
  33   19   20 2
  34   19   21 2
  35   19   23 1
  36   22   24 ar
  37   22   25 ar
  38   22   28 1
  39   23   26 ar
  40   23   27 ar
  41   24   26 ar
  42   24   49 1
  43   25   27 ar
  44   25   50 1
  45   26   51 1
  46   27   52 1
  47   28   53 1
  48   28   54 1
  49   28   55 1
  50   29   30 1
  51   29   56 1
  52   30   31 ar
  53   30   35 ar
  54   31   32 ar
  55   31   37 1
  56   32   33 ar
  57   32   57 1
  58   33   34 ar
  59   33   36 1
  60   34   35 ar
  61   34   58 1
  62   35   59 1

#	End of record

