#	Name: ASD01001011
#	Creating user name:	WinNT
#	Creation time:	15. 06. 2019 18:54

#	Modifying user name:	WinNT
#	Modification time:	15. 06. 2019 18:54

#	Program:	/corina/corina34_cracker 3.40 0067  02.08.2006

@<TRIPOS>MOLECULE
ASD01001011
  61   64    0    0    0
SMALL
NO_CHARGES


@<TRIPOS>ATOM
   1 C1             1.4554     0.8606     2.1945 C.ar    
   2 C2             1.6455    -0.4138     1.6940 C.ar    
   3 C3             0.6333     1.7496     1.5276 C.ar    
   4 C4             1.0136    -0.7993     0.5266 C.ar    
   5 C5             0.0013     1.3641     0.3601 C.ar    
   6 C6             0.1911     0.0895    -0.1401 C.ar    
   7 C7             1.2216    -2.1884    -0.0196 C.3     
   8 C8             0.6505    -2.2716    -1.4117 C.ar    
   9 C9             2.6964    -2.4956    -0.0625 C.ar    
  10 S10            0.3845    -3.3905     1.0503 S.3     
  11 C11            1.0704    -1.3845    -2.3852 C.ar    
  12 C12           -0.2892    -3.2385    -1.7166 C.ar    
  13 C13            3.1321    -3.8021     0.0668 C.ar    
  14 C14            3.6089    -1.4707    -0.2367 C.ar    
  15 C15            0.5465    -1.4608    -3.6621 C.ar    
  16 C16           -0.8131    -3.3148    -2.9935 C.ar    
  17 C17            4.4814    -4.0893     0.0283 C.ar    
  18 C18            4.9606    -1.7462    -0.2773 C.ar    
  19 C19           -0.3971    -2.4244    -3.9656 C.ar    
  20 C20            5.4056    -3.0600    -0.1418 C.ar    
  21 C21           -1.3118    -2.7528     1.1314 C.3     
  22 C22           -2.1290    -3.5999     2.1089 C.3     
  23 N23           -1.5885    -3.4402     3.4655 N.3     
  24 C24            6.8571    -3.3625    -0.1845 C.ar    
  25 C25            7.3004    -4.6774    -0.0488 C.ar    
  26 C26            8.6495    -4.9565    -0.0887 C.ar    
  27 C27            9.5686    -3.9273    -0.2638 C.ar    
  28 C28            9.1282    -2.6150    -0.3993 C.ar    
  29 C29            7.7796    -2.3328    -0.3661 C.ar    
  30 C30           -3.5666    -3.1485     2.0845 C.2     
  31 O31           -3.9852    -2.4179     2.9511 O.2     
  32 O32           -4.3821    -3.5581     1.1002 O.3     
  33 S33           11.2929    -4.2864    -0.3133 S.3     
  34 C34           12.0433    -2.6524    -0.5529 C.3     
  35 H35            1.9456     1.1603     3.1090 H       
  36 H36            2.2881    -1.1082     2.2149 H       
  37 H37            0.4845     2.7452     1.9188 H       
  38 H38           -0.6415     2.0584    -0.1605 H       
  39 H39           -0.3021    -0.2115    -1.0526 H       
  40 H40            1.8076    -0.6317    -2.1480 H       
  41 H41           -0.6137    -3.9345    -0.9572 H       
  42 H42            2.4150    -4.5988     0.1985 H       
  43 H43            3.2629    -0.4530    -0.3416 H       
  44 H44            0.8740    -0.7674    -4.4225 H       
  45 H45           -1.5470    -4.0705    -3.2318 H       
  46 H46            4.8205    -5.1096     0.1300 H       
  47 H47            5.6722    -0.9452    -0.4130 H       
  48 H48           -0.8067    -2.4838    -4.9632 H       
  49 H49           -1.2950    -1.7180     1.4735 H       
  50 H50           -1.7657    -2.8008     0.1416 H       
  51 H51           -2.0724    -4.6484     1.8163 H       
  52 H52           -0.6461    -3.7959     3.5234 H       
  53 H53           -1.6299    -2.4761     3.7601 H       
  54 H54            6.5871    -5.4767     0.0879 H       
  55 H55            8.9932    -5.9749     0.0164 H       
  56 H56            9.8433    -1.8171    -0.5352 H       
  57 H57            7.4380    -1.3137    -0.4718 H       
  58 H58           -5.2956    -3.2423     1.1269 H       
  59 H59           11.6789    -2.2182    -1.4840 H       
  60 H60           11.7743    -2.0033     0.2804 H       
  61 H61           13.1276    -2.7538    -0.5992 H       
@<TRIPOS>BOND
   1    1    2 ar
   2    1    3 ar
   3    1   35 1
   4    2    4 ar
   5    2   36 1
   6    3    5 ar
   7    3   37 1
   8    4    6 ar
   9    4    7 1
  10    5    6 ar
  11    5   38 1
  12    6   39 1
  13    7    8 1
  14    7    9 1
  15    7   10 1
  16    8   11 ar
  17    8   12 ar
  18    9   13 ar
  19    9   14 ar
  20   10   21 1
  21   11   15 ar
  22   11   40 1
  23   12   16 ar
  24   12   41 1
  25   13   17 ar
  26   13   42 1
  27   14   18 ar
  28   14   43 1
  29   15   19 ar
  30   15   44 1
  31   16   19 ar
  32   16   45 1
  33   17   20 ar
  34   17   46 1
  35   18   20 ar
  36   18   47 1
  37   19   48 1
  38   20   24 1
  39   21   22 1
  40   21   49 1
  41   21   50 1
  42   22   23 1
  43   22   30 1
  44   22   51 1
  45   23   52 1
  46   23   53 1
  47   24   25 ar
  48   24   29 ar
  49   25   26 ar
  50   25   54 1
  51   26   27 ar
  52   26   55 1
  53   27   28 ar
  54   27   33 1
  55   28   29 ar
  56   28   56 1
  57   29   57 1
  58   30   31 2
  59   30   32 1
  60   32   58 1
  61   33   34 1
  62   34   59 1
  63   34   60 1
  64   34   61 1

#	End of record

