#	Name: ASD01885175
#	Creating user name:	WinNT
#	Creation time:	15. 06. 2019 19:49

#	Modifying user name:	WinNT
#	Modification time:	15. 06. 2019 19:49

#	Program:	/corina/corina34_cracker 3.40 0067  02.08.2006

@<TRIPOS>MOLECULE
ASD01885175
  51   55    0    0    0
SMALL
NO_CHARGES


@<TRIPOS>ATOM
   1 C1            -0.1486     1.2658     0.0162 C.2     
   2 C2             1.3930    -0.4795     0.5464 C.2     
   3 C3             2.3829     0.2197    -0.1652 C.2     
   4 C4             2.0942     1.3979    -0.7566 C.2     
   5 N5             0.8395     1.9259    -0.6722 N.pl3   
   6 C6             0.2643     3.0622    -1.1510 C.2     
   7 N7            -0.9852     3.0638    -0.7643 N.2     
   8 N8            -1.2414     2.0055    -0.0785 N.2     
   9 C9             0.9432     4.1253    -1.9757 C.3     
  10 C10            1.7213    -1.7948     1.2047 C.3     
  11 C11            0.7996     3.7878    -3.4610 C.3     
  12 N12            2.2834    -1.5475     2.5392 N.3     
  13 C13            0.1374     0.0354     0.6386 C.2     
  14 C14           -0.9350    -0.7020     1.3984 C.3     
  15 C15            1.3230     4.8104    -4.4717 C.3     
  16 C16            2.0802     3.5000    -4.2471 C.3     
  17 F17           -0.5054    -0.9278     2.7105 F       
  18 F18           -2.1050     0.0649     1.4163 F       
  19 F19           -1.1902    -1.9275     0.7738 F       
  20 C20            2.2666    -2.7757     3.3556 C.3     
  21 C21            3.7547    -1.6475     2.5198 C.3     
  22 C22            3.6661    -2.3943     3.8581 C.3     
  23 N23            3.6637    -1.5202     5.0338 N.pl3   
  24 C24            4.7625    -1.5088     5.8988 C.ar    
  25 C25            5.8564    -2.3251     5.6450 C.ar    
  26 C26            6.9404    -2.3117     6.5013 C.ar    
  27 C27            6.9377    -1.4866     7.6109 C.ar    
  28 C28            5.8504    -0.6719     7.8684 C.ar    
  29 C29            4.7644    -0.6755     7.0122 C.ar    
  30 F30            3.7048     0.1251     7.2601 F       
  31 H31            3.3803    -0.1879    -0.2389 H       
  32 H32            2.8627     1.9270    -1.3006 H       
  33 H33            0.4794     5.0913    -1.7761 H       
  34 H34            2.0003     4.1687    -1.7135 H       
  35 H35            0.8137    -2.3912     1.2975 H       
  36 H36            2.4494    -2.3331     0.5978 H       
  37 H37           -0.0943     3.2254    -3.7311 H       
  38 H38            0.7738     4.9204    -5.4067 H       
  39 H39            1.7697     5.7235    -4.0783 H       
  40 H40            3.0251     3.5510    -3.7061 H       
  41 H41            2.0291     2.7479    -5.0345 H       
  42 H42            1.5072    -2.7669     4.1374 H       
  43 H43            2.2523    -3.6906     2.7633 H       
  44 H44            4.1375    -2.2614     1.7045 H       
  45 H45            4.2565    -0.6826     2.5933 H       
  46 H46            4.3534    -3.2357     3.9460 H       
  47 H47            2.9000    -0.9494     5.2122 H       
  48 H48            5.8598    -2.9704     4.7790 H       
  49 H49            7.7912    -2.9470     6.3040 H       
  50 H50            7.7868    -1.4786     8.2783 H       
  51 H51            5.8513    -0.0289     8.7361 H       
@<TRIPOS>BOND
   1    1   13 1
   2    1    5 1
   3    1    8 2
   4    2    3 1
   5    2   10 1
   6    2   13 2
   7    3    4 2
   8    3   31 1
   9    4    5 1
  10    4   32 1
  11    5    6 1
  12    6    7 2
  13    6    9 1
  14    7    8 1
  15    9   11 1
  16    9   33 1
  17    9   34 1
  18   10   12 1
  19   10   35 1
  20   10   36 1
  21   11   15 1
  22   11   16 1
  23   11   37 1
  24   12   20 1
  25   12   21 1
  26   13   14 1
  27   14   17 1
  28   14   18 1
  29   14   19 1
  30   15   16 1
  31   15   38 1
  32   15   39 1
  33   16   40 1
  34   16   41 1
  35   20   22 1
  36   20   42 1
  37   20   43 1
  38   21   22 1
  39   21   44 1
  40   21   45 1
  41   22   23 1
  42   22   46 1
  43   23   24 1
  44   23   47 1
  45   24   25 ar
  46   24   29 ar
  47   25   26 ar
  48   25   48 1
  49   26   27 ar
  50   26   49 1
  51   27   28 ar
  52   27   50 1
  53   28   29 ar
  54   28   51 1
  55   29   30 1

#	End of record

