#	Name: ASD00841979
#	Creating user name:	WinNT
#	Creation time:	15. 06. 2019 18:43

#	Modifying user name:	WinNT
#	Modification time:	15. 06. 2019 18:43

#	Program:	/corina/corina34_cracker 3.40 0067  02.08.2006

@<TRIPOS>MOLECULE
ASD00841979
  99  104    0    0    0
SMALL
NO_CHARGES


@<TRIPOS>ATOM
   1 C1             0.9691     1.5443    -0.3533 C.ar    
   2 C2             1.2836     0.2178    -0.6094 C.ar    
   3 C3             1.2321    -0.7154     0.4161 C.ar    
   4 C4             0.8680    -0.3217     1.6889 C.ar    
   5 C5             0.5545     1.0013     1.9416 C.ar    
   6 C6             0.6054     1.9331     0.9217 C.ar    
   7 C7             1.5727    -2.1575     0.1413 C.3     
   8 C8             1.3225    -3.0054     1.3702 C.2     
   9 C9             0.7624    -2.6816    -1.0460 C.3     
  10 C10           -0.7064    -2.4679    -0.7853 C.2     
  11 N11           -1.6213    -2.9485    -1.6504 N.am    
  12 O12           -1.0651    -1.8634     0.2030 O.2     
  13 C13           -3.0520    -2.6555    -1.4761 C.3     
  14 C14           -3.6032    -2.1157    -2.8001 C.3     
  15 N15           -3.2899    -3.0617    -3.8793 N.3     
  16 C16           -1.8390    -3.1957    -4.0659 C.3     
  17 C17           -1.2149    -3.7747    -2.7973 C.3     
  18 C18           -3.9477    -2.6677    -5.1323 C.3     
  19 C19           -3.5006    -3.6013    -6.2605 C.3     
  20 C20           -4.2351    -3.2244    -7.5492 C.3     
  21 N21           -5.6840    -3.3391    -7.3398 N.3     
  22 C22           -6.1439    -2.4174    -6.2933 C.3     
  23 C23           -5.4665    -2.7702    -4.9671 C.3     
  24 C24           -6.4162    -3.1191    -8.5941 C.3     
  25 O25            0.2577    -3.1695     1.9271 O.2     
  26 N26            2.5007    -3.5424     1.7278 N.am    
  27 C27            3.0546    -2.3125    -0.1150 C.ar    
  28 C28            3.5366    -3.1585     0.8809 C.ar    
  29 C29            3.8917    -1.7997    -1.0733 C.ar    
  30 C30            5.2522    -2.1273    -1.0566 C.ar    
  31 C31            5.7438    -2.9771    -0.0585 C.ar    
  32 C32            4.8923    -3.4869     0.8981 C.ar    
  33 F33            7.0556    -3.2994    -0.0337 F       
  34 C34            2.4522    -6.1956     2.4578 C.ar    
  35 C35            1.2068    -6.5876     1.9882 C.ar    
  36 C36            3.5011    -7.0953     2.4724 C.ar    
  37 C37            3.3127    -8.3868     2.0193 C.ar    
  38 C38            2.0689    -8.7838     1.5486 C.ar    
  39 C39            1.0152    -7.8833     1.5333 C.ar    
  40 O40            1.8841   -10.0544     1.1034 O.3     
  41 O41            0.1757    -5.7025     1.9745 O.3     
  42 C42           -1.0781    -6.1748     1.4776 C.3     
  43 C43            3.0137   -10.9284     1.1486 C.3     
  44 C44           -7.9081    -3.3686    -8.3643 C.3     
  45 C45           -6.2063    -1.6772    -9.0610 C.3     
  46 O46            1.6412    -0.1672    -1.8627 O.3     
  47 C47            2.0969     0.2367    -4.2015 C.3     
  48 C48            1.5637     0.8212    -2.8919 C.3     
  49 C49            6.1343    -1.5977    -2.0527 C.1     
  50 N50            6.8340    -1.1777    -2.8429 N.1     
  51 S51            2.6985    -4.5471     3.0293 S.o2    
  52 O52            4.0657    -4.4527     3.4049 O.2     
  53 O53            1.6268    -4.2666     3.9193 O.2     
  54 H54            1.0128     2.2734    -1.1489 H       
  55 H55            0.8278    -1.0477     2.4875 H       
  56 H56            0.2693     1.3070     2.9374 H       
  57 H57            0.3601     2.9657     1.1215 H       
  58 H58            1.0529    -2.1452    -1.9493 H       
  59 H59            0.9570    -3.7461    -1.1771 H       
  60 H60           -3.5821    -3.5682    -1.2037 H       
  61 H61           -3.1799    -1.9072    -0.6939 H       
  62 H62           -4.6840    -1.9971    -2.7227 H       
  63 H63           -3.1457    -1.1507    -3.0180 H       
  64 H64           -1.6402    -3.8603    -4.9067 H       
  65 H65           -1.4060    -2.2156    -4.2663 H       
  66 H66           -0.1287    -3.7690    -2.8881 H       
  67 H67           -1.5673    -4.7954    -2.6488 H       
  68 H68           -3.6757    -1.6415    -5.3794 H       
  69 H69           -2.4258    -3.5010    -6.4116 H       
  70 H70           -3.7368    -4.6318    -5.9952 H       
  71 H71           -3.9876    -2.1983    -7.8214 H       
  72 H72           -3.9296    -3.8965    -8.3511 H       
  73 H73           -5.8875    -1.3951    -6.5714 H       
  74 H74           -7.2249    -2.5033    -6.1830 H       
  75 H75           -5.7336    -3.7877    -4.6814 H       
  76 H76           -5.7962    -2.0761    -4.1941 H       
  77 H77           -6.0462    -3.8052    -9.3560 H       
  78 H78            3.5017    -1.1453    -1.8389 H       
  79 H79            5.2768    -4.1422     1.6657 H       
  80 H80            4.4697    -6.7883     2.8384 H       
  81 H81            4.1341    -9.0879     2.0311 H       
  82 H82            0.0464    -8.1905     1.1677 H       
  83 H83           -1.8126    -5.3706     1.5216 H       
  84 H84           -0.9595    -6.5023     0.4447 H       
  85 H85           -1.4186    -7.0117     2.0873 H       
  86 H86            2.7302   -11.9087     0.7657 H       
  87 H87            3.8160   -10.5171     0.5359 H       
  88 H88            3.3567   -11.0259     2.1786 H       
  89 H89           -8.4514    -3.2053    -9.2950 H       
  90 H90           -8.0577    -4.3958    -8.0317 H       
  91 H91           -8.2781    -2.6825    -7.6024 H       
  92 H92           -5.1434    -1.4994    -9.2247 H       
  93 H93           -6.7496    -1.5139    -9.9917 H       
  94 H94           -6.5763    -0.9911    -8.2991 H       
  95 H95            1.4462    -0.5740    -4.5291 H       
  96 H96            2.1196     1.0151    -4.9641 H       
  97 H97            3.1048    -0.1474    -4.0442 H       
  98 H98            0.5257     1.1256    -3.0259 H       
  99 H99            2.1628     1.6870    -2.6099 H       
@<TRIPOS>BOND
   1    1    2 ar
   2    1    6 ar
   3    1   54 1
   4    2    3 ar
   5    2   46 1
   6    3    4 ar
   7    3    7 1
   8    4    5 ar
   9    4   55 1
  10    5    6 ar
  11    5   56 1
  12    6   57 1
  13    7    8 1
  14    7    9 1
  15    7   27 1
  16    8   25 2
  17    8   26 am
  18    9   10 1
  19    9   58 1
  20    9   59 1
  21   10   11 am
  22   10   12 2
  23   11   13 1
  24   11   17 1
  25   13   14 1
  26   13   60 1
  27   13   61 1
  28   14   15 1
  29   14   62 1
  30   14   63 1
  31   15   16 1
  32   15   18 1
  33   16   17 1
  34   16   64 1
  35   16   65 1
  36   17   66 1
  37   17   67 1
  38   18   19 1
  39   18   23 1
  40   18   68 1
  41   19   20 1
  42   19   69 1
  43   19   70 1
  44   20   21 1
  45   20   71 1
  46   20   72 1
  47   21   22 1
  48   21   24 1
  49   22   23 1
  50   22   73 1
  51   22   74 1
  52   23   75 1
  53   23   76 1
  54   24   44 1
  55   24   45 1
  56   24   77 1
  57   26   51 am
  58   26   28 1
  59   27   28 ar
  60   27   29 ar
  61   28   32 ar
  62   29   30 ar
  63   29   78 1
  64   30   31 ar
  65   30   49 1
  66   31   32 ar
  67   31   33 1
  68   32   79 1
  69   34   35 ar
  70   34   36 ar
  71   34   51 1
  72   35   41 1
  73   35   39 ar
  74   36   37 ar
  75   36   80 1
  76   37   38 ar
  77   37   81 1
  78   38   39 ar
  79   38   40 1
  80   39   82 1
  81   40   43 1
  82   41   42 1
  83   42   83 1
  84   42   84 1
  85   42   85 1
  86   43   86 1
  87   43   87 1
  88   43   88 1
  89   44   89 1
  90   44   90 1
  91   44   91 1
  92   45   92 1
  93   45   93 1
  94   45   94 1
  95   46   48 1
  96   47   48 1
  97   47   95 1
  98   47   96 1
  99   47   97 1
 100   48   98 1
 101   48   99 1
 102   49   50 3
 103   51   52 2
 104   51   53 2

#	End of record

