#	Name: ASD01410622
#	Creating user name:	WinNT
#	Creation time:	15. 06. 2019 19:18

#	Modifying user name:	WinNT
#	Modification time:	15. 06. 2019 19:18

#	Program:	/corina/corina34_cracker 3.40 0067  02.08.2006

@<TRIPOS>MOLECULE
ASD01410622
  55   56    0    0    0
SMALL
NO_CHARGES


@<TRIPOS>ATOM
   1 S1            -1.4725     1.0409     0.2605 S.3     
   2 C2            -0.9689    -0.6246     0.0080 C.2     
   3 C3             0.3923    -0.7267     0.1772 C.2     
   4 C4             1.0158     0.4563     0.4929 C.2     
   5 C5             0.1832     1.5338     0.5859 C.2     
   6 C6             0.5970     2.8679     0.9013 C.1     
   7 C7             0.9363     3.9617     1.1598 C.1     
   8 C8             1.3616     5.3331     1.4840 C.3     
   9 C9             2.8761     5.3598     1.6996 C.3     
  10 C10            0.9944     6.2674     0.3293 C.3     
  11 C11           -1.8318    -1.6959    -0.3189 C.2     
  12 N12            1.0826    -1.9318     0.0405 N.am    
  13 O13           -3.1563    -1.4767    -0.4604 O.3     
  14 O14           -1.3803    -2.8158    -0.4726 O.2     
  15 C15            1.3563    -2.7571     1.2196 C.3     
  16 C16            1.4974    -2.3365    -1.1763 C.2     
  17 C17            1.1108    -1.5521    -2.4036 C.3     
  18 O18            2.1819    -3.3320    -1.2836 O.2     
  19 C19            0.8199    -4.1711     0.9881 C.3     
  20 C20            2.8660    -2.8174     1.4606 C.3     
  21 C21            1.1482    -2.4692    -3.6277 C.3     
  22 C22            0.7556    -1.6728    -4.8737 C.3     
  23 C23            1.7393    -0.5177    -5.0716 C.3     
  24 C24            1.7020     0.3993    -3.8475 C.3     
  25 C25            2.0945    -0.3971    -2.6015 C.3     
  26 C26            1.3468     0.2787    -6.3176 C.3     
  27 H27            2.0812     0.5279     0.6550 H       
  28 H28            0.8593     5.6640     2.3930 H       
  29 H29            3.3784     5.0289     0.7906 H       
  30 H30            3.1911     6.3753     1.9396 H       
  31 H31            3.1378     4.6942     2.5222 H       
  32 H32            1.4967     5.9364    -0.5797 H       
  33 H33           -0.0846     6.2484     0.1757 H       
  34 H34            1.3094     7.2829     0.5694 H       
  35 H35           -3.6643    -2.2686    -0.6840 H       
  36 H36            0.8666    -2.3207     2.0901 H       
  37 H37            0.1038    -1.1543    -2.2782 H       
  38 H38            1.3612    -4.6346     0.1634 H       
  39 H39            0.9575    -4.7645     1.8921 H       
  40 H40           -0.2413    -4.1217     0.7440 H       
  41 H41            3.2411    -1.8153     1.6687 H       
  42 H42            3.0725    -3.4666     2.3115 H       
  43 H43            3.3600    -3.2133     0.5733 H       
  44 H44            2.1552    -2.8670    -3.7531 H       
  45 H45            0.4474    -3.2920    -3.4868 H       
  46 H46            0.7822    -2.3261    -5.7458 H       
  47 H47           -0.2514    -1.2749    -4.7484 H       
  48 H48            2.7464    -0.9156    -5.1970 H       
  49 H49            2.4028     1.2222    -3.9884 H       
  50 H50            0.6950     0.7972    -3.7221 H       
  51 H51            2.0679     0.2563    -1.7294 H       
  52 H52            3.1015    -0.7949    -2.7268 H       
  53 H53            0.3398     0.6765    -6.1923 H       
  54 H54            2.0476     1.1015    -6.4586 H       
  55 H55            1.3734    -0.3747    -7.1897 H       
@<TRIPOS>BOND
   1    1    2 1
   2    1    5 1
   3    2    3 2
   4    2   11 1
   5    3    4 1
   6    3   12 1
   7    4    5 2
   8    4   27 1
   9    5    6 1
  10    6    7 3
  11    7    8 1
  12    8    9 1
  13    8   10 1
  14    8   28 1
  15    9   29 1
  16    9   30 1
  17    9   31 1
  18   10   32 1
  19   10   33 1
  20   10   34 1
  21   11   13 1
  22   11   14 2
  23   12   15 1
  24   12   16 am
  25   13   35 1
  26   15   19 1
  27   15   20 1
  28   15   36 1
  29   16   18 2
  30   16   17 1
  31   17   21 1
  32   17   25 1
  33   17   37 1
  34   19   38 1
  35   19   39 1
  36   19   40 1
  37   20   41 1
  38   20   42 1
  39   20   43 1
  40   21   22 1
  41   21   44 1
  42   21   45 1
  43   22   23 1
  44   22   46 1
  45   22   47 1
  46   23   24 1
  47   23   26 1
  48   23   48 1
  49   24   25 1
  50   24   49 1
  51   24   50 1
  52   25   51 1
  53   25   52 1
  54   26   53 1
  55   26   54 1
  56   26   55 1

#	End of record

