#	Name: ASD01914929
#	Creating user name:	WinNT
#	Creation time:	15. 06. 2019 20:04

#	Modifying user name:	WinNT
#	Modification time:	15. 06. 2019 20:04

#	Program:	/corina/corina34_cracker 3.40 0067  02.08.2006

@<TRIPOS>MOLECULE
ASD01914929
  62   66    0    0    0
SMALL
NO_CHARGES


@<TRIPOS>ATOM
   1 C1            -0.0036     1.3306    -0.0210 C.2     
   2 N2             0.0142     0.0585     0.3181 N.2     
   3 C3             1.3076     1.7203    -0.3419 C.2     
   4 C4             2.1160     0.6330    -0.1828 C.2     
   5 N5             1.3324    -0.4057     0.2256 N.pl3   
   6 C6            -1.2044     2.2022    -0.0632 C.ar    
   7 C7            -2.4539     1.6877     0.2755 C.ar    
   8 C8            -3.5672     2.5026     0.2345 C.ar    
   9 C9            -3.4439     3.8277    -0.1425 C.ar    
  10 C10           -2.2057     4.3436    -0.4798 C.ar    
  11 C11           -1.0849     3.5392    -0.4362 C.ar    
  12 C12            3.5774     0.5887    -0.4118 C.ar    
  13 C13            4.1829     1.5215    -1.2540 C.ar    
  14 C14            5.5459     1.4749    -1.4635 C.ar    
  15 C15            6.3117     0.5059    -0.8403 C.ar    
  16 C16            5.7171    -0.4223    -0.0043 C.ar    
  17 C17            4.3559    -0.3824     0.2181 C.ar    
  18 C18            1.7890    -1.7669     0.5168 C.3     
  19 C19            2.0673    -1.8986     1.9920 C.2     
  20 N20            2.5014    -3.0718     2.4938 N.am    
  21 O21            1.9007    -0.9490     2.7277 O.2     
  22 C22            2.7770    -3.2156     3.9297 C.3     
  23 C23            4.2007    -3.7527     4.1072 C.3     
  24 C24            4.3574    -5.0462     3.3044 C.3     
  25 C25            4.1320    -4.7569     1.8186 C.3     
  26 C26            2.7022    -4.2329     1.6161 C.3     
  27 N27            5.7078    -5.5803     3.4983 N.pl3   
  28 C28            5.9481    -6.9397     3.3325 C.ar    
  29 C29            4.9113    -7.7937     2.9833 C.ar    
  30 C30            5.1527    -9.1444     2.8186 C.ar    
  31 C31            6.4285    -9.6564     3.0005 C.ar    
  32 C32            7.4696    -8.8232     3.3477 C.ar    
  33 C33            7.2423    -7.4545     3.5117 C.ar    
  34 C34            8.3202    -6.5835     3.8725 C.1     
  35 Cl35           3.8509   -10.2066     2.3818 Cl      
  36 N36            9.1753    -5.8926     4.1587 N.1     
  37 H37            1.6197     2.7046    -0.6583 H       
  38 H38           -2.5514     0.6530     0.5693 H       
  39 H39           -4.5364     2.1047     0.4969 H       
  40 H40           -4.3177     4.4617    -0.1739 H       
  41 H41           -2.1150     5.3790    -0.7734 H       
  42 H42           -0.1185     3.9431    -0.6995 H       
  43 H43            3.5861     2.2783    -1.7413 H       
  44 H44            6.0159     2.1963    -2.1155 H       
  45 H45            7.3782     0.4735    -1.0075 H       
  46 H46            6.3202    -1.1768     0.4787 H       
  47 H47            3.8928    -1.1073     0.8712 H       
  48 H48            1.0160    -2.4790     0.2279 H       
  49 H49            2.7004    -1.9723    -0.0447 H       
  50 H50            2.6892    -2.2449     4.4177 H       
  51 H51            2.0655    -3.9140     4.3702 H       
  52 H52            4.9160    -3.0127     3.7482 H       
  53 H53            4.3844    -3.9548     5.1624 H       
  54 H54            3.6253    -5.7773     3.6472 H       
  55 H55            4.8480    -4.0075     1.4811 H       
  56 H56            4.2668    -5.6739     1.2449 H       
  57 H57            1.9869    -5.0159     1.8678 H       
  58 H58            2.5670    -3.9319     0.5773 H       
  59 H59            6.4342    -4.9856     3.7423 H       
  60 H60            3.9148    -7.4024     2.8406 H       
  61 H61            6.6070   -10.7135     2.8698 H       
  62 H62            8.4612    -9.2272     3.4889 H       
@<TRIPOS>BOND
   1    1    2 2
   2    1    3 1
   3    1    6 1
   4    2    5 1
   5    3    4 2
   6    3   37 1
   7    4    5 1
   8    4   12 1
   9    5   18 1
  10    6    7 ar
  11    6   11 ar
  12    7    8 ar
  13    7   38 1
  14    8    9 ar
  15    8   39 1
  16    9   10 ar
  17    9   40 1
  18   10   11 ar
  19   10   41 1
  20   11   42 1
  21   12   13 ar
  22   12   17 ar
  23   13   14 ar
  24   13   43 1
  25   14   15 ar
  26   14   44 1
  27   15   16 ar
  28   15   45 1
  29   16   17 ar
  30   16   46 1
  31   17   47 1
  32   18   19 1
  33   18   48 1
  34   18   49 1
  35   19   20 am
  36   19   21 2
  37   20   22 1
  38   20   26 1
  39   22   23 1
  40   22   50 1
  41   22   51 1
  42   23   24 1
  43   23   52 1
  44   23   53 1
  45   24   25 1
  46   24   27 1
  47   24   54 1
  48   25   26 1
  49   25   55 1
  50   25   56 1
  51   26   57 1
  52   26   58 1
  53   27   28 1
  54   27   59 1
  55   28   29 ar
  56   28   33 ar
  57   29   30 ar
  58   29   60 1
  59   30   31 ar
  60   30   35 1
  61   31   32 ar
  62   31   61 1
  63   32   33 ar
  64   32   62 1
  65   33   34 1
  66   34   36 3

#	End of record

