#	Name: ASD01148836
#	Creating user name:	WinNT
#	Creation time:	15. 06. 2019 19:03

#	Modifying user name:	WinNT
#	Modification time:	15. 06. 2019 19:03

#	Program:	/corina/corina34_cracker 3.40 0067  02.08.2006

@<TRIPOS>MOLECULE
ASD01148836
  41   42    0    0    0
SMALL
NO_CHARGES


@<TRIPOS>ATOM
   1 Na1            0.0000     0.0000     0.0000 Du      
   2 N2            10.7745     9.0352     6.7538 N.pl3   
   3 C3            10.7924     7.7007     6.5612 C.2     
   4 C4            12.1098     7.2886     6.5158 C.2     
   5 C5            12.9123     8.4479     6.6920 C.2     
   6 C6            12.0669     9.4996     6.8349 C.2     
   7 C7            12.5898     5.9141     6.3231 C.2     
   8 O8            13.7914     5.6828     6.3025 O.co2   
   9 O9            11.7881     5.0000     6.1830 O.co2   
  10 C10            9.6214     9.8252     6.8502 C.ar    
  11 C11            8.7796     9.6965     7.9469 C.ar    
  12 C12            7.6439    10.4771     8.0393 C.ar    
  13 C13            7.3445    11.3856     7.0408 C.ar    
  14 C14            8.1807    11.5158     5.9471 C.ar    
  15 C15            9.3211    10.7425     5.8520 C.ar    
  16 S16            5.8944    12.3792     7.1621 S.o2    
  17 O17            5.5600    12.7645     5.8358 O.2     
  18 O18            5.0000    11.6809     8.0175 O.2     
  19 N19            6.3167    13.7675     7.9600 N.am    
  20 C20            9.5834     6.8122     6.4201 C.3     
  21 C21           12.4675    10.9081     7.0424 C.ar    
  22 C22           11.5688    11.8166     7.6029 C.ar    
  23 C23           11.9480    13.1291     7.7940 C.ar    
  24 C24           13.2174    13.5457     7.4303 C.ar    
  25 C25           14.1133    12.6489     6.8733 C.ar    
  26 C26           13.7476    11.3323     6.6836 C.ar    
  27 Cl27          13.6874    15.1991     7.6733 Cl      
  28 H28           13.9915     8.4849     6.7091 H       
  29 H29            9.0125     8.9866     8.7268 H       
  30 H30            6.9888    10.3774     8.8921 H       
  31 H31            7.9440    12.2260     5.1687 H       
  32 H32            9.9763    10.8480     5.0000 H       
  33 H33            7.2305    13.8964     8.2586 H       
  34 H34            5.6502    14.4517     8.1287 H       
  35 H35            9.3026     6.7450     5.3691 H       
  36 H36            9.8179     5.8170     6.7979 H       
  37 H37            8.7554     7.2319     6.9913 H       
  38 H38           10.5782    11.4929     7.8863 H       
  39 H39           11.2533    13.8331     8.2278 H       
  40 H40           15.1020    12.9796     6.5912 H       
  41 H41           14.4488    10.6326     6.2534 H       
@<TRIPOS>BOND
   1    2    3 1
   2    2    6 1
   3    2   10 1
   4    3    4 2
   5    3   20 1
   6    4    5 1
   7    4    7 1
   8    5    6 2
   9    5   28 1
  10    6   21 1
  11    7    8 ar
  12    7    9 ar
  13   10   11 ar
  14   10   15 ar
  15   11   12 ar
  16   11   29 1
  17   12   13 ar
  18   12   30 1
  19   13   14 ar
  20   13   16 1
  21   14   15 ar
  22   14   31 1
  23   15   32 1
  24   16   17 2
  25   16   18 2
  26   16   19 am
  27   19   33 1
  28   19   34 1
  29   20   35 1
  30   20   36 1
  31   20   37 1
  32   21   22 ar
  33   21   26 ar
  34   22   23 ar
  35   22   38 1
  36   23   24 ar
  37   23   39 1
  38   24   25 ar
  39   24   27 1
  40   25   26 ar
  41   25   40 1
  42   26   41 1

#	End of record

