#	Name: ASD07301385
#	Creating user name:	WinNT
#	Creation time:	15. 06. 2019 21:11

#	Modifying user name:	WinNT
#	Modification time:	15. 06. 2019 21:11

#	Program:	/corina/corina34_cracker 3.40 0067  02.08.2006

@<TRIPOS>MOLECULE
ASD07301385
  34   35    0    0    0
SMALL
NO_CHARGES


@<TRIPOS>ATOM
   1 C1            -0.0179     1.4666     0.0101 C.2     
   2 C2             0.0021    -0.0041     0.0020 C.2     
   3 C3             1.2775    -0.6366    -0.0136 C.2     
   4 C4             2.3787     0.1588    -0.0198 C.2     
   5 N5             2.2596     1.5102    -0.0114 N.pl3   
   6 N6             1.1312     2.1178     0.0026 N.2     
   7 O7            -1.0312    -0.6548     0.0088 O.2     
   8 O8             1.3896    -1.9914    -0.0215 O.3     
   9 C9             2.7120    -2.5329    -0.0370 C.3     
  10 C10            3.4276     2.2794    -0.0179 C.ar    
  11 C11            3.6402     3.2366     0.9735 C.ar    
  12 C12            4.7998     3.9951     0.9616 C.ar    
  13 C13            5.7419     3.8024    -0.0314 C.ar    
  14 C14            5.5317     2.8536    -1.0154 C.ar    
  15 C15            4.3815     2.0884    -1.0082 C.ar    
  16 O16            2.7125     3.4253     1.9485 O.3     
  17 C17            2.9977     4.4231     2.9309 C.3     
  18 F18            4.1829     4.0953     3.5981 F       
  19 F19            3.1433     5.6657     2.3049 F       
  20 C20           -1.2916     2.1972     0.0202 C.2     
  21 O21           -2.3404     1.5878     0.0218 O.2     
  22 C22           -1.2958     3.7042     0.0284 C.3     
  23 H23            3.3609    -0.2901    -0.0312 H       
  24 H24            3.2342    -2.1906    -0.9304 H       
  25 H25            3.2515    -2.1996     0.8494 H       
  26 H26            2.6587    -3.6216    -0.0420 H       
  27 H27            4.9674     4.7372     1.7281 H       
  28 H28            6.6448     4.3950    -0.0391 H       
  29 H29            6.2707     2.7076    -1.7894 H       
  30 H30            4.2222     1.3452    -1.7754 H       
  31 H31            2.1784     4.4714     3.6482 H       
  32 H32           -0.2691     4.0704     0.0255 H       
  33 H33           -1.8149     4.0709    -0.8572 H       
  34 H34           -1.8064     4.0612     0.9227 H       
@<TRIPOS>BOND
   1    1    2 1
   2    1    6 2
   3    1   20 1
   4    2    3 1
   5    2    7 2
   6    3    4 2
   7    3    8 1
   8    4    5 1
   9    4   23 1
  10    5    6 1
  11    5   10 1
  12    8    9 1
  13    9   24 1
  14    9   25 1
  15    9   26 1
  16   10   11 ar
  17   10   15 ar
  18   11   12 ar
  19   11   16 1
  20   12   13 ar
  21   12   27 1
  22   13   14 ar
  23   13   28 1
  24   14   15 ar
  25   14   29 1
  26   15   30 1
  27   16   17 1
  28   17   18 1
  29   17   19 1
  30   17   31 1
  31   20   21 2
  32   20   22 1
  33   22   32 1
  34   22   33 1
  35   22   34 1

#	End of record

