#	Name: ASD01815836
#	Creating user name:	WinNT
#	Creation time:	15. 06. 2019 19:34

#	Modifying user name:	WinNT
#	Modification time:	15. 06. 2019 19:34

#	Program:	/corina/corina34_cracker 3.40 0067  02.08.2006

@<TRIPOS>MOLECULE
ASD01815836
  50   54    0    0    0
SMALL
NO_CHARGES


@<TRIPOS>ATOM
   1 C1            -0.0918     1.3075    -0.1349 C.ar    
   2 C2            -0.0428    -0.0828    -0.1398 C.ar    
   3 C3             1.1493    -0.7429    -0.1088 C.ar    
   4 C4             2.3481    -0.0144    -0.0713 C.ar    
   5 C5             2.2943     1.4008    -0.0665 C.ar    
   6 C6             1.0543     2.0468    -0.0989 C.ar    
   7 C7             3.5967    -0.6700    -0.0392 C.ar    
   8 C8             4.7552     0.0308    -0.0035 C.ar    
   9 C9             4.7575     1.4344     0.0029 C.ar    
  10 C10            3.5468     2.1501    -0.0274 C.ar    
  11 C11            6.0074     2.2045     0.0405 C.2     
  12 N12            5.9084     3.5541     0.0430 N.am    
  13 C13            4.6929     4.1554     0.0120 C.2     
  14 N14            3.5733     3.4934    -0.0219 N.2     
  15 C15            7.1233     4.3721     0.0797 C.3     
  16 C16            7.1799     5.2618    -1.1659 C.3     
  17 C17            7.1055     5.2602     1.3277 C.3     
  18 C18            8.3390     6.1668     1.3169 C.3     
  19 O19            8.3466     6.9444     0.1179 O.3     
  20 C20            8.4106     6.1684    -1.0804 C.3     
  21 O21            7.0913     1.6499     0.0688 O.2     
  22 C22            3.6424    -2.1763    -0.0442 C.3     
  23 C23            3.5367    -2.6867     1.3698 C.ar    
  24 C24            2.3039    -3.0323     1.9006 C.ar    
  25 C25            2.2536    -3.4978     3.2056 C.ar    
  26 C26            3.4272    -3.6016     3.9303 C.ar    
  27 N27            4.5843    -3.2631     3.3930 N.ar    
  28 C28            4.6698    -2.8217     2.1522 C.ar    
  29 O29            7.1258     4.4401     2.4977 O.3     
  30 Cl30           6.2198    -2.3915     1.4993 Cl      
  31 Cl31           3.3776    -4.1831     5.5652 Cl      
  32 H32           -1.0486     1.8076    -0.1644 H       
  33 H33           -0.9630    -0.6475    -0.1682 H       
  34 H34            1.1712    -1.8227    -0.1128 H       
  35 H35            1.0042     3.1256    -0.0957 H       
  36 H36            5.6951    -0.5006     0.0209 H       
  37 H37            4.6525     5.2346     0.0158 H       
  38 H38            7.9989     3.7234     0.1047 H       
  39 H39            7.2487     4.6373    -2.0567 H       
  40 H40            6.2795     5.8738    -1.2176 H       
  41 H41            6.2035     5.8722     1.3263 H       
  42 H42            8.3095     6.8310     2.1806 H       
  43 H43            9.2402     5.5551     1.3591 H       
  44 H44            9.3127     5.5566    -1.0695 H       
  45 H45            8.4327     6.8336    -1.9435 H       
  46 H46            2.8108    -2.5631    -0.6332 H       
  47 H47            4.5835    -2.5098    -0.4815 H       
  48 H48            1.4033    -2.9406     1.3116 H       
  49 H49            1.3097    -3.7756     3.6510 H       
  50 H50            7.1161     4.9376     3.3269 H       
@<TRIPOS>BOND
   1    1    2 ar
   2    1    6 ar
   3    1   32 1
   4    2    3 ar
   5    2   33 1
   6    3    4 ar
   7    3   34 1
   8    4    5 ar
   9    4    7 ar
  10    5    6 ar
  11    5   10 ar
  12    6   35 1
  13    7    8 ar
  14    7   22 1
  15    8    9 ar
  16    8   36 1
  17    9   10 ar
  18    9   11 1
  19   10   14 1
  20   11   12 am
  21   11   21 2
  22   12   13 1
  23   12   15 1
  24   13   14 2
  25   13   37 1
  26   15   16 1
  27   15   17 1
  28   15   38 1
  29   16   20 1
  30   16   39 1
  31   16   40 1
  32   17   18 1
  33   17   29 1
  34   17   41 1
  35   18   19 1
  36   18   42 1
  37   18   43 1
  38   19   20 1
  39   20   44 1
  40   20   45 1
  41   22   23 1
  42   22   46 1
  43   22   47 1
  44   23   24 ar
  45   23   28 ar
  46   24   25 ar
  47   24   48 1
  48   25   26 ar
  49   25   49 1
  50   26   27 ar
  51   26   31 1
  52   27   28 ar
  53   28   30 1
  54   29   50 1

#	End of record

