#	Name: ASD02030378
#	Creating user name:	WinNT
#	Creation time:	15. 06. 2019 20:15

#	Modifying user name:	WinNT
#	Modification time:	15. 06. 2019 20:15

#	Program:	/corina/corina34_cracker 3.40 0067  02.08.2006

@<TRIPOS>MOLECULE
ASD02030378
  54   56    0    0    0
SMALL
NO_CHARGES


@<TRIPOS>ATOM
   1 C1            -0.7544     1.5849    -0.3602 C.ar    
   2 C2            -0.8163     0.2037    -0.3480 C.ar    
   3 C3             0.3132    -0.5388    -0.0366 C.ar    
   4 C4             1.5059     0.1060     0.2632 C.ar    
   5 C5             1.5570     1.4865     0.2488 C.ar    
   6 C6             0.4369     2.2197    -0.0606 C.ar    
   7 C7             0.5065     3.7330    -0.0732 C.3     
   8 C8             2.8553     2.1943     0.5771 C.3     
   9 C9             1.3693     4.1648    -1.2630 C.3     
  10 C10            3.3863     2.8442    -0.7045 C.3     
  11 N11            2.7800     4.1491    -0.9124 N.3     
  12 O12            0.2525    -1.8964    -0.0245 O.3     
  13 C13           -1.0068    -2.4923    -0.3423 C.3     
  14 C14            3.5668     4.9502    -1.8596 C.3     
  15 C15            4.9795     5.1510    -1.3073 C.3     
  16 C16            5.7611     6.0853    -2.2331 C.3     
  17 C17            7.1737     6.2860    -1.6808 C.3     
  18 C18            7.9435     7.2063    -2.5927 C.ar    
  19 C19            9.3789     7.5293    -4.4816 C.ar    
  20 C20            8.6728     6.6852    -3.6451 C.ar    
  21 C21            7.9159     8.5719    -2.3801 C.ar    
  22 C22            8.6221     9.4160    -3.2166 C.ar    
  23 C23            9.3563     8.8945    -4.2653 C.ar    
  24 O24            1.0953     4.1983     1.1428 O.3     
  25 C25            0.9716     5.5806    -1.6853 C.3     
  26 H26           -1.6313     2.1651    -0.6070 H       
  27 H27           -1.7444    -0.2972    -0.5806 H       
  28 H28            2.3878    -0.4680     0.5064 H       
  29 H29           -0.4968     4.1460    -0.1778 H       
  30 H30            2.6754     2.9612     1.3306 H       
  31 H31            3.5821     1.4736     0.9519 H       
  32 H32            1.1992     3.4822    -2.0956 H       
  33 H33            4.4674     2.9595    -0.6266 H       
  34 H34            3.1553     2.2020    -1.5544 H       
  35 H35           -1.7575    -2.1592     0.3743 H       
  36 H36           -1.3063    -2.1947    -1.3472 H       
  37 H37           -0.9170    -3.5776    -0.2964 H       
  38 H38            3.6213     4.4315    -2.8167 H       
  39 H39            3.0899     5.9204    -1.9987 H       
  40 H40            4.9212     5.5912    -0.3118 H       
  41 H41            5.4873     4.1882    -1.2497 H       
  42 H42            5.8193     5.6451    -3.2286 H       
  43 H43            5.2532     7.0480    -2.2907 H       
  44 H44            7.1154     6.7262    -0.6853 H       
  45 H45            7.6815     5.3233    -1.6232 H       
  46 H46            9.9489     7.1222    -5.3036 H       
  47 H47            8.6911     5.6186    -3.8136 H       
  48 H48            7.3423     8.9794    -1.5608 H       
  49 H49            8.5999    10.4830    -3.0510 H       
  50 H50            9.9080     9.5540    -4.9188 H       
  51 H51            0.6081     3.9437     1.9384 H       
  52 H52            1.2609     6.2867    -0.9070 H       
  53 H53            1.4778     5.8379    -2.6158 H       
  54 H54           -0.1073     5.6258    -1.8341 H       
@<TRIPOS>BOND
   1    1    2 ar
   2    1    6 ar
   3    1   26 1
   4    2    3 ar
   5    2   27 1
   6    3    4 ar
   7    3   12 1
   8    4    5 ar
   9    4   28 1
  10    5    6 ar
  11    5    8 1
  12    6    7 1
  13    7    9 1
  14    7   24 1
  15    7   29 1
  16    8   10 1
  17    8   30 1
  18    8   31 1
  19    9   11 1
  20    9   25 1
  21    9   32 1
  22   10   11 1
  23   10   33 1
  24   10   34 1
  25   11   14 1
  26   12   13 1
  27   13   35 1
  28   13   36 1
  29   13   37 1
  30   14   15 1
  31   14   38 1
  32   14   39 1
  33   15   16 1
  34   15   40 1
  35   15   41 1
  36   16   17 1
  37   16   42 1
  38   16   43 1
  39   17   18 1
  40   17   44 1
  41   17   45 1
  42   18   21 ar
  43   18   20 ar
  44   19   20 ar
  45   19   23 ar
  46   19   46 1
  47   20   47 1
  48   21   22 ar
  49   21   48 1
  50   22   23 ar
  51   22   49 1
  52   23   50 1
  53   24   51 1
  54   25   52 1
  55   25   53 1
  56   25   54 1

#	End of record

