#	Name: ASD04880015
#	Creating user name:	WinNT
#	Creation time:	15. 06. 2019 20:52

#	Modifying user name:	WinNT
#	Modification time:	15. 06. 2019 20:52

#	Program:	/corina/corina34_cracker 3.40 0067  02.08.2006

@<TRIPOS>MOLECULE
ASD04880015
  33   35    0    0    0
SMALL
NO_CHARGES


@<TRIPOS>ATOM
   1 C1            -0.0144     1.2118     0.0087 C.2     
   2 O2             0.0578    -0.0018    -0.0140 O.2     
   3 C3             1.2187     2.0261    -0.0193 C.ar    
   4 C4             2.4678     1.4096     0.0724 C.ar    
   5 C5             3.6164     2.1770     0.0456 C.ar    
   6 C6             3.5288     3.5552    -0.0721 C.ar    
   7 C7             2.2933     4.1701    -0.1632 C.ar    
   8 C8             1.1392     3.4141    -0.1434 C.ar    
   9 F9             4.8266     1.5832     0.1346 F       
  10 N10           -1.2191     1.8145     0.0538 N.am    
  11 N11           -1.4355     3.1837     0.1955 N.2     
  12 C12           -2.6789     3.5211     0.2115 C.2     
  13 C13           -3.5393     2.2862     0.0669 C.3     
  14 C14           -2.5205     1.1347    -0.0448 C.3     
  15 C15           -4.1051     7.4057     0.6008 C.ar    
  16 N16           -2.7957     7.1982     0.5995 N.ar    
  17 C17           -2.3022     5.9793     0.4783 C.ar    
  18 C18           -3.1848     4.8989     0.3499 C.ar    
  19 C19           -4.5607     5.1624     0.3559 C.ar    
  20 N20           -4.9730     6.4107     0.4816 N.ar    
  21 N21           -4.5797     8.6976     0.7359 N.pl3   
  22 H22            2.5362     0.3357     0.1644 H       
  23 H23            4.4290     4.1515    -0.0923 H       
  24 H24            2.2318     5.2445    -0.2547 H       
  25 H25            0.1757     3.8959    -0.2195 H       
  26 H26           -4.1729     2.1568     0.9444 H       
  27 H27           -4.1446     2.3456    -0.8376 H       
  28 H28           -2.6163     0.6272    -1.0046 H       
  29 H29           -2.6486     0.4304     0.7772 H       
  30 H30           -1.2344     5.8178     0.4778 H       
  31 H31           -5.2735     4.3569     0.2589 H       
  32 H32           -3.9572     9.4358     0.8280 H       
  33 H33           -5.5350     8.8655     0.7387 H       
@<TRIPOS>BOND
   1    1    2 2
   2    1    3 1
   3    1   10 am
   4    3    4 ar
   5    3    8 ar
   6    4    5 ar
   7    4   22 1
   8    5    6 ar
   9    5    9 1
  10    6    7 ar
  11    6   23 1
  12    7    8 ar
  13    7   24 1
  14    8   25 1
  15   10   11 1
  16   10   14 1
  17   11   12 2
  18   12   13 1
  19   12   18 1
  20   13   14 1
  21   13   26 1
  22   13   27 1
  23   14   28 1
  24   14   29 1
  25   15   16 ar
  26   15   20 ar
  27   15   21 1
  28   16   17 ar
  29   17   18 ar
  30   17   30 1
  31   18   19 ar
  32   19   20 ar
  33   19   31 1
  34   21   32 1
  35   21   33 1

#	End of record

