#	Name: ASD08070160
#	Creating user name:	WinNT
#	Creation time:	15. 06. 2019 21:14

#	Modifying user name:	WinNT
#	Modification time:	15. 06. 2019 21:14

#	Program:	/corina/corina34_cracker 3.40 0067  02.08.2006

@<TRIPOS>MOLECULE
ASD08070160
  42   44    0    0    0
SMALL
NO_CHARGES


@<TRIPOS>ATOM
   1 C1            -0.0168     1.3850     0.0097 C.ar    
   2 C2             0.0021    -0.0041     0.0020 C.ar    
   3 C3            -1.1800    -0.7176     0.0095 C.ar    
   4 C4            -2.3955    -0.0511     0.0247 C.ar    
   5 C5            -2.4217     1.3499     0.0324 C.ar    
   6 C6            -1.2212     2.0639     0.0306 C.ar    
   7 N7            -3.7323     3.4148     0.0555 N.am    
   8 C8            -3.7109     2.0672     0.0481 C.2     
   9 C9            -5.3539     3.1470     2.3229 C.ar    
  10 C10           -5.4938     4.2526     1.4930 C.ar    
  11 C11           -5.0124     4.1270     0.0711 C.3     
  12 C12           -5.7806     3.1929     3.6340 C.ar    
  13 C13           -6.3551     4.3476     4.1298 C.ar    
  14 C14           -6.4955     5.4521     3.3070 C.ar    
  15 C15           -6.0601     5.4063     1.9835 C.ar    
  16 C16           -6.2277     6.6473     1.1466 C.3     
  17 C17           -6.1147     6.3127    -0.3393 C.3     
  18 C18           -4.8287     5.5068    -0.5575 C.3     
  19 O19           -4.7541     1.4426     0.0543 O.2     
  20 O20           -3.5569    -0.7536     0.0315 O.3     
  21 O21           -7.0613     6.5882     3.7927 O.3     
  22 C22           -7.4861     6.5694     5.1570 C.3     
  23 O23            1.1527     2.0790     0.0022 O.3     
  24 H24            0.9461    -0.5285    -0.0102 H       
  25 H25           -1.1576    -1.7974     0.0031 H       
  26 H26           -1.2338     3.1438     0.0365 H       
  27 H27           -2.9001     3.9131     0.0506 H       
  28 H28           -4.9108     2.2411     1.9363 H       
  29 H29           -5.7442     3.5636    -0.5077 H       
  30 H30           -5.6662     2.3284     4.2712 H       
  31 H31           -6.6936     4.3882     5.1546 H       
  32 H32           -7.2069     7.0839     1.3432 H       
  33 H33           -5.4538     7.3674     1.4126 H       
  34 H34           -6.9759     5.7205    -0.6487 H       
  35 H35           -6.0739     7.2337    -0.9209 H       
  36 H36           -3.9905     6.0176    -0.0834 H       
  37 H37           -4.6383     5.4013    -1.6255 H       
  38 H38           -3.8851    -0.9622     0.9169 H       
  39 H39           -8.2338     5.7881     5.2940 H       
  40 H40           -6.6300     6.3699     5.8014 H       
  41 H41           -7.9187     7.5357     5.4162 H       
  42 H42            1.4825     2.2845    -0.8833 H       
@<TRIPOS>BOND
   1    1    2 ar
   2    1   23 1
   3    1    6 ar
   4    2    3 ar
   5    2   24 1
   6    3    4 ar
   7    3   25 1
   8    4    5 ar
   9    4   20 1
  10    5    6 ar
  11    5    8 1
  12    6   26 1
  13    7    8 am
  14    7   11 1
  15    7   27 1
  16    8   19 2
  17    9   10 ar
  18    9   12 ar
  19    9   28 1
  20   10   11 1
  21   10   15 ar
  22   11   18 1
  23   11   29 1
  24   12   13 ar
  25   12   30 1
  26   13   14 ar
  27   13   31 1
  28   14   15 ar
  29   14   21 1
  30   15   16 1
  31   16   17 1
  32   16   32 1
  33   16   33 1
  34   17   18 1
  35   17   34 1
  36   17   35 1
  37   18   36 1
  38   18   37 1
  39   20   38 1
  40   21   22 1
  41   22   39 1
  42   22   40 1
  43   22   41 1
  44   23   42 1

#	End of record

