#	Name: ASD01881760
#	Creating user name:	WinNT
#	Creation time:	15. 06. 2019 19:43

#	Modifying user name:	WinNT
#	Modification time:	15. 06. 2019 19:43

#	Program:	/corina/corina34_cracker 3.40 0067  02.08.2006

@<TRIPOS>MOLECULE
ASD01881760
  40   43    0    0    0
SMALL
NO_CHARGES


@<TRIPOS>ATOM
   1 C1            -0.0053     1.4990     0.0024 C.2     
   2 C2             0.0054    -0.0136     0.0005 C.3     
   3 C3             0.9265    -0.4957     1.1262 C.3     
   4 C4             2.3061     0.1445     0.9632 C.3     
   5 C5             2.1948     1.6623     1.1172 C.3     
   6 C6             1.3215     2.2256    -0.0088 C.3     
   7 O7            -1.0464     2.1109     0.0077 O.2     
   8 O8            -1.3189    -0.5032     0.2211 O.3     
   9 N9            -4.7562    -1.0757    -4.0052 N.pl3   
  10 N10           -5.7915    -1.6850    -3.2809 N.2     
  11 N11           -5.4407    -1.8019    -2.0488 N.2     
  12 C12           -4.2021    -1.3029    -1.8648 C.ar    
  13 C13           -3.7427    -0.8311    -3.1067 C.ar    
  14 C14           -3.3739    -1.1876    -0.7400 C.ar    
  15 C15           -2.1248    -0.6161    -0.8684 C.ar    
  16 C16           -1.6834    -0.1534    -2.1057 C.ar    
  17 C17           -2.4804    -0.2579    -3.2108 C.ar    
  18 C18           -4.7520    -0.7665    -5.4372 C.3     
  19 C19           -5.3182     0.6377    -5.6574 C.3     
  20 C20           -5.2899     1.1954    -7.0819 C.3     
  21 C21           -6.6166     0.7583    -6.4577 C.3     
  22 Br22          -3.9648    -1.8127     0.9440 Br      
  23 H23            0.3778    -0.3759    -0.9577 H       
  24 H24            0.5042    -0.2091     2.0893 H       
  25 H25            1.0213    -1.5805     1.0788 H       
  26 H26            2.9800    -0.2484     1.7245 H       
  27 H27            2.7005    -0.0914    -0.0251 H       
  28 H28            1.7425     1.8978     2.0806 H       
  29 H29            3.1886     2.1069     1.0636 H       
  30 H30            1.8157     2.0706    -0.9678 H       
  31 H31            1.1569     3.2908     0.1535 H       
  32 H32           -0.7035     0.2922    -2.1924 H       
  33 H33           -2.1291     0.1041    -4.1658 H       
  34 H34           -3.7306    -0.8098    -5.8153 H       
  35 H35           -5.3669    -1.4936    -5.9677 H       
  36 H36           -5.1641     1.3404    -4.8386 H       
  37 H37           -5.1176     2.2652    -7.2002 H       
  38 H38           -4.8679     0.5620    -7.8621 H       
  39 H39           -7.0675    -0.1627    -6.8272 H       
  40 H40           -7.3172     1.5405    -6.1653 H       
@<TRIPOS>BOND
   1    1    2 1
   2    1    6 1
   3    1    7 2
   4    2    3 1
   5    2    8 1
   6    2   23 1
   7    3    4 1
   8    3   24 1
   9    3   25 1
  10    4    5 1
  11    4   26 1
  12    4   27 1
  13    5    6 1
  14    5   28 1
  15    5   29 1
  16    6   30 1
  17    6   31 1
  18    8   15 1
  19    9   10 1
  20    9   13 1
  21    9   18 1
  22   10   11 2
  23   11   12 1
  24   12   13 ar
  25   12   14 ar
  26   13   17 ar
  27   14   15 ar
  28   14   22 1
  29   15   16 ar
  30   16   17 ar
  31   16   32 1
  32   17   33 1
  33   18   19 1
  34   18   34 1
  35   18   35 1
  36   19   20 1
  37   19   21 1
  38   19   36 1
  39   20   21 1
  40   20   37 1
  41   20   38 1
  42   21   39 1
  43   21   40 1

#	End of record

