#	Name: ASD01209277
#	Creating user name:	WinNT
#	Creation time:	15. 06. 2019 19:11

#	Modifying user name:	WinNT
#	Modification time:	15. 06. 2019 19:11

#	Program:	/corina/corina34_cracker 3.40 0067  02.08.2006

@<TRIPOS>MOLECULE
ASD01209277
  49   50    0    0    0
SMALL
NO_CHARGES


@<TRIPOS>ATOM
   1 C1            -0.0180     1.4737     0.0101 C.ar    
   2 C2             0.0021    -0.0041     0.0020 C.2     
   3 O3             1.0631    -0.5976    -0.0113 O.2     
   4 N4            -1.1558    -0.6938     0.0094 N.am    
   5 C5            -1.1370    -2.0846     0.0017 C.2     
   6 P6            -4.4496    -5.5651    -1.6452 P.3     
   7 O7            -3.8473    -4.2621    -2.0055 O.2     
   8 O8            -6.0537    -5.4285    -1.6286 O.3     
   9 O9            -4.0166    -6.6745    -2.7286 O.3     
  10 C10           -4.2368    -6.5194    -4.1320 C.3     
  11 C11           -3.7084    -7.7509    -4.8703 C.3     
  12 C12            1.1796     2.1912     0.0026 C.ar    
  13 C13           -6.8055    -4.9482    -2.7450 C.3     
  14 C14           -8.2947    -4.9457    -2.3939 C.3     
  15 S15           -2.0582    -6.2224    -0.0119 S.3     
  16 C16           -3.8656    -6.0685     0.0067 C.3     
  17 S17           -2.5591    -3.1238     0.0097 S.3     
  18 C18           -1.5176    -4.5454    -0.0085 C.2     
  19 C19           -0.2430    -4.1304    -0.0186 C.2     
  20 N20           -0.0696    -2.8209    -0.0181 N.2     
  21 C21            1.1537     3.5704     0.0103 C.ar    
  22 C22           -0.0555     4.2427     0.0259 C.ar    
  23 C23           -1.2461     3.5377     0.0340 C.ar    
  24 C24           -1.2345     2.1583     0.0196 C.ar    
  25 C25           -2.5583     4.2785     0.0515 C.3     
  26 C26            2.4454     4.3466     0.0021 C.3     
  27 H27           -2.0023    -0.2203     0.0200 H       
  28 H28           -5.3046    -6.4118    -4.3226 H       
  29 H29           -3.7133    -5.6312    -4.4859 H       
  30 H30           -2.6406    -7.8584    -4.6797 H       
  31 H31           -4.2319    -8.6391    -4.5164 H       
  32 H32           -3.8764    -7.6326    -5.9408 H       
  33 H33            2.1241     1.6676    -0.0089 H       
  34 H34           -6.4878    -3.9342    -2.9878 H       
  35 H35           -6.6357    -5.5976    -3.6038 H       
  36 H36           -8.6124    -5.9597    -2.1511 H       
  37 H37           -8.4644    -4.2963    -1.5351 H       
  38 H38           -8.8681    -4.5794    -3.2454 H       
  39 H39           -4.1587    -5.3174     0.7402 H       
  40 H40           -4.3092    -7.0281     0.2721 H       
  41 H41            0.5872    -4.8210    -0.0303 H       
  42 H42           -0.0702     5.3226     0.0323 H       
  43 H43           -2.1645     1.6092     0.0260 H       
  44 H44           -2.8851     4.4630    -0.9718 H       
  45 H45           -3.3070     3.6791     0.5696 H       
  46 H46           -2.4320     5.2292     0.5696 H       
  47 H47            2.7470     4.5393    -1.0275 H       
  48 H48            2.3034     5.2938     0.5224 H       
  49 H49            3.2201     3.7681     0.5054 H       
@<TRIPOS>BOND
   1    1    2 1
   2    1   12 ar
   3    1   24 ar
   4    2    3 2
   5    2    4 am
   6    4    5 1
   7    4   27 1
   8    5   17 1
   9    5   20 2
  10    6    7 2
  11    6    8 1
  12    6    9 1
  13    6   16 1
  14    8   13 1
  15    9   10 1
  16   10   11 1
  17   10   28 1
  18   10   29 1
  19   11   30 1
  20   11   31 1
  21   11   32 1
  22   12   21 ar
  23   12   33 1
  24   13   14 1
  25   13   34 1
  26   13   35 1
  27   14   36 1
  28   14   37 1
  29   14   38 1
  30   15   16 1
  31   15   18 1
  32   16   39 1
  33   16   40 1
  34   17   18 1
  35   18   19 2
  36   19   20 1
  37   19   41 1
  38   21   22 ar
  39   21   26 1
  40   22   23 ar
  41   22   42 1
  42   23   24 ar
  43   23   25 1
  44   24   43 1
  45   25   44 1
  46   25   45 1
  47   25   46 1
  48   26   47 1
  49   26   48 1
  50   26   49 1

#	End of record

