#	Name: ASD07930426
#	Creating user name:	WinNT
#	Creation time:	15. 06. 2019 21:12

#	Modifying user name:	WinNT
#	Modification time:	15. 06. 2019 21:12

#	Program:	/corina/corina34_cracker 3.40 0067  02.08.2006

@<TRIPOS>MOLECULE
ASD07930426
  46   48    0    0    0
SMALL
NO_CHARGES


@<TRIPOS>ATOM
   1 N1             0.1947     0.8899     0.9068 N.2     
   2 N2            -1.0819    -1.0334     0.5427 N.pl3   
   3 C3            -1.2787    -1.9099    -0.6166 C.3     
   4 C4            -0.2382    -3.0378    -0.5806 C.3     
   5 S5             1.4184    -2.2850    -0.5231 S.o2    
   6 N6             1.2767    -1.1804     0.7165 N.am    
   7 C7             0.1297    -0.3995     0.7278 C.2     
   8 C8             2.3117    -1.0410     1.7439 C.3     
   9 C9            -1.1101    -1.1002    -1.9038 C.3     
  10 C10           -2.6639    -2.5015    -0.5709 C.ar    
  11 C11           -2.9094    -3.7493    -1.1127 C.ar    
  12 N12           -4.1175    -4.2773    -1.0786 N.ar    
  13 C13           -5.1363    -3.6455    -0.5312 C.ar    
  14 C14           -4.9689    -2.3877     0.0340 C.ar    
  15 C15           -3.7047    -1.8035     0.0196 C.ar    
  16 O16            2.3819    -3.2209    -0.0595 O.2     
  17 O17            1.6539    -1.4951    -1.6806 O.2     
  18 N18           -6.0526    -1.7201     0.6135 N.am    
  19 C19           -6.1417    -0.3780     0.5271 C.2     
  20 O20           -5.2394     0.2596     0.0209 O.2     
  21 C21           -7.3394     0.3197     1.0491 C.ar    
  22 N22           -8.3282    -0.3762     1.6034 N.ar    
  23 C23           -9.3924     0.2483     2.0668 C.ar    
  24 C24           -9.4832     1.6296     1.9774 C.ar    
  25 N25           -8.5041     2.3259     1.4272 N.ar    
  26 C26           -7.4313     1.7088     0.9659 C.ar    
  27 C27          -10.7023     2.3383     2.5088 C.3     
  28 H28            1.0551     1.3190     1.0350 H       
  29 H29           -1.8037    -0.8963     1.1761 H       
  30 H30           -0.3933    -3.6527     0.3059 H       
  31 H31           -0.3315    -3.6526    -1.4758 H       
  32 H32            3.0441    -0.3000     1.4236 H       
  33 H33            1.8541    -0.7189     2.6792 H       
  34 H34            2.8070    -2.0004     1.8932 H       
  35 H35           -0.1072    -0.6745    -1.9366 H       
  36 H36           -1.2564    -1.7522    -2.7650 H       
  37 H37           -1.8466    -0.2970    -1.9269 H       
  38 H38           -2.1006    -4.2994    -1.5706 H       
  39 H39           -6.1112    -4.1102    -0.5223 H       
  40 H40           -3.5416    -0.8268     0.4508 H       
  41 H41           -6.7401    -2.2229     1.0775 H       
  42 H42          -10.1955    -0.3166     2.5166 H       
  43 H43           -6.6311     2.2780     0.5163 H       
  44 H44          -10.5441     2.5984     3.5554 H       
  45 H45          -10.8756     3.2462     1.9310 H       
  46 H46          -11.5692     1.6830     2.4243 H       
@<TRIPOS>BOND
   1    1    7 2
   2    1   28 1
   3    2    3 1
   4    2    7 1
   5    2   29 1
   6    3    4 1
   7    3    9 1
   8    3   10 1
   9    4    5 1
  10    4   30 1
  11    4   31 1
  12    5    6 am
  13    5   16 2
  14    5   17 2
  15    6    7 1
  16    6    8 1
  17    8   32 1
  18    8   33 1
  19    8   34 1
  20    9   35 1
  21    9   36 1
  22    9   37 1
  23   10   11 ar
  24   10   15 ar
  25   11   12 ar
  26   11   38 1
  27   12   13 ar
  28   13   14 ar
  29   13   39 1
  30   14   15 ar
  31   14   18 1
  32   15   40 1
  33   18   19 am
  34   18   41 1
  35   19   20 2
  36   19   21 1
  37   21   22 ar
  38   21   26 ar
  39   22   23 ar
  40   23   24 ar
  41   23   42 1
  42   24   25 ar
  43   24   27 1
  44   25   26 ar
  45   26   43 1
  46   27   44 1
  47   27   45 1
  48   27   46 1

#	End of record

