#	Name: ASD01915751
#	Creating user name:	WinNT
#	Creation time:	15. 06. 2019 20:06

#	Modifying user name:	WinNT
#	Modification time:	15. 06. 2019 20:06

#	Program:	/corina/corina34_cracker 3.40 0067  02.08.2006

@<TRIPOS>MOLECULE
ASD01915751
  49   51    0    0    0
SMALL
NO_CHARGES


@<TRIPOS>ATOM
   1 C1            -0.0180     1.4745     0.0101 C.2     
   2 C2             0.0021    -0.0041     0.0020 C.ar    
   3 C3             1.2207    -0.6858    -0.0133 C.ar    
   4 C4             1.2393    -2.0628    -0.0209 C.ar    
   5 C5             0.0397    -2.7773    -0.0138 C.ar    
   6 C6            -1.1789    -2.0957     0.0010 C.ar    
   7 C7            -1.1976    -0.7187     0.0154 C.ar    
   8 O8             1.0263     2.0965     0.0035 O.2     
   9 N9            -1.1942     2.1324     0.0193 N.am    
  10 O10            1.1483    -5.0405    -0.0367 O.3     
  11 N11            0.8167    -6.2070    -0.0400 N.2     
  12 C12           -0.4878    -6.3087    -0.0287 C.2     
  13 N13           -0.9892    -5.0561    -0.0173 N.2     
  14 C14            0.0597    -4.2559    -0.0225 C.2     
  15 C15           -1.2714    -7.5694    -0.0284 C.ar    
  16 C16           -0.6171    -8.7993    -0.0405 C.ar    
  17 C17           -1.3506    -9.9685    -0.0397 C.ar    
  18 C18           -2.7329    -9.9206    -0.0269 C.ar    
  19 C19           -3.3876    -8.7023    -0.0152 C.ar    
  20 C20           -2.6638    -7.5270    -0.0101 C.ar    
  21 C21           -1.2141     3.5973     0.0274 C.3     
  22 C22           -2.6633     4.0876     0.0369 C.3     
  23 C23           -2.6841     5.6175     0.0453 C.3     
  24 C24           -1.9758     6.1440    -1.2045 C.3     
  25 C25           -4.1334     6.1078     0.0549 C.3     
  26 C26           -1.9639     6.1304     1.2940 C.3     
  27 H27            2.1486    -0.1331    -0.0195 H       
  28 H28            2.1818    -2.5900    -0.0327 H       
  29 H29           -2.1068    -2.6484     0.0062 H       
  30 H30           -2.1400    -0.1916     0.0318 H       
  31 H31           -2.0276     1.6361     0.0206 H       
  32 H32            0.4622    -8.8377    -0.0509 H       
  33 H33           -0.8443   -10.9224    -0.0495 H       
  34 H34           -3.3030   -10.8379    -0.0263 H       
  35 H35           -4.4671    -8.6705    -0.0060 H       
  36 H36           -3.1760    -6.5763     0.0035 H       
  37 H37           -0.7010     3.9627     0.9169 H       
  38 H38           -0.7094     3.9724    -0.8630 H       
  39 H39           -3.1764     3.7222    -0.8527 H       
  40 H40           -3.1680     3.7125     0.9273 H       
  41 H41           -2.4888     5.7786    -2.0940 H       
  42 H42           -1.9905     7.2339    -1.1985 H       
  43 H43           -0.9433     5.7947    -1.2113 H       
  44 H44           -4.6380     5.7327     0.9452 H       
  45 H45           -4.1481     7.1977     0.0608 H       
  46 H46           -4.6464     5.7424    -0.8347 H       
  47 H47           -0.9314     5.7811     1.2872 H       
  48 H48           -1.9787     7.2203     1.3000 H       
  49 H49           -2.4685     5.7553     2.1843 H       
@<TRIPOS>BOND
   1    1    2 1
   2    1    8 2
   3    1    9 am
   4    2    3 ar
   5    2    7 ar
   6    3    4 ar
   7    3   27 1
   8    4    5 ar
   9    4   28 1
  10    5    6 ar
  11    5   14 1
  12    6    7 ar
  13    6   29 1
  14    7   30 1
  15    9   21 1
  16    9   31 1
  17   10   11 1
  18   10   14 1
  19   11   12 2
  20   12   13 1
  21   12   15 1
  22   13   14 2
  23   15   16 ar
  24   15   20 ar
  25   16   17 ar
  26   16   32 1
  27   17   18 ar
  28   17   33 1
  29   18   19 ar
  30   18   34 1
  31   19   20 ar
  32   19   35 1
  33   20   36 1
  34   21   22 1
  35   21   37 1
  36   21   38 1
  37   22   23 1
  38   22   39 1
  39   22   40 1
  40   23   24 1
  41   23   25 1
  42   23   26 1
  43   24   41 1
  44   24   42 1
  45   24   43 1
  46   25   44 1
  47   25   45 1
  48   25   46 1
  49   26   47 1
  50   26   48 1
  51   26   49 1

#	End of record

