#	Name: ASD02690024
#	Creating user name:	WinNT
#	Creation time:	15. 06. 2019 20:26

#	Modifying user name:	WinNT
#	Modification time:	15. 06. 2019 20:26

#	Program:	/corina/corina34_cracker 3.40 0067  02.08.2006

@<TRIPOS>MOLECULE
ASD02690024
  64   66    0    0    0
SMALL
NO_CHARGES


@<TRIPOS>ATOM
   1 C1             0.1360    -0.6113     2.5583 C.3     
   2 N2            -0.3963    -0.1218     1.2802 N.3     
   3 C3            -0.3673     1.3452     1.2199 C.3     
   4 C4             1.0796     1.8328     1.3231 C.3     
   5 C5             1.6844     1.3456     2.6427 C.3     
   6 C6             1.5980    -0.1820     2.7014 C.3     
   7 C7             5.1146     2.3293     4.1113 C.ar    
   8 C8             3.7745     1.9336     4.0332 C.ar    
   9 C9             3.1276     1.7718     2.7230 C.2     
  10 C10            5.7148     2.4786     5.3421 C.ar    
  11 C11            4.9941     2.2372     6.5025 C.ar    
  12 C12            3.6653     1.8451     6.4322 C.ar    
  13 C13            3.0531     1.6921     5.2078 C.ar    
  14 C14           -1.7538    -0.6316     1.0455 C.3     
  15 C15           -2.3093    -0.0298    -0.2491 C.3     
  16 N16           -3.6110    -0.6472    -0.5372 N.am    
  17 C17           -3.7011    -2.1127    -0.5926 C.3     
  18 C18           -3.1300    -2.6911     0.7059 C.3     
  19 C19           -1.7119    -2.1561     0.9178 C.3     
  20 C20           -4.7019     0.1162    -0.7463 C.2     
  21 C21           -4.6153     1.5848    -0.6004 C.ar    
  22 C22           -3.5002     2.2833    -1.0793 C.ar    
  23 O23           -0.8950    -2.5181    -0.1974 O.3     
  24 O24            3.7554     1.9814     1.7068 O.2     
  25 F25            5.5889     2.3846     7.7065 F       
  26 O26           -5.7568    -0.4028    -1.0548 O.2     
  27 C27           -5.6460     2.2989     0.0115 C.ar    
  28 N28           -5.5695     3.6072     0.1407 N.ar    
  29 C29           -4.5292     4.2909    -0.2963 C.ar    
  30 C30           -3.4683     3.6571    -0.9184 C.ar    
  31 H31           -0.4472    -0.1931     3.3787 H       
  32 H32            0.0726    -1.6991     2.5853 H       
  33 H33           -0.7964     1.6783     0.2749 H       
  34 H34           -0.9482     1.7542     2.0466 H       
  35 H35            1.6579     1.4354     0.4890 H       
  36 H36            1.0994     2.9223     1.2940 H       
  37 H37            1.1301     1.7741     3.4777 H       
  38 H38            1.9881    -0.5321     3.6571 H       
  39 H39            2.1845    -0.6112     1.8890 H       
  40 H40            5.6781     2.5129     3.2085 H       
  41 H41            6.7489     2.7839     5.4037 H       
  42 H42            3.1098     1.6588     7.3394 H       
  43 H43            2.0185     1.3869     5.1543 H       
  44 H44           -2.3964    -0.3536     1.8809 H       
  45 H45           -2.4340     1.0462    -0.1278 H       
  46 H46           -1.6204    -0.2296    -1.0699 H       
  47 H47           -4.7442    -2.4109    -0.6978 H       
  48 H48           -3.1257    -2.4823    -1.4413 H       
  49 H49           -3.7599    -2.3942     1.5445 H       
  50 H50           -3.1022    -3.7787     0.6384 H       
  51 H51           -1.2941    -2.5855     1.8283 H       
  52 H52           -2.6859     1.7631    -1.5615 H       
  53 H53           -0.8221    -3.4720    -0.3383 H       
  54 H54           -6.5142     1.7742     0.3820 H       
  55 H55           -4.5074     5.3632    -0.1701 H       
  56 H56           -2.6224     4.2284    -1.2713 H       
  57 C57           13.0483    14.4746    12.7204 C.1     
  58 C58           13.0642    13.3007    12.7140 C.1     
  59 O59           13.0299    15.8294    12.7279 O.3     
  60 O60           13.0826    11.9458    12.7065 O.3     
  61 O61           14.3637    16.4451    12.7184 O.3     
  62 O62           11.7489    11.3301    12.7159 O.3     
  63 H63           14.3505    17.4120    12.7238 H       
  64 H64           11.7620    10.3632    12.7106 H       
@<TRIPOS>BOND
   1    1    2 1
   2    1    6 1
   3    1   31 1
   4    1   32 1
   5    2    3 1
   6    2   14 1
   7    3    4 1
   8    3   33 1
   9    3   34 1
  10    4    5 1
  11    4   35 1
  12    4   36 1
  13    5    6 1
  14    5    9 1
  15    5   37 1
  16    6   38 1
  17    6   39 1
  18    7    8 ar
  19    7   10 ar
  20    7   40 1
  21    8    9 1
  22    8   13 ar
  23    9   24 2
  24   10   11 ar
  25   10   41 1
  26   11   12 ar
  27   11   25 1
  28   12   13 ar
  29   12   42 1
  30   13   43 1
  31   14   15 1
  32   14   19 1
  33   14   44 1
  34   15   16 1
  35   15   45 1
  36   15   46 1
  37   16   17 1
  38   16   20 am
  39   17   18 1
  40   17   47 1
  41   17   48 1
  42   18   19 1
  43   18   49 1
  44   18   50 1
  45   19   23 1
  46   19   51 1
  47   20   21 1
  48   20   26 2
  49   21   27 ar
  50   21   22 ar
  51   22   30 ar
  52   22   52 1
  53   23   53 1
  54   27   28 ar
  55   27   54 1
  56   28   29 ar
  57   29   30 ar
  58   29   55 1
  59   30   56 1
  60   57   58 3
  61   57   59 1
  62   58   60 1
  63   59   61 1
  64   60   62 1
  65   61   63 1
  66   62   64 1

#	End of record

