#	Name: ASD01883691
#	Creating user name:	WinNT
#	Creation time:	15. 06. 2019 19:46

#	Modifying user name:	WinNT
#	Modification time:	15. 06. 2019 19:46

#	Program:	/corina/corina34_cracker 3.40 0067  02.08.2006

@<TRIPOS>MOLECULE
ASD01883691
  46   49    0    0    0
SMALL
NO_CHARGES


@<TRIPOS>ATOM
   1 C1             0.6731     2.0907    -0.0033 C.2     
   2 C2             0.5126     0.7271     0.2819 C.2     
   3 C3            -0.7617     0.2520     0.6558 C.2     
   4 C4            -1.8151     1.0858     0.7405 C.2     
   5 N5            -1.7038     2.4190     0.4714 N.pl3   
   6 C6            -0.4983     2.9625     0.1079 C.2     
   7 C7            -2.6126     3.4450     0.4879 C.2     
   8 C8            -1.9524     4.5678     0.1339 C.2     
   9 N9            -0.6717     4.2566    -0.0918 N.2     
  10 C10           -4.0752     3.3392     0.8356 C.3     
  11 C11           -4.8936     3.1745    -0.4466 C.3     
  12 C12            1.6618    -0.1986     0.1915 C.ar    
  13 C13            2.1416    -0.8327     1.3392 C.ar    
  14 C14            3.2132    -1.6952     1.2514 C.ar    
  15 C15            3.8163    -1.9339     0.0235 C.ar    
  16 C16            3.3421    -1.3042    -1.1220 C.ar    
  17 C17            2.2666    -0.4454    -1.0431 C.ar    
  18 O18            4.8724    -2.7841    -0.0586 O.3     
  19 C19            5.2309    -3.4901     1.1309 C.3     
  20 F20           -4.4875     2.0134    -1.1131 F       
  21 F21           -6.2513     3.0763    -0.1238 F       
  22 F22           -4.6903     4.2832    -1.2753 F       
  23 C23            5.9772    -4.7865     0.7699 C.3     
  24 C24            7.3778    -4.6809     1.4078 C.3     
  25 C25            7.1902    -3.6770     2.5722 C.3     
  26 C26            6.2041    -2.6421     1.9757 C.3     
  27 Cl27           4.1004    -1.6059    -2.6542 Cl      
  28 C28            1.9484     2.6171    -0.3869 C.1     
  29 N29            2.9601     3.0347    -0.6912 N.1     
  30 H30           -0.8943    -0.7967     0.8773 H       
  31 H31           -2.7767     0.6879     1.0295 H       
  32 H32           -2.3854     5.5536     0.0504 H       
  33 H33           -4.2335     2.4754     1.4812 H       
  34 H34           -4.3915     4.2438     1.3549 H       
  35 H35            1.6738    -0.6474     2.2948 H       
  36 H36            3.5845    -2.1859     2.1389 H       
  37 H37            1.8982     0.0432    -1.9331 H       
  38 H38            4.3375    -3.7227     1.7104 H       
  39 H39            5.4464    -5.6480     1.1748 H       
  40 H40            6.0659    -4.8770    -0.3128 H       
  41 H41            7.6977    -5.6510     1.7883 H       
  42 H42            8.0981    -4.2970     0.6854 H       
  43 H43            6.7539    -4.1701     3.4409 H       
  44 H44            8.1374    -3.2036     2.8305 H       
  45 H45            6.7348    -1.9289     1.3450 H       
  46 H46            5.6674    -2.1242     2.7707 H       
@<TRIPOS>BOND
   1    1    2 2
   2    1   28 1
   3    1    6 1
   4    2    3 1
   5    2   12 1
   6    3    4 2
   7    3   30 1
   8    4    5 1
   9    4   31 1
  10    5    6 1
  11    5    7 1
  12    6    9 2
  13    7    8 2
  14    7   10 1
  15    8    9 1
  16    8   32 1
  17   10   11 1
  18   10   33 1
  19   10   34 1
  20   11   20 1
  21   11   21 1
  22   11   22 1
  23   12   13 ar
  24   12   17 ar
  25   13   14 ar
  26   13   35 1
  27   14   15 ar
  28   14   36 1
  29   15   16 ar
  30   15   18 1
  31   16   17 ar
  32   16   27 1
  33   17   37 1
  34   18   19 1
  35   19   23 1
  36   19   26 1
  37   19   38 1
  38   23   24 1
  39   23   39 1
  40   23   40 1
  41   24   25 1
  42   24   41 1
  43   24   42 1
  44   25   26 1
  45   25   43 1
  46   25   44 1
  47   26   45 1
  48   26   46 1
  49   28   29 3

#	End of record

