#	Name: ASD01910781
#	Creating user name:	WinNT
#	Creation time:	15. 06. 2019 19:56

#	Modifying user name:	WinNT
#	Modification time:	15. 06. 2019 19:56

#	Program:	/corina/corina34_cracker 3.40 0067  02.08.2006

@<TRIPOS>MOLECULE
ASD01910781
  53   56    0    0    0
SMALL
NO_CHARGES


@<TRIPOS>ATOM
   1 C1             0.1752     2.2024    -1.0976 C.ar    
   2 N2             0.0804     1.1292    -0.3307 N.ar    
   3 C3             1.1307     0.3516    -0.1485 C.ar    
   4 C4             2.3403     0.6627    -0.7653 C.ar    
   5 N5             2.4308     1.7405    -1.5339 N.ar    
   6 C6             1.3736     2.5144    -1.7112 C.ar    
   7 N7             3.4495    -0.1533    -0.5758 N.3     
   8 C8             4.6834     0.6414    -0.5140 C.3     
   9 C9             5.8539    -0.2681    -0.1255 C.3     
  10 N10            5.8922    -1.4045    -1.0584 N.am    
  11 C11            4.6537    -2.1669    -1.2776 C.3     
  12 C12            3.5304    -1.1827    -1.6207 C.3     
  13 C13            7.0318    -1.7381    -1.6959 C.2     
  14 C14            7.0866    -2.9653    -2.5189 C.ar    
  15 O15            8.0146    -1.0300    -1.5944 O.2     
  16 C16            7.8243    -2.9803    -3.7048 C.ar    
  17 C17            7.8767    -4.1252    -4.4756 C.ar    
  18 C18            7.2015    -5.2623    -4.0809 C.ar    
  19 C19            6.4589    -5.2620    -2.8958 C.ar    
  20 C20            6.4073    -4.1108    -2.1100 C.ar    
  21 C21            5.7579    -6.4421    -2.4874 C.1     
  22 C22            5.1832    -7.4095    -2.1527 C.1     
  23 C23            4.4823    -8.5896    -1.7443 C.ar    
  24 N24            3.7782    -8.5820    -0.6165 N.ar    
  25 C25            3.1201    -9.6470    -0.2072 C.ar    
  26 C26            3.1378   -10.8191    -0.9408 C.ar    
  27 C27            3.8603   -10.8719    -2.1255 C.ar    
  28 C28            4.5384    -9.7391    -2.5370 C.ar    
  29 C29            1.0220    -0.8709     0.7260 C.3     
  30 C30            1.4755     3.7388    -2.5840 C.3     
  31 H31           -0.6875     2.8343    -1.2483 H       
  32 H32            4.8777     1.0878    -1.4892 H       
  33 H33            4.5718     1.4290     0.2312 H       
  34 H34            6.7880     0.2899    -0.1896 H       
  35 H35            5.7116    -0.6338     0.8914 H       
  36 H36            4.7943    -2.8644    -2.1034 H       
  37 H37            4.3960    -2.7152    -0.3714 H       
  38 H38            2.5827    -1.7180    -1.6781 H       
  39 H39            3.7408    -0.7109    -2.5805 H       
  40 H40            8.3548    -2.0940    -4.0202 H       
  41 H41            8.4484    -4.1305    -5.3918 H       
  42 H42            7.2465    -6.1541    -4.6885 H       
  43 H43            5.8355    -4.1044    -1.1938 H       
  44 H44            2.5589    -9.6044     0.7146 H       
  45 H45            2.5946   -11.6862    -0.5952 H       
  46 H46            3.8888   -11.7766    -2.7147 H       
  47 H47            5.1098    -9.7452    -3.4534 H       
  48 H48            0.6352    -1.7041     0.1392 H       
  49 H49            2.0070    -1.1275     1.1158 H       
  50 H50            0.3453    -0.6654     1.5553 H       
  51 H51            1.2272     3.4740    -3.6118 H       
  52 H52            0.7805     4.4986    -2.2266 H       
  53 H53            2.4924     4.1292    -2.5449 H       
@<TRIPOS>BOND
   1    1    2 ar
   2    1    6 ar
   3    1   31 1
   4    2    3 ar
   5    3    4 ar
   6    3   29 1
   7    4    5 ar
   8    4    7 1
   9    5    6 ar
  10    6   30 1
  11    7    8 1
  12    7   12 1
  13    8    9 1
  14    8   32 1
  15    8   33 1
  16    9   10 1
  17    9   34 1
  18    9   35 1
  19   10   11 1
  20   10   13 am
  21   11   12 1
  22   11   36 1
  23   11   37 1
  24   12   38 1
  25   12   39 1
  26   13   14 1
  27   13   15 2
  28   14   16 ar
  29   14   20 ar
  30   16   17 ar
  31   16   40 1
  32   17   18 ar
  33   17   41 1
  34   18   19 ar
  35   18   42 1
  36   19   20 ar
  37   19   21 1
  38   20   43 1
  39   21   22 3
  40   22   23 1
  41   23   24 ar
  42   23   28 ar
  43   24   25 ar
  44   25   26 ar
  45   25   44 1
  46   26   27 ar
  47   26   45 1
  48   27   28 ar
  49   27   46 1
  50   28   47 1
  51   29   48 1
  52   29   49 1
  53   29   50 1
  54   30   51 1
  55   30   52 1
  56   30   53 1

#	End of record

