#	Name: ASD04910425
#	Creating user name:	WinNT
#	Creation time:	15. 06. 2019 20:55

#	Modifying user name:	WinNT
#	Modification time:	15. 06. 2019 20:55

#	Program:	/corina/corina34_cracker 3.40 0067  02.08.2006

@<TRIPOS>MOLECULE
ASD04910425
  67   70    0    0    0
SMALL
NO_CHARGES


@<TRIPOS>ATOM
   1 C1            -1.3693     1.3315    -0.8401 C.2     
   2 C2            -1.2064    -0.1651    -0.7700 C.3     
   3 C3             0.2791    -0.5114    -0.6508 C.3     
   4 O4            -0.3970     2.0476    -0.7989 O.2     
   5 O5            -2.5941     1.8687    -0.9538 O.3     
   6 C6             1.6676    -2.5058    -0.4742 C.2     
   7 C7             1.8274    -3.9740    -0.4054 C.ar    
   8 C8             3.1001    -4.5361    -0.2930 C.ar    
   9 C9             3.2422    -5.9068    -0.2288 C.ar    
  10 C10            2.1267    -6.7240    -0.2762 C.ar    
  11 C11            0.8623    -6.1732    -0.3877 C.ar    
  12 C12            0.7059    -4.8038    -0.4469 C.ar    
  13 O13            2.6458    -1.7854    -0.4327 O.2     
  14 N14            0.4374    -1.9662    -0.5827 N.am    
  15 C15            2.2896    -8.2205    -0.2067 C.3     
  16 C16            1.9959    -8.6999     1.2163 C.3     
  17 C17            2.2815   -10.1995     1.3184 C.3     
  18 C18            1.9879   -10.6789     2.7414 C.3     
  19 O19            1.3788    -8.8416    -1.1160 O.3     
  20 C20            1.7968    -9.9825    -1.7251 C.ar    
  21 C21            3.0811   -10.4583    -1.5005 C.ar    
  22 C22            3.5060   -11.6170    -2.1184 C.ar    
  23 C23            2.6479   -12.3070    -2.9651 C.ar    
  24 C24            1.3631   -11.8305    -3.1894 C.ar    
  25 C25            0.9375   -10.6742    -2.5666 C.ar    
  26 C26            4.9007   -12.1331    -1.8748 C.3     
  27 N27            3.7449   -14.5367    -2.9562 N.2     
  28 N28            3.0789   -13.4833    -3.5931 N.pl3   
  29 C29            2.9134   -13.7673    -4.8948 C.2     
  30 C30            3.4683   -15.0114    -5.1318 C.ar    
  31 C31            3.6081   -15.8379    -6.2670 C.ar    
  32 C32            4.2260   -17.0399    -6.1472 C.ar    
  33 C33            4.7316   -17.4869    -4.9245 C.ar    
  34 C34            4.6314   -16.7432    -3.7941 C.ar    
  35 C35            4.0010   -15.4819    -3.8433 C.ar    
  36 C36           -2.6755     3.3171    -1.0158 C.3     
  37 H37           -1.7398    -0.5483     0.0999 H       
  38 H38           -1.6136    -0.6176    -1.6742 H       
  39 H39            0.8124    -0.1282    -1.5208 H       
  40 H40            0.6862    -0.0589     0.2534 H       
  41 H41            3.9716    -3.8993    -0.2566 H       
  42 H42            4.2263    -6.3430    -0.1418 H       
  43 H43           -0.0044    -6.8166    -0.4241 H       
  44 H44           -0.2819    -4.3750    -0.5294 H       
  45 H45           -0.3432    -2.5411    -0.6158 H       
  46 H46            3.3113    -8.4877    -0.4765 H       
  47 H47            2.6304    -8.1605     1.9196 H       
  48 H48            0.9488    -8.5125     1.4541 H       
  49 H49            1.6471   -10.7389     0.6151 H       
  50 H50            3.3287   -10.3870     1.0807 H       
  51 H51            2.1914   -11.7473     2.8142 H       
  52 H52            2.6223   -10.1395     3.4447 H       
  53 H53            0.9408   -10.4915     2.9791 H       
  54 H54            3.7483    -9.9215    -0.8424 H       
  55 H55            0.6955   -12.3664    -3.8479 H       
  56 H56           -0.0633   -10.3059    -2.7375 H       
  57 H57            4.9060   -12.7584    -0.9820 H       
  58 H58            5.2252   -12.7220    -2.7328 H       
  59 H59            5.5798   -11.2923    -1.7335 H       
  60 H60            2.4318   -13.1361    -5.6270 H       
  61 H61            3.2256   -15.5161    -7.2244 H       
  62 H62            4.3291   -17.6675    -7.0200 H       
  63 H63            5.2155   -18.4513    -4.8774 H       
  64 H64            5.0314   -17.1146    -2.8622 H       
  65 H65           -2.2517     3.7441    -0.1068 H       
  66 H66           -2.1170     3.6757    -1.8804 H       
  67 H67           -3.7190     3.6188    -1.1066 H       
@<TRIPOS>BOND
   1    1    2 1
   2    1    4 2
   3    1    5 1
   4    2    3 1
   5    2   37 1
   6    2   38 1
   7    3   14 1
   8    3   39 1
   9    3   40 1
  10    5   36 1
  11    6    7 1
  12    6   13 2
  13    6   14 am
  14    7    8 ar
  15    7   12 ar
  16    8    9 ar
  17    8   41 1
  18    9   10 ar
  19    9   42 1
  20   10   11 ar
  21   10   15 1
  22   11   12 ar
  23   11   43 1
  24   12   44 1
  25   14   45 1
  26   15   16 1
  27   15   19 1
  28   15   46 1
  29   16   17 1
  30   16   47 1
  31   16   48 1
  32   17   18 1
  33   17   49 1
  34   17   50 1
  35   18   51 1
  36   18   52 1
  37   18   53 1
  38   19   20 1
  39   20   21 ar
  40   20   25 ar
  41   21   22 ar
  42   21   54 1
  43   22   23 ar
  44   22   26 1
  45   23   24 ar
  46   23   28 1
  47   24   25 ar
  48   24   55 1
  49   25   56 1
  50   26   57 1
  51   26   58 1
  52   26   59 1
  53   27   28 1
  54   27   35 2
  55   28   29 1
  56   29   30 2
  57   29   60 1
  58   30   31 ar
  59   30   35 ar
  60   31   32 ar
  61   31   61 1
  62   32   33 ar
  63   32   62 1
  64   33   34 ar
  65   33   63 1
  66   34   35 ar
  67   34   64 1
  68   36   65 1
  69   36   66 1
  70   36   67 1

#	End of record

