#	Name: ASD08070143
#	Creating user name:	WinNT
#	Creation time:	15. 06. 2019 21:14

#	Modifying user name:	WinNT
#	Modification time:	15. 06. 2019 21:14

#	Program:	/corina/corina34_cracker 3.40 0067  02.08.2006

@<TRIPOS>MOLECULE
ASD08070143
  40   42    0    0    0
SMALL
NO_CHARGES


@<TRIPOS>ATOM
   1 C1            -0.0167     1.3808     0.0096 C.ar    
   2 C2             0.0021    -0.0041     0.0020 C.ar    
   3 C3             1.2035    -0.6865    -0.0126 C.ar    
   4 C4             2.4012     0.0145    -0.0203 C.ar    
   5 C5             2.3854     1.4157    -0.0131 C.ar    
   6 C6             1.1635     2.0925     0.0022 C.ar    
   7 O7             3.5819    -0.6538    -0.0342 O.3     
   8 N8             3.6327     3.5195    -0.0136 N.am    
   9 C9             3.6522     2.1719    -0.0206 C.2     
  10 C10            5.9741     3.3304    -2.0433 C.ar    
  11 C11            5.3680     4.4257    -1.4413 C.ar    
  12 C12            4.8906     4.2704    -0.0211 C.3     
  13 C13            6.4264     3.4068    -3.3442 C.ar    
  14 C14            6.2738     4.5821    -4.0562 C.ar    
  15 C15            5.6732     5.6712    -3.4597 C.ar    
  16 C16            5.2209     5.5977    -2.1484 C.ar    
  17 C17            4.5890     6.8292    -1.5542 C.3     
  18 C18            3.7780     6.4702    -0.3108 C.3     
  19 C19            4.6651     5.6373     0.6220 C.3     
  20 C20            3.9701     5.4624     1.9738 C.3     
  21 O21            4.7139     1.5794    -0.0331 O.2     
  22 Cl22           1.2147    -2.4225    -0.0209 Cl      
  23 H23           -0.9607     1.9055     0.0169 H       
  24 H24           -0.9276    -0.5537     0.0079 H       
  25 H25            1.1437     3.1723     0.0075 H       
  26 H26            3.9161    -0.8433    -0.9216 H       
  27 H27            2.7857     3.9922    -0.0037 H       
  28 H28            6.0962     2.4129    -1.4869 H       
  29 H29            5.6392     3.7232     0.5519 H       
  30 H30            6.8985     2.5515    -3.8048 H       
  31 H31            6.6240     4.6473    -5.0758 H       
  32 H32            5.5540     6.5888    -4.0167 H       
  33 H33            5.3707     7.5381    -1.2811 H       
  34 H34            3.9311     7.2874    -2.2925 H       
  35 H35            3.4640     7.3814     0.1983 H       
  36 H36            2.9017     5.8897    -0.5991 H       
  37 H37            5.6224     6.1391     0.7631 H       
  38 H38            3.0179     4.9519     1.8294 H       
  39 H39            4.6035     4.8699     2.6340 H       
  40 H40            3.7938     6.4407     2.4209 H       
@<TRIPOS>BOND
   1    1    2 ar
   2    1    6 ar
   3    1   23 1
   4    2    3 ar
   5    2   24 1
   6    3    4 ar
   7    3   22 1
   8    4    5 ar
   9    4    7 1
  10    5    6 ar
  11    5    9 1
  12    6   25 1
  13    7   26 1
  14    8    9 am
  15    8   12 1
  16    8   27 1
  17    9   21 2
  18   10   11 ar
  19   10   13 ar
  20   10   28 1
  21   11   12 1
  22   11   16 ar
  23   12   19 1
  24   12   29 1
  25   13   14 ar
  26   13   30 1
  27   14   15 ar
  28   14   31 1
  29   15   16 ar
  30   15   32 1
  31   16   17 1
  32   17   18 1
  33   17   33 1
  34   17   34 1
  35   18   19 1
  36   18   35 1
  37   18   36 1
  38   19   20 1
  39   19   37 1
  40   20   38 1
  41   20   39 1
  42   20   40 1

#	End of record

