#	Name: ASD04170012
#	Creating user name:	WinNT
#	Creation time:	15. 06. 2019 20:48

#	Modifying user name:	WinNT
#	Modification time:	15. 06. 2019 20:48

#	Program:	/corina/corina34_cracker 3.40 0067  02.08.2006

@<TRIPOS>MOLECULE
ASD04170012
  36   38    0    0    0
SMALL
NO_CHARGES


@<TRIPOS>ATOM
   1 Cl1            0.0021    -0.0041     0.0020 Cl      
   2 C2            -0.0215     1.7317     0.0116 C.ar    
   3 C3             1.1687     2.4390     0.0040 C.ar    
   4 C4             1.1581     3.8225     0.0115 C.ar    
   5 C5            -0.0398     4.5064     0.0271 C.ar    
   6 C6            -1.2438     3.7999     0.0348 C.ar    
   7 C7            -1.2274     2.4047     0.0209 C.ar    
   8 C8            -2.5310     4.5271     0.0520 C.2     
   9 O9            -2.5424     5.7425     0.0595 O.2     
  10 N10           -3.6918     3.8422     0.0594 N.am    
  11 C11           -4.9672     4.5627     0.0764 C.3     
  12 C12           -5.3662     4.9331    -1.3538 C.3     
  13 N13           -6.6521     4.3178    -1.6910 N.4     
  14 C14           -7.7071     4.8068    -0.8002 C.3     
  15 C15           -7.3857     4.4316     0.6482 C.3     
  16 C16           -6.0568     3.6652     0.6776 C.3     
  17 C17           -6.1981     2.4182    -0.2051 C.3     
  18 C18           -6.5577     2.8575    -1.6262 C.3     
  19 H19            2.1094     1.9085    -0.0075 H       
  20 H20            2.0900     4.3684     0.0056 H       
  21 H21           -0.0462     5.5863     0.0337 H       
  22 H22           -2.1554     1.8523     0.0264 H       
  23 H23           -3.6827     2.8723     0.0534 H       
  24 H24           -4.8669     5.4689     0.6739 H       
  25 H25           -5.4508     6.0166    -1.4366 H       
  26 H26           -4.6027     4.5777    -2.0458 H       
  27 H27           -6.8898     4.5734    -2.6377 H       
  28 H28           -7.7787     5.8911    -0.8855 H       
  29 H29           -8.6588     4.3595    -1.0871 H       
  30 H30           -7.2989     5.3366     1.2493 H       
  31 H31           -8.1801     3.8007     1.0469 H       
  32 H32           -5.8000     3.3937     1.7016 H       
  33 H33           -5.2550     1.8719    -0.2193 H       
  34 H34           -6.9871     1.7784     0.1901 H       
  35 H35           -7.5155     2.4203    -1.9084 H       
  36 H36           -5.7876     2.5138    -2.3168 H       
@<TRIPOS>BOND
   1    1    2 1
   2    2    3 ar
   3    2    7 ar
   4    3    4 ar
   5    3   19 1
   6    4    5 ar
   7    4   20 1
   8    5    6 ar
   9    5   21 1
  10    6    7 ar
  11    6    8 1
  12    7   22 1
  13    8    9 2
  14    8   10 am
  15   10   11 1
  16   10   23 1
  17   11   12 1
  18   11   16 1
  19   11   24 1
  20   12   13 1
  21   12   25 1
  22   12   26 1
  23   13   14 1
  24   13   18 1
  25   13   27 1
  26   14   15 1
  27   14   28 1
  28   14   29 1
  29   15   16 1
  30   15   30 1
  31   15   31 1
  32   16   17 1
  33   16   32 1
  34   17   18 1
  35   17   33 1
  36   17   34 1
  37   18   35 1
  38   18   36 1

#	End of record

