#	Name: ASD04590668
#	Creating user name:	WinNT
#	Creation time:	15. 06. 2019 20:51

#	Modifying user name:	WinNT
#	Modification time:	15. 06. 2019 20:51

#	Program:	/corina/corina34_cracker 3.40 0067  02.08.2006

@<TRIPOS>MOLECULE
ASD04590668
  60   65    0    0    0
SMALL
NO_CHARGES


@<TRIPOS>ATOM
   1 N1            -0.0407     1.3186    -0.2447 N.ar    
   2 C2            -0.0092    -0.0031    -0.1308 C.ar    
   3 N3             1.1236    -0.6868    -0.1393 N.ar    
   4 C4             2.2906    -0.0619    -0.2651 C.ar    
   5 C5             2.2909     1.3422    -0.3886 C.ar    
   6 C6             1.0748     2.0179    -0.3739 C.ar    
   7 N7             3.5904    -0.5007    -0.3053 N.pl3   
   8 C8             4.4577     0.5693    -0.4520 C.ar    
   9 C9             3.6967     1.7491    -0.5097 C.ar    
  10 N10           -1.2040    -0.6910     0.0022 N.pl3   
  11 C11           -2.4029     0.0110     0.1253 C.ar    
  12 C12            4.0026    -1.9031    -0.2062 C.3     
  13 C13            3.5338    -2.4968     1.1338 C.3     
  14 N14           -2.3815     1.3308     0.2175 N.ar    
  15 C15           -3.4908     2.0359     0.3349 C.ar    
  16 C16           -4.7282     1.4107     0.3665 C.ar    
  17 C17           -4.7903     0.0212     0.2719 C.ar    
  18 C18           -3.6074    -0.6837     0.1441 C.ar    
  19 N19           -5.9005     2.1655     0.4922 N.3     
  20 C20           -6.5870     1.8654     1.7564 C.3     
  21 C21           -7.8173     2.7658     1.8920 C.3     
  22 N22           -8.7105     2.5462     0.7460 N.3     
  23 C23           -8.0240     2.8463    -0.5183 C.3     
  24 C24           -6.7938     1.9459    -0.6538 C.3     
  25 C25            5.8426     0.6682    -0.5447 C.ar    
  26 N26            6.4225     1.8449    -0.6834 N.ar    
  27 C27            5.7338     2.9718    -0.7408 C.ar    
  28 C28            4.3585     2.9686    -0.6567 C.ar    
  29 F29            6.5993    -0.4498    -0.4918 F       
  30 C30            2.5882    -3.6664     0.7909 C.3     
  31 C31            3.0095    -4.0889    -0.6385 C.3     
  32 C32            3.3255    -2.7326    -1.3166 C.3     
  33 C33           -3.4119     3.5374     0.4365 C.3     
  34 H34            1.0420     3.0934    -0.4668 H       
  35 H35           -1.2069    -1.6610     0.0096 H       
  36 H36            5.0866    -1.9802    -0.2898 H       
  37 H37            4.3903    -2.8628     1.7001 H       
  38 H38            2.9997    -1.7415     1.7104 H       
  39 H39           -5.7401    -0.4924     0.2940 H       
  40 H40           -3.6184    -1.7610     0.0680 H       
  41 H41           -6.8985     0.8209     1.7621 H       
  42 H42           -5.9093     2.0477     2.5905 H       
  43 H43           -8.3442     2.5249     2.8152 H       
  44 H44           -7.5035     3.8094     1.9137 H       
  45 H45           -9.0736     1.6048     0.7457 H       
  46 H46           -8.7017     2.6640    -1.3523 H       
  47 H47           -7.7126     3.8908    -0.5239 H       
  48 H48           -6.2668     2.1868    -1.5771 H       
  49 H49           -7.1076     0.9023    -0.6756 H       
  50 H50            6.2573     3.9095    -0.8550 H       
  51 H51            3.8027     3.8934    -0.7044 H       
  52 H52            2.7314    -4.4903     1.4900 H       
  53 H53            1.5504    -3.3331     0.7999 H       
  54 H54            3.8965    -4.7217    -0.6086 H       
  55 H55            2.1900    -4.5945    -1.1492 H       
  56 H56            2.4068    -2.2486    -1.6480 H       
  57 H57            4.0067    -2.8751    -2.1555 H       
  58 H58           -3.3680     3.9674    -0.5642 H       
  59 H59           -4.2939     3.9133     0.9551 H       
  60 H60           -2.5169     3.8175     0.9919 H       
@<TRIPOS>BOND
   1    1    2 ar
   2    1    6 ar
   3    2    3 ar
   4    2   10 1
   5    3    4 ar
   6    4    5 ar
   7    4    7 1
   8    5    6 ar
   9    5    9 1
  10    6   34 1
  11    7    8 1
  12    7   12 1
  13    8    9 ar
  14    8   25 ar
  15    9   28 ar
  16   10   11 1
  17   10   35 1
  18   11   14 ar
  19   11   18 ar
  20   12   13 1
  21   12   32 1
  22   12   36 1
  23   13   30 1
  24   13   37 1
  25   13   38 1
  26   14   15 ar
  27   15   16 ar
  28   15   33 1
  29   16   17 ar
  30   16   19 1
  31   17   18 ar
  32   17   39 1
  33   18   40 1
  34   19   20 1
  35   19   24 1
  36   20   21 1
  37   20   41 1
  38   20   42 1
  39   21   22 1
  40   21   43 1
  41   21   44 1
  42   22   23 1
  43   22   45 1
  44   23   24 1
  45   23   46 1
  46   23   47 1
  47   24   48 1
  48   24   49 1
  49   25   26 ar
  50   25   29 1
  51   26   27 ar
  52   27   28 ar
  53   27   50 1
  54   28   51 1
  55   30   31 1
  56   30   52 1
  57   30   53 1
  58   31   32 1
  59   31   54 1
  60   31   55 1
  61   32   56 1
  62   32   57 1
  63   33   58 1
  64   33   59 1
  65   33   60 1

#	End of record

