#	Name: ASD05940052
#	Creating user name:	WinNT
#	Creation time:	15. 06. 2019 21:04

#	Modifying user name:	WinNT
#	Modification time:	15. 06. 2019 21:04

#	Program:	/corina/corina34_cracker 3.40 0067  02.08.2006

@<TRIPOS>MOLECULE
ASD05940052
  64   67    0    0    0
SMALL
NO_CHARGES


@<TRIPOS>ATOM
   1 N1            -0.0159     1.3198     0.0093 N.ar    
   2 C2             0.0021    -0.0041     0.0020 C.ar    
   3 N3             1.1343    -0.6929    -0.0049 N.ar    
   4 C4             2.3070    -0.0659    -0.0042 C.ar    
   5 C5             2.3273     1.3282    -0.0113 C.ar    
   6 C6             1.1194     2.0187     0.0022 C.ar    
   7 N7             3.4958    -0.7738     0.0264 N.3     
   8 N8             3.5579     2.0074    -0.0504 N.am    
   9 N9             1.0969     3.4068     0.0078 N.pl3   
  10 N10           -1.2012    -0.6913     0.0021 N.pl3   
  11 C11            3.2909    -2.1235     0.5689 C.3     
  12 C12           -2.4665     0.0472     0.0102 C.3     
  13 C13           -3.6341    -0.9416     0.0085 C.3     
  14 C14           -4.9554    -0.1704     0.0169 C.3     
  15 C15           -6.1230    -1.1591     0.0152 C.3     
  16 C16            2.8936    -2.0270     2.0194 C.ar    
  17 C17            1.5586    -1.9359     2.3656 C.ar    
  18 C18            1.1941    -1.8474     3.6963 C.ar    
  19 C19            2.1646    -1.8503     4.6804 C.ar    
  20 C20            3.5000    -1.9424     4.3341 C.ar    
  21 C21            3.8641    -2.0353     3.0040 C.ar    
  22 C22            4.5582    -1.9452     5.4070 C.3     
  23 C23            4.4718     1.6212    -0.9676 C.2     
  24 C24            4.1160     0.5425    -1.9555 C.3     
  25 C25            4.1475    -0.8283    -1.2856 C.3     
  26 O26            5.5686     2.1390    -0.9950 O.2     
  27 N27            4.8255    -3.3271     5.8275 N.3     
  28 C28            6.0138    -3.3940     6.6979 C.3     
  29 C29            5.5738    -4.0524     8.0224 C.3     
  30 C30            4.2980    -4.8362     7.6162 C.3     
  31 C31            3.6721    -3.8901     6.5614 C.3     
  32 H32            3.7457     2.7335     0.5647 H       
  33 H33            1.9289     3.9054     0.0022 H       
  34 H34            0.2491     3.8781     0.0172 H       
  35 H35           -1.2058    -1.6612    -0.0032 H       
  36 H36            2.5014    -2.6244     0.0085 H       
  37 H37            4.2157    -2.6940     0.4827 H       
  38 H38           -2.5184     0.6692     0.9037 H       
  39 H39           -2.5241     0.6789    -0.8762 H       
  40 H40           -3.5821    -1.5636    -0.8851 H       
  41 H41           -3.5764    -1.5733     0.8949 H       
  42 H42           -5.0074     0.4517     0.9105 H       
  43 H43           -5.0131     0.4614    -0.8695 H       
  44 H44           -6.0711    -1.7812    -0.8783 H       
  45 H45           -6.0654    -1.7909     0.9016 H       
  46 H46           -7.0644    -0.6097     0.0212 H       
  47 H47            0.8002    -1.9336     1.5967 H       
  48 H48            0.1510    -1.7755     3.9668 H       
  49 H49            1.8799    -1.7804     5.7198 H       
  50 H50            4.9072    -2.1072     2.7334 H       
  51 H51            5.4735    -1.5009     5.0157 H       
  52 H52            4.2100    -1.3660     6.2622 H       
  53 H53            3.1157     0.7287    -2.3466 H       
  54 H54            4.8315     0.5575    -2.7776 H       
  55 H55            5.1833    -1.1434    -1.1598 H       
  56 H56            3.6269    -1.5489    -1.9162 H       
  57 H57            6.7876    -3.9972     6.2231 H       
  58 H58            6.3897    -2.3891     6.8902 H       
  59 H59            6.3431    -4.7319     8.3892 H       
  60 H60            5.3390    -3.2948     8.7700 H       
  61 H61            4.5553    -5.7986     7.1738 H       
  62 H62            3.6314    -4.9659     8.4688 H       
  63 H63            3.1092    -3.0953     7.0509 H       
  64 H64            3.0281    -4.4504     5.8837 H       
@<TRIPOS>BOND
   1    1    2 ar
   2    1    6 ar
   3    2    3 ar
   4    2   10 1
   5    3    4 ar
   6    4    5 ar
   7    4    7 1
   8    5    6 ar
   9    5    8 1
  10    6    9 1
  11    7   11 1
  12    7   25 1
  13    8   23 am
  14    8   32 1
  15    9   33 1
  16    9   34 1
  17   10   12 1
  18   10   35 1
  19   11   16 1
  20   11   36 1
  21   11   37 1
  22   12   13 1
  23   12   38 1
  24   12   39 1
  25   13   14 1
  26   13   40 1
  27   13   41 1
  28   14   15 1
  29   14   42 1
  30   14   43 1
  31   15   44 1
  32   15   45 1
  33   15   46 1
  34   16   17 ar
  35   16   21 ar
  36   17   18 ar
  37   17   47 1
  38   18   19 ar
  39   18   48 1
  40   19   20 ar
  41   19   49 1
  42   20   21 ar
  43   20   22 1
  44   21   50 1
  45   22   27 1
  46   22   51 1
  47   22   52 1
  48   23   24 1
  49   23   26 2
  50   24   25 1
  51   24   53 1
  52   24   54 1
  53   25   55 1
  54   25   56 1
  55   27   28 1
  56   27   31 1
  57   28   29 1
  58   28   57 1
  59   28   58 1
  60   29   30 1
  61   29   59 1
  62   29   60 1
  63   30   31 1
  64   30   61 1
  65   30   62 1
  66   31   63 1
  67   31   64 1

#	End of record

