#	Name: ASD01660002
#	Creating user name:	WinNT
#	Creation time:	15. 06. 2019 19:22

#	Modifying user name:	WinNT
#	Modification time:	15. 06. 2019 19:22

#	Program:	/corina/corina34_cracker 3.40 0067  02.08.2006

@<TRIPOS>MOLECULE
ASD01660002
 149  153    0    0    0
SMALL
NO_CHARGES


@<TRIPOS>ATOM
   1 O1            -0.7767    -2.9242    -9.0723 O.2     
   2 O2             0.7546    -3.1250   -11.3020 O.2     
   3 O3            -2.5201    -2.9797    -6.9952 O.2     
   4 O4            -2.4714     2.6258     2.8949 O.2     
   5 O5            -0.5863     3.6711     4.7650 O.2     
   6 O6             0.3063     2.7548     1.5046 O.3     
   7 O7            -3.0726     0.8006    -4.2107 O.2     
   8 O8            -1.3404    -0.7350    -0.2085 O.2     
   9 O9            -1.2032     5.0686     9.0003 O.2     
  10 O10           -1.3413     8.3663    11.7220 O.3     
  11 O11           -2.2937     8.1191     9.7433 O.2     
  12 N12           -2.8849    -2.4188    -9.5433 N.am    
  13 N13           -0.4423    -4.9144   -10.7657 N.am    
  14 N14           -1.5314     1.2436     4.3536 N.am    
  15 N15           -2.8753    -0.9628    -6.1420 N.am    
  16 N16            3.0402    -4.3906   -11.7896 N.3     
  17 N17           -1.7383     4.1797     6.5915 N.am    
  18 N18           -1.9604     1.1826     0.7191 N.am    
  19 N19           -2.6217    -0.5212    -2.4869 N.am    
  20 N20            5.3605    -7.2307    -8.0720 N.2     
  21 N21           -0.2936     7.0177     8.4564 N.am    
  22 N22            6.6008    -5.4735    -7.2031 N.pl3   
  23 N23            7.6383    -7.5425    -7.7630 N.pl3   
  24 N24            4.7793     8.0305     9.1612 N.2     
  25 N25            4.9286     9.5847     7.4455 N.pl3   
  26 N26            6.4866     7.7912     7.6091 N.pl3   
  27 C27           -1.7600    -4.2625   -10.7491 C.3     
  28 C28           -2.7985    -5.3382   -10.3671 C.3     
  29 C29           -3.0328    -1.3132    -8.5856 C.3     
  30 C30           -1.9408    -6.4059    -9.6377 C.3     
  31 C31           -0.6166    -6.3414   -10.4390 C.3     
  32 C32           -4.4780    -0.7870    -8.7129 C.3     
  33 C33           -4.1552    -2.5856   -10.2727 C.3     
  34 C34           -1.7707    -3.1543    -9.7279 C.2     
  35 C35           -5.2335    -1.9927    -9.3318 C.3     
  36 C36            0.7302    -4.3089   -11.0399 C.2     
  37 C37           -2.7908    -1.8128    -7.1846 C.2     
  38 C38            2.0108    -5.1030   -11.0209 C.3     
  39 C39           -1.9630     1.9349     5.5773 C.3     
  40 C40            2.4821    -5.2763    -9.5757 C.3     
  41 C41           -1.4414     1.1140     6.7755 C.3     
  42 C42           -0.2631     0.3129     6.1613 C.3     
  43 C43           -0.7927     0.0258     4.7342 C.3     
  44 C44            3.7118    -6.1862    -9.5459 C.3     
  45 C45           -2.6400    -1.4485    -4.7801 C.3     
  46 C46           -1.7755     1.6524     3.0928 C.2     
  47 C47           -1.3792     3.3237     5.6144 C.2     
  48 C48           -1.1838     0.9000     1.9288 C.3     
  49 C49            4.1831    -6.3595    -8.1006 C.3     
  50 C50           -2.7939    -0.3084    -3.8066 C.2     
  51 C51           -1.1030     5.4967     6.6816 C.3     
  52 C52           -2.7713     0.5871    -1.5406 C.3     
  53 C53            0.2657     1.3426     1.7193 C.3     
  54 C54           -1.9725     0.2964    -0.2962 C.2     
  55 C55           -2.0147     6.5474     6.0446 C.3     
  56 C56           -4.2477     0.7479    -1.1728 C.3     
  57 C57           -0.8707     5.8445     8.1294 C.2     
  58 C58           -2.1393     6.2754     4.5676 C.ar    
  59 C59           -5.0279     1.1591    -2.3949 C.ar    
  60 C60           -0.0678     7.3557     9.8639 C.3     
  61 C61            6.5122    -6.7575    -7.6864 C.2     
  62 C62            1.0902     8.3500     9.9702 C.3     
  63 C63           -3.1446     5.4502     4.0992 C.ar    
  64 C64           -1.2519     6.8556     3.6807 C.ar    
  65 C65           -5.5772     0.1961    -3.2205 C.ar    
  66 C66           -5.1990     2.4993    -2.6871 C.ar    
  67 C67            2.3832     7.6789     9.5026 C.3     
  68 C68           -1.3159     7.9749    10.4383 C.2     
  69 C69           -3.2589     5.2006     2.7444 C.ar    
  70 C70           -1.3662     6.6060     2.3259 C.ar    
  71 C71           -2.3682     5.7766     1.8579 C.ar    
  72 C72           -6.2928     0.5732    -4.3415 C.ar    
  73 C73           -5.9146     2.8765    -3.8080 C.ar    
  74 C74            3.5412     8.6732     9.6089 C.3     
  75 C75           -6.4595     1.9134    -4.6366 C.ar    
  76 C76            5.3871     8.4610     8.0915 C.2     
  77 H77           -1.9877    -3.8616   -11.7367 H       
  78 H78           -3.5525    -4.9255    -9.6968 H       
  79 H79           -3.2628    -5.7598   -11.2586 H       
  80 H80           -2.3265    -0.5183    -8.8251 H       
  81 H81           -1.7802    -6.1322    -8.5949 H       
  82 H82           -2.3968    -7.3929    -9.7153 H       
  83 H83           -0.6961    -6.9325   -11.3514 H       
  84 H84            0.2140    -6.6949    -9.8281 H       
  85 H85           -4.8856    -0.5383    -7.7330 H       
  86 H86           -4.5172     0.0754    -9.3783 H       
  87 H87           -4.1278    -2.0350   -11.2130 H       
  88 H88           -4.3513    -3.6420   -10.4563 H       
  89 H89           -5.5192    -2.7109    -8.5633 H       
  90 H90           -6.1044    -1.6598    -9.8965 H       
  91 H91            1.8376    -6.0826   -11.4665 H       
  92 H92           -3.0513     1.9870     5.6093 H       
  93 H93            2.7402    -4.3029    -9.1585 H       
  94 H94            1.6838    -5.7249    -8.9845 H       
  95 H95           -1.0880     1.7722     7.5692 H       
  96 H96           -2.2137     0.4404     7.1469 H       
  97 H97            0.6440     0.9163     6.1274 H       
  98 H98           -0.0935    -0.6142     6.7090 H       
  99 H99           -1.4606    -0.8356     4.7435 H       
 100 H100           0.0374    -0.1442     4.0485 H       
 101 H101          -3.0918    -0.0295    -6.2935 H       
 102 H102           3.4538    -7.1596    -9.9631 H       
 103 H103           4.5102    -5.7376   -10.1370 H       
 104 H104           3.2190    -3.4788   -11.3961 H       
 105 H105           3.8892    -4.9328   -11.8462 H       
 106 H106          -3.3629    -2.2290    -4.5427 H       
 107 H107          -1.6308    -1.8539    -4.7082 H       
 108 H108          -1.2107    -0.1698     2.1362 H       
 109 H109           3.3847    -6.8081    -7.5094 H       
 110 H110           4.4411    -5.3861    -7.6834 H       
 111 H111          -2.4174     3.9238     7.2351 H       
 112 H112          -0.1488     5.4765     6.1551 H       
 113 H113          -2.4659     2.0075     0.6490 H       
 114 H114          -2.4086     1.5073    -1.9985 H       
 115 H115           0.6798     0.8309     0.8505 H       
 116 H116           0.8533     1.0923     2.6026 H       
 117 H117          -2.3988    -1.4082    -2.1637 H       
 118 H118          -3.0007     6.5012     6.5070 H       
 119 H119          -1.5881     7.5389     6.1967 H       
 120 H120          -4.6339    -0.1996    -0.7970 H       
 121 H121          -4.3491     1.5126    -0.4028 H       
 122 H122          -0.0277     7.6382     7.7599 H       
 123 H123           1.1963     3.1058     1.3641 H       
 124 H124           0.1780     6.4510    10.4200 H       
 125 H125           0.8834     9.2170     9.3427 H       
 126 H126           1.2008     8.6695    11.0064 H       
 127 H127          -3.8405     5.0001     4.7918 H       
 128 H128          -0.4694     7.5041     4.0462 H       
 129 H129          -5.4471    -0.8510    -2.9900 H       
 130 H130          -4.7738     3.2518    -2.0394 H       
 131 H131           2.5900     6.8119    10.1301 H       
 132 H132           2.2726     7.3593     8.4664 H       
 133 H133          -4.0438     4.5553     2.3785 H       
 134 H134          -0.6731     7.0596     1.6329 H       
 135 H135          -2.4573     5.5814     0.7995 H       
 136 H136           7.5758    -8.4484    -8.1039 H       
 137 H137           8.4954    -7.1903    -7.4760 H       
 138 H138           5.8234    -4.8936    -7.2216 H       
 139 H139           7.4407    -5.1474    -6.8437 H       
 140 H140          -6.7214    -0.1792    -4.9869 H       
 141 H141          -6.0486     3.9236    -4.0361 H       
 142 H142           3.6518     8.9927    10.6451 H       
 143 H143           3.3344     9.5402     8.9814 H       
 144 H144          -7.0182     2.2080    -5.5125 H       
 145 H145          -2.1642     8.7581    12.0453 H       
 146 H146           6.8101     6.9984     8.0649 H       
 147 H147           6.9389     8.1115     6.8131 H       
 148 H148           4.1086    10.0120     7.7386 H       
 149 H149           5.4251     9.9501     6.6967 H       
@<TRIPOS>BOND
   1    1   34 2
   2    2   36 2
   3    3   37 2
   4    4   46 2
   5    5   47 2
   6    6   53 1
   7    6  123 1
   8    7   50 2
   9    8   54 2
  10    9   57 2
  11   10   68 1
  12   10  145 1
  13   11   68 2
  14   12   29 1
  15   12   33 1
  16   12   34 am
  17   13   27 1
  18   13   31 1
  19   13   36 am
  20   14   39 1
  21   14   43 1
  22   14   46 am
  23   15   37 am
  24   15   45 1
  25   15  101 1
  26   16  104 1
  27   16  105 1
  28   16   38 1
  29   17   47 am
  30   17  111 1
  31   17   51 1
  32   18   54 am
  33   18  113 1
  34   18   48 1
  35   19   50 am
  36   19  117 1
  37   19   52 1
  38   20   49 1
  39   20   61 2
  40   21   57 am
  41   21  122 1
  42   21   60 1
  43   22   61 1
  44   22  138 1
  45   22  139 1
  46   23   61 1
  47   23  136 1
  48   23  137 1
  49   24   74 1
  50   24   76 2
  51   25   76 1
  52   25  148 1
  53   25  149 1
  54   26   76 1
  55   26  146 1
  56   26  147 1
  57   27   28 1
  58   27   34 1
  59   27   77 1
  60   28   30 1
  61   28   78 1
  62   28   79 1
  63   29   32 1
  64   29   37 1
  65   29   80 1
  66   30   31 1
  67   30   81 1
  68   30   82 1
  69   31   83 1
  70   31   84 1
  71   32   35 1
  72   32   85 1
  73   32   86 1
  74   33   35 1
  75   33   87 1
  76   33   88 1
  77   35   89 1
  78   35   90 1
  79   36   38 1
  80   38   40 1
  81   38   91 1
  82   39   41 1
  83   39   47 1
  84   39   92 1
  85   40   44 1
  86   40   93 1
  87   40   94 1
  88   41   42 1
  89   41   95 1
  90   41   96 1
  91   42   43 1
  92   42   97 1
  93   42   98 1
  94   43   99 1
  95   43  100 1
  96   44   49 1
  97   44  102 1
  98   44  103 1
  99   45   50 1
 100   45  106 1
 101   45  107 1
 102   46   48 1
 103   48   53 1
 104   48  108 1
 105   49  109 1
 106   49  110 1
 107   51   55 1
 108   51   57 1
 109   51  112 1
 110   52   54 1
 111   52   56 1
 112   52  114 1
 113   53  115 1
 114   53  116 1
 115   55   58 1
 116   55  118 1
 117   55  119 1
 118   56   59 1
 119   56  120 1
 120   56  121 1
 121   58   63 ar
 122   58   64 ar
 123   59   65 ar
 124   59   66 ar
 125   60   62 1
 126   60   68 1
 127   60  124 1
 128   62   67 1
 129   62  125 1
 130   62  126 1
 131   63   69 ar
 132   63  127 1
 133   64   70 ar
 134   64  128 1
 135   65   72 ar
 136   65  129 1
 137   66   73 ar
 138   66  130 1
 139   67   74 1
 140   67  131 1
 141   67  132 1
 142   69   71 ar
 143   69  133 1
 144   70   71 ar
 145   70  134 1
 146   71  135 1
 147   72   75 ar
 148   72  140 1
 149   73   75 ar
 150   73  141 1
 151   74  142 1
 152   74  143 1
 153   75  144 1

#	End of record

