#	Name: ASD01814715
#	Creating user name:	WinNT
#	Creation time:	15. 06. 2019 19:32

#	Modifying user name:	WinNT
#	Modification time:	15. 06. 2019 19:32

#	Program:	/corina/corina34_cracker 3.40 0067  02.08.2006

@<TRIPOS>MOLECULE
ASD01814715
  58   62    0    0    0
SMALL
NO_CHARGES


@<TRIPOS>ATOM
   1 O1            -0.0173     1.4248     0.0099 O.3     
   2 C2             0.0021    -0.0041     0.0020 C.3     
   3 H3             0.5123    -0.3556    -0.8948 H       
   4 C4             0.7421    -0.5109     1.2415 C.3     
   5 C5             0.7628    -2.0407     1.2331 C.3     
   6 C6            -0.6726    -2.5703     1.2440 C.3     
   7 C7            -1.4126    -2.0635     0.0045 C.3     
   8 C8            -1.4333    -0.5336     0.0129 C.3     
   9 H9            -1.9435    -0.1821     0.9097 H       
  10 N10           -2.1419    -0.0483    -1.1740 N.am    
  11 C11           -1.6730    -0.3788    -2.4104 C.2     
  12 C12           -2.2760     0.0338    -3.5411 C.2     
  13 C13           -3.4358     0.8368    -3.4729 C.ar    
  14 C14           -3.9463     1.1955    -2.2114 C.ar    
  15 C15           -5.0980     1.9936    -2.1141 C.ar    
  16 C16           -5.7414     2.4348    -3.2213 C.ar    
  17 C17           -6.9736     3.2889    -3.0694 C.3     
  18 N18           -8.1710     2.4583    -3.2549 N.3     
  19 C19           -8.2937     1.4646    -2.1807 C.3     
  20 C20           -9.4648     0.5269    -2.4829 C.3     
  21 C21          -10.7531     1.3468    -2.5948 C.3     
  22 F22          -11.8178     0.5017    -2.9258 F       
  23 F23          -11.0163     1.9732    -1.3719 F       
  24 C24          -10.5816     2.4058    -3.6873 C.3     
  25 C25           -9.3781     3.2891    -3.3502 C.3     
  26 C26           -5.2795     2.1103    -4.5128 C.ar    
  27 C27           -5.9485     2.5703    -5.6609 C.ar    
  28 C28           -5.4489     2.2204    -6.8847 C.ar    
  29 C29           -4.3074     1.4292    -6.9674 C.ar    
  30 N30           -3.6871     1.0027    -5.8917 N.ar    
  31 C31           -4.1240     1.3086    -4.6727 C.ar    
  32 C32           -3.2462     0.7104    -1.0174 C.2     
  33 O33           -3.6525     0.9913     0.0964 O.2     
  34 H34            0.8606     1.8301     0.0037 H       
  35 H35            1.7647    -0.1336     1.2338 H       
  36 H36            0.2319    -0.1594     2.1383 H       
  37 H37            1.2730    -2.3923     0.3363 H       
  38 H38            1.2900    -2.4018     2.1162 H       
  39 H39           -0.6578    -3.6602     1.2380 H       
  40 H40           -1.1828    -2.2188     2.1408 H       
  41 H41           -0.9024    -2.4150    -0.8923 H       
  42 H42           -2.4352    -2.4408     0.0122 H       
  43 H43           -0.7872    -0.9921    -2.4855 H       
  44 H44           -1.8721    -0.2495    -4.5018 H       
  45 H45           -5.4776     2.2600    -1.1388 H       
  46 H46           -6.9888     3.7310    -2.0732 H       
  47 H47           -6.9613     4.0809    -3.8182 H       
  48 H48           -7.3726     0.8857    -2.1146 H       
  49 H49           -8.4713     1.9738    -1.2335 H       
  50 H50           -9.2814     0.0070    -3.4232 H       
  51 H51           -9.5653    -0.2009    -1.6776 H       
  52 H52          -10.4158     1.9155    -4.6465 H       
  53 H53          -11.4800     3.0205    -3.7425 H       
  54 H54           -9.5506     3.7897    -2.3975 H       
  55 H55           -9.2446     4.0352    -4.1335 H       
  56 H56           -6.8337     3.1835    -5.5782 H       
  57 H57           -5.9399     2.5573    -7.7857 H       
  58 H58           -3.9226     1.1591    -7.9397 H       
@<TRIPOS>BOND
   1    1    2 1
   2    1   34 1
   3    2    3 1
   4    2    8 1
   5    2    4 1
   6    4    5 1
   7    4   35 1
   8    4   36 1
   9    5    6 1
  10    5   37 1
  11    5   38 1
  12    6    7 1
  13    6   39 1
  14    6   40 1
  15    7    8 1
  16    7   41 1
  17    7   42 1
  18    8    9 1
  19    8   10 1
  20   10   32 am
  21   10   11 1
  22   11   12 2
  23   11   43 1
  24   12   13 1
  25   12   44 1
  26   13   31 ar
  27   13   14 ar
  28   14   15 ar
  29   14   32 1
  30   15   16 ar
  31   15   45 1
  32   16   17 1
  33   16   26 ar
  34   17   18 1
  35   17   46 1
  36   17   47 1
  37   18   25 1
  38   18   19 1
  39   19   20 1
  40   19   48 1
  41   19   49 1
  42   20   21 1
  43   20   50 1
  44   20   51 1
  45   21   22 1
  46   21   23 1
  47   21   24 1
  48   24   25 1
  49   24   52 1
  50   24   53 1
  51   25   54 1
  52   25   55 1
  53   26   31 ar
  54   26   27 ar
  55   27   28 ar
  56   27   56 1
  57   28   29 ar
  58   28   57 1
  59   29   30 ar
  60   29   58 1
  61   30   31 ar
  62   32   33 2

#	End of record

