#	Name: ASD00450008
#	Creating user name:	WinNT
#	Creation time:	15. 06. 2019 18:35

#	Modifying user name:	WinNT
#	Modification time:	15. 06. 2019 18:35

#	Program:	/corina/corina34_cracker 3.40 0067  02.08.2006

@<TRIPOS>MOLECULE
ASD00450008
  62   66    0    0    0
SMALL
NO_CHARGES


@<TRIPOS>ATOM
   1 C1             0.1131     1.4693    -0.0664 C.2     
   2 N2             0.1745     0.3750    -0.8707 N.am    
   3 C3             1.3520    -0.2567    -1.0854 C.2     
   4 C4             2.5439     0.2882    -0.4183 C.ar    
   5 C5             2.3838     1.4294     0.3989 C.ar    
   6 N6             1.1475     1.9723     0.5350 N.2     
   7 C7             3.8026    -0.2878    -0.5729 C.ar    
   8 C8             4.8884     0.2698     0.0810 C.ar    
   9 C9             4.7245     1.3968     0.8867 C.ar    
  10 C10            3.4962     1.9713     1.0470 C.ar    
  11 N11            6.1563    -0.3003    -0.0667 N.pl3   
  12 C12            7.2782     0.5195    -0.2111 C.ar    
  13 C13            7.1218     1.8888    -0.3735 C.ar    
  14 C14            8.2390     2.6995    -0.5167 C.ar    
  15 C15            9.5098     2.1383    -0.4970 C.ar    
  16 C16            9.6622     0.7745    -0.3350 C.ar    
  17 C17            8.5528    -0.0348    -0.1865 C.ar    
  18 C18            8.7237    -1.5216    -0.0102 C.3     
  19 N19            8.0858     4.0797    -0.6811 N.am    
  20 C20            8.9735     4.9273    -0.1242 C.2     
  21 C21            8.7791     6.3797    -0.2456 C.2     
  22 O22            9.9357     4.4906     0.4789 O.2     
  23 N23            7.7629     7.0005    -0.8820 N.2     
  24 C24            7.9146     8.2894    -0.7862 C.2     
  25 N25            9.0422     8.5630    -0.0793 N.pl3   
  26 C26            9.6033     7.3668     0.2781 C.2     
  27 C27           10.8421     7.1662     1.0567 C.ar    
  28 C28           10.8764     6.2287     2.0908 C.ar    
  29 C29           12.0372     6.0461     2.8137 C.ar    
  30 C30           13.1654     6.7895     2.5161 C.ar    
  31 C31           13.1384     7.7204     1.4925 C.ar    
  32 C32           11.9863     7.9094     0.7582 C.ar    
  33 C33           -1.0449    -0.1251    -1.5104 C.3     
  34 O34            1.4218    -1.2380    -1.8024 O.2     
  35 C35            6.9827     9.3201    -1.3695 C.3     
  36 F36            5.7747     8.7095    -1.7233 F       
  37 F37            6.7398    10.3192    -0.4208 F       
  38 F38            7.5684     9.8884    -2.5058 F       
  39 C39           14.3723     8.5255     1.1758 C.3     
  40 F40           15.4055     8.1563     2.0438 F       
  41 F41           14.7629     8.2801    -0.1450 F       
  42 F42           14.0941     9.8873     1.3344 F       
  43 H43           -0.8448     1.9473     0.0759 H       
  44 H44            3.9303    -1.1605    -1.1962 H       
  45 H45            5.5806     1.8204     1.3907 H       
  46 H46            3.3849     2.8438     1.6737 H       
  47 H47            6.2570    -1.2650    -0.0689 H       
  48 H48            6.1328     2.3226    -0.3889 H       
  49 H49           10.3796     2.7687    -0.6087 H       
  50 H50           10.6513     0.3409    -0.3201 H       
  51 H51            8.8095    -1.7542     1.0512 H       
  52 H52            7.8593    -2.0387    -0.4267 H       
  53 H53            9.6261    -1.8475    -0.5276 H       
  54 H54            7.3407     4.4271    -1.1959 H       
  55 H55            9.3848     9.4446     0.1359 H       
  56 H56            9.9963     5.6480     2.3243 H       
  57 H57           12.0651     5.3215     3.6141 H       
  58 H58           14.0713     6.6428     3.0855 H       
  59 H59           11.9666     8.6363    -0.0404 H       
  60 H60           -1.8888     0.5030    -1.2251 H       
  61 H61           -0.9234    -0.1005    -2.5934 H       
  62 H62           -1.2298    -1.1501    -1.1888 H       
@<TRIPOS>BOND
   1    1    2 1
   2    1    6 2
   3    1   43 1
   4    2    3 am
   5    2   33 1
   6    3    4 1
   7    3   34 2
   8    4    5 ar
   9    4    7 ar
  10    5    6 1
  11    5   10 ar
  12    7    8 ar
  13    7   44 1
  14    8    9 ar
  15    8   11 1
  16    9   10 ar
  17    9   45 1
  18   10   46 1
  19   11   12 1
  20   11   47 1
  21   12   13 ar
  22   12   17 ar
  23   13   14 ar
  24   13   48 1
  25   14   15 ar
  26   14   19 1
  27   15   16 ar
  28   15   49 1
  29   16   17 ar
  30   16   50 1
  31   17   18 1
  32   18   51 1
  33   18   52 1
  34   18   53 1
  35   19   20 am
  36   19   54 1
  37   20   21 1
  38   20   22 2
  39   21   23 1
  40   21   26 2
  41   23   24 2
  42   24   25 1
  43   24   35 1
  44   25   26 1
  45   25   55 1
  46   26   27 1
  47   27   28 ar
  48   27   32 ar
  49   28   29 ar
  50   28   56 1
  51   29   30 ar
  52   29   57 1
  53   30   31 ar
  54   30   58 1
  55   31   32 ar
  56   31   39 1
  57   32   59 1
  58   33   60 1
  59   33   61 1
  60   33   62 1
  61   35   36 1
  62   35   37 1
  63   35   38 1
  64   39   40 1
  65   39   41 1
  66   39   42 1

#	End of record

