#	Name: ASD01028489
#	Creating user name:	WinNT
#	Creation time:	15. 06. 2019 18:57

#	Modifying user name:	WinNT
#	Modification time:	15. 06. 2019 18:57

#	Program:	/corina/corina34_cracker 3.40 0067  02.08.2006

@<TRIPOS>MOLECULE
ASD01028489
  46   50    0    0    0
SMALL
NO_CHARGES


@<TRIPOS>ATOM
   1 C1            -0.0171     1.4105     0.0098 C.ar    
   2 C2             0.0021    -0.0041     0.0020 C.ar    
   3 C3             1.2172     2.1062     0.0017 C.ar    
   4 C4             2.3840     1.3600    -0.0135 C.ar    
   5 C5             2.3156    -0.0268    -0.0203 C.ar    
   6 N6             1.1664    -0.6615    -0.0123 N.ar    
   7 N7             1.2559     3.4929     0.0084 N.pl3   
   8 C8             2.5445     4.1898    -0.0001 C.3     
   9 C9             2.3106     5.6785     0.0096 C.2     
  10 N10            2.1960     6.4679     1.1121 N.pl3   
  11 C11            1.9923     7.7418     0.6431 C.2     
  12 N12            1.9927     7.6684    -0.6782 N.2     
  13 N13            2.1863     6.4491    -1.0404 N.2     
  14 C14            2.2455     6.2212     2.4525 C.2     
  15 C15            2.0931     7.2379     3.3467 C.2     
  16 C16            1.8817     8.5611     2.8879 C.2     
  17 C17            1.8328     8.8094     1.5524 C.2     
  18 C18           -1.2223    -0.6977     0.0101 C.ar    
  19 C19           -2.3811     0.0331     0.0251 C.ar    
  20 C20           -2.3227     1.4307     0.0320 C.ar    
  21 N21           -1.1775     2.0678     0.0299 N.ar    
  22 O22           -3.5841    -0.5981     0.0329 O.3     
  23 C23           -4.7501     0.2280     0.0486 C.3     
  24 C24            2.1480     6.9593     4.7987 C.2     
  25 F25            1.6322    10.0663     1.0996 F       
  26 C26            3.0848     7.4096     5.6602 C.2     
  27 N27            2.9075     7.0183     6.9032 N.2     
  28 C28            1.8851     6.2690     7.1474 C.2     
  29 S29            0.9982     5.9867     5.7135 S.3     
  30 C30            1.5215     5.7254     8.5050 C.3     
  31 H31            3.3437     1.8552    -0.0203 H       
  32 H32            3.2319    -0.5984    -0.0326 H       
  33 H33            0.4298     4.0012     0.0188 H       
  34 H34            3.1169     3.9062     0.8831 H       
  35 H35            3.1002     3.9152    -0.8968 H       
  36 H36            2.4061     5.2139     2.8073 H       
  37 H37            1.7605     9.3683     3.5952 H       
  38 H38           -1.2479    -1.7774     0.0042 H       
  39 H39           -3.2420     1.9974     0.0439 H       
  40 H40           -5.6406    -0.4006     0.0534 H       
  41 H41           -4.7411     0.8522     0.9420 H       
  42 H42           -4.7579     0.8623    -0.8378 H       
  43 H43            3.9093     8.0367     5.3548 H       
  44 H44            0.8643     6.4301     9.0146 H       
  45 H45            1.0095     4.7701     8.3887 H       
  46 H46            2.4276     5.5826     9.0939 H       
@<TRIPOS>BOND
   1    1    2 ar
   2    1    3 ar
   3    1   21 ar
   4    2   18 ar
   5    2    6 ar
   6    3    4 ar
   7    3    7 1
   8    4    5 ar
   9    4   31 1
  10    5    6 ar
  11    5   32 1
  12    7    8 1
  13    7   33 1
  14    8    9 1
  15    8   34 1
  16    8   35 1
  17    9   10 1
  18    9   13 2
  19   10   11 1
  20   10   14 1
  21   11   12 2
  22   11   17 1
  23   12   13 1
  24   14   15 2
  25   14   36 1
  26   15   16 1
  27   15   24 1
  28   16   17 2
  29   16   37 1
  30   17   25 1
  31   18   19 ar
  32   18   38 1
  33   19   20 ar
  34   19   22 1
  35   20   21 ar
  36   20   39 1
  37   22   23 1
  38   23   40 1
  39   23   41 1
  40   23   42 1
  41   24   26 2
  42   24   29 1
  43   26   27 1
  44   26   43 1
  45   27   28 2
  46   28   29 1
  47   28   30 1
  48   30   44 1
  49   30   45 1
  50   30   46 1

#	End of record

