#	Name: ASD08170226
#	Creating user name:	WinNT
#	Creation time:	15. 06. 2019 21:17

#	Modifying user name:	WinNT
#	Modification time:	15. 06. 2019 21:17

#	Program:	/corina/corina34_cracker 3.40 0067  02.08.2006

@<TRIPOS>MOLECULE
ASD08170226
  71   74    0    0    0
SMALL
NO_CHARGES


@<TRIPOS>ATOM
   1 N1            -0.0150     1.2583     0.0090 N.2     
   2 N2             0.0021    -0.0041     0.0020 N.2     
   3 C3             1.1271     1.8769     0.0014 C.2     
   4 S4             2.3826     0.7116    -0.0169 S.3     
   5 C5             1.1681    -0.5677    -0.0121 C.2     
   6 C6             1.4387    -2.0502    -0.0217 C.3     
   7 C7             1.5173    -2.5450    -1.4674 C.3     
   8 C8             1.9004    -4.7224    -3.2489 C.3     
   9 C9             2.1718    -6.2170    -3.4310 C.3     
  10 C10            2.2195    -6.5434    -4.9015 C.2     
  11 N11            3.2727    -6.5215    -5.6551 N.2     
  12 S12            0.8525    -7.0314    -5.9038 S.3     
  13 C13            1.9042    -7.1394    -7.2517 C.2     
  14 N14            3.1057    -6.8287    -6.8682 N.2     
  15 N15            1.5340    -7.5046    -8.5415 N.am    
  16 C16            2.4593    -7.5523    -9.5203 C.2     
  17 O17            3.6149    -7.2766    -9.2761 O.2     
  18 C18            2.0581    -7.9480   -10.9179 C.3     
  19 N19            1.3017     3.2566     0.0071 N.am    
  20 C20            1.1213    -6.9121   -11.4839 C.ar    
  21 C21            0.2284     4.0717     0.0222 C.2     
  22 C22            0.4176     5.5667     0.0285 C.3     
  23 O23           -0.8897     3.6019     0.0309 O.2     
  24 C24            1.6293    -5.7825   -12.0977 C.ar    
  25 C25            1.0892     5.9827     1.3118 C.ar    
  26 C26            2.4472     6.2406     1.3292 C.ar    
  27 S27            1.8430    -4.3295    -1.4789 S.3     
  28 C28            3.0633     6.6221     2.5064 C.ar    
  29 C29            2.3213     6.7463     3.6661 C.ar    
  30 C30            0.9631     6.4893     3.6485 C.ar    
  31 C31            0.3463     6.1120     2.4703 C.ar    
  32 C32           -0.2461    -7.0943   -11.3944 C.ar    
  33 C33           -1.1054    -6.1441   -11.9135 C.ar    
  34 C34           -0.5974    -5.0115   -12.5218 C.ar    
  35 C35            0.7700    -4.8323   -12.6169 C.ar    
  36 O36            3.2419    -8.0384   -11.7540 O.3     
  37 C37            3.2069    -8.9188   -12.7666 C.2     
  38 O38            2.2200    -9.5916   -12.9484 O.2     
  39 O39           -0.8757     6.2187    -0.0744 O.3     
  40 C40           -1.3269     6.4857    -1.3101 C.2     
  41 O41           -0.6632     6.1846    -2.2738 O.2     
  42 C42           -2.6614     7.1610    -1.4953 C.3     
  43 C43            4.3987    -9.0680   -13.6767 C.3     
  44 H44            2.3840    -2.2503     0.4827 H       
  45 H45            0.6331    -2.5700     0.4969 H       
  46 H46            0.5720    -2.3449    -1.9718 H       
  47 H47            2.3230    -2.0252    -1.9860 H       
  48 H48            2.6965    -4.1481    -3.7229 H       
  49 H49            0.9455    -4.4678    -3.7088 H       
  50 H50            3.1267    -6.4716    -2.9712 H       
  51 H51            1.3758    -6.7912    -2.9570 H       
  52 H52            0.6097    -7.7250    -8.7368 H       
  53 H53            1.5570    -8.9156   -10.8919 H       
  54 H54            2.1959     3.6323     0.0002 H       
  55 H55            1.0396     5.8578    -0.8180 H       
  56 H56            2.6976    -5.6421   -12.1713 H       
  57 H57            3.0269     6.1436     0.4231 H       
  58 H58            4.1244     6.8229     2.5201 H       
  59 H59            2.8027     7.0437     4.5860 H       
  60 H60            0.3835     6.5860     4.5546 H       
  61 H61           -0.7148     5.9112     2.4566 H       
  62 H62           -0.6430    -7.9792   -10.9191 H       
  63 H63           -2.1737    -6.2868   -11.8441 H       
  64 H64           -1.2688    -4.2693   -12.9278 H       
  65 H65            1.1668    -3.9475   -13.0922 H       
  66 H66           -2.6475     8.1340    -1.0041 H       
  67 H67           -2.8566     7.2940    -2.5594 H       
  68 H68           -3.4451     6.5436    -1.0565 H       
  69 H69            5.1862    -8.3844   -13.3593 H       
  70 H70            4.7664   -10.0930   -13.6289 H       
  71 H71            4.1057    -8.8345   -14.7003 H       
@<TRIPOS>BOND
   1    1    2 1
   2    1    3 2
   3    2    5 2
   4    3    4 1
   5    3   19 1
   6    4    5 1
   7    5    6 1
   8    6    7 1
   9    6   44 1
  10    6   45 1
  11    7   27 1
  12    7   46 1
  13    7   47 1
  14    8    9 1
  15    8   27 1
  16    8   48 1
  17    8   49 1
  18    9   10 1
  19    9   50 1
  20    9   51 1
  21   10   11 2
  22   10   12 1
  23   11   14 1
  24   12   13 1
  25   13   14 2
  26   13   15 1
  27   15   16 am
  28   15   52 1
  29   16   17 2
  30   16   18 1
  31   18   20 1
  32   18   36 1
  33   18   53 1
  34   19   21 am
  35   19   54 1
  36   20   32 ar
  37   20   24 ar
  38   21   23 2
  39   21   22 1
  40   22   25 1
  41   22   39 1
  42   22   55 1
  43   24   35 ar
  44   24   56 1
  45   25   26 ar
  46   25   31 ar
  47   26   28 ar
  48   26   57 1
  49   28   29 ar
  50   28   58 1
  51   29   30 ar
  52   29   59 1
  53   30   31 ar
  54   30   60 1
  55   31   61 1
  56   32   33 ar
  57   32   62 1
  58   33   34 ar
  59   33   63 1
  60   34   35 ar
  61   34   64 1
  62   35   65 1
  63   36   37 1
  64   37   38 2
  65   37   43 1
  66   39   40 1
  67   40   41 2
  68   40   42 1
  69   42   66 1
  70   42   67 1
  71   42   68 1
  72   43   69 1
  73   43   70 1
  74   43   71 1

#	End of record

