#	Name: ASD01885718
#	Creating user name:	WinNT
#	Creation time:	15. 06. 2019 19:50

#	Modifying user name:	WinNT
#	Modification time:	15. 06. 2019 19:50

#	Program:	/corina/corina34_cracker 3.40 0067  02.08.2006

@<TRIPOS>MOLECULE
ASD01885718
  53   56    0    0    0
SMALL
NO_CHARGES


@<TRIPOS>ATOM
   1 C1            -0.0160     1.3294     0.0094 C.ar    
   2 C2             1.2007     2.0574     0.0016 C.ar    
   3 C3             2.4279     1.3473    -0.0140 C.ar    
   4 C4             2.3760    -0.0401    -0.0210 C.ar    
   5 C5             1.1338    -0.6832    -0.0126 C.ar    
   6 N6             0.0021    -0.0041     0.0020 N.ar    
   7 C7            -1.2250     3.3964     0.0263 C.ar    
   8 C8            -0.0268     4.1073     0.0236 C.ar    
   9 C9             1.1712     3.4577     0.0091 C.ar    
  10 C10            3.7242     2.0631    -0.0230 C.2     
  11 C11            1.0872    -2.1654    -0.0201 C.2     
  12 C12           -2.5321     4.1463     0.0420 C.3     
  13 C13           -1.2337     2.0357     0.0189 C.ar    
  14 N14           -0.1005    -2.8023    -0.0120 N.am    
  15 O15            2.1198    -2.8056    -0.0335 O.2     
  16 N16           -2.9668     4.4015    -1.3378 N.3     
  17 C17           -4.3433     4.9166    -1.3697 C.3     
  18 C18           -4.7338     5.2245    -2.8177 C.3     
  19 O19           -4.5792     4.0434    -3.6092 O.3     
  20 C20           -3.2503     3.5149    -3.6013 C.3     
  21 C21           -2.8448     3.1897    -2.1612 C.3     
  22 C22            4.0925     3.1109    -0.8921 C.2     
  23 N23            5.3082     3.4798    -0.5891 N.2     
  24 N24            5.7620     2.6911     0.4749 N.pl3   
  25 C25            4.7807     1.8331     0.8134 C.2     
  26 C26            7.0770     2.7861     1.1136 C.3     
  27 C27           -3.2025     2.2400    -4.4458 C.3     
  28 C28           -6.1920     5.6851    -2.8667 C.3     
  29 F29           -6.3434     6.8376    -2.0882 F       
  30 F30           -6.5480     5.9662    -4.1901 F       
  31 F31           -7.0179     4.6727    -2.3666 F       
  32 H32            3.2879    -0.6185    -0.0333 H       
  33 H33           -0.0477     5.1870     0.0332 H       
  34 H34            2.0933     4.0199     0.0037 H       
  35 H35           -3.2864     3.5508     0.5564 H       
  36 H36           -2.4006     5.0947     0.5629 H       
  37 H37           -2.1713     1.4996     0.0207 H       
  38 H38           -0.9249    -2.2912    -0.0013 H       
  39 H39           -0.1310    -3.7718    -0.0169 H       
  40 H40           -5.0218     4.1677    -0.9611 H       
  41 H41           -4.4049     5.8277    -0.7746 H       
  42 H42           -4.0899     6.0123    -3.2086 H       
  43 H43           -2.5628     4.2525    -4.0153 H       
  44 H44           -1.8125     2.8403    -2.1439 H       
  45 H45           -3.4993     2.4132    -1.7653 H       
  46 H46            3.4770     3.5341    -1.6721 H       
  47 H47            4.8232     1.0931     1.5989 H       
  48 H48            7.0291     3.4951     1.9400 H       
  49 H49            7.3688     1.8064     1.4918 H       
  50 H50            7.8114     3.1274     0.3841 H       
  51 H51           -3.4950     2.4714    -5.4700 H       
  52 H52           -2.1895     1.8377    -4.4393 H       
  53 H53           -3.8889     1.5026    -4.0297 H       
@<TRIPOS>BOND
   1    1    6 ar
   2    1    2 ar
   3    1   13 ar
   4    2    3 ar
   5    2    9 ar
   6    3   10 1
   7    3    4 ar
   8    4    5 ar
   9    4   32 1
  10    5   11 1
  11    5    6 ar
  12    7   12 1
  13    7    8 ar
  14    7   13 ar
  15    8    9 ar
  16    8   33 1
  17    9   34 1
  18   10   22 1
  19   10   25 2
  20   11   14 am
  21   11   15 2
  22   12   16 1
  23   12   35 1
  24   12   36 1
  25   13   37 1
  26   14   38 1
  27   14   39 1
  28   16   17 1
  29   16   21 1
  30   17   18 1
  31   17   40 1
  32   17   41 1
  33   18   28 1
  34   18   19 1
  35   18   42 1
  36   19   20 1
  37   20   21 1
  38   20   27 1
  39   20   43 1
  40   21   44 1
  41   21   45 1
  42   22   23 2
  43   22   46 1
  44   23   24 1
  45   24   25 1
  46   24   26 1
  47   25   47 1
  48   26   48 1
  49   26   49 1
  50   26   50 1
  51   27   51 1
  52   27   52 1
  53   27   53 1
  54   28   29 1
  55   28   30 1
  56   28   31 1

#	End of record

