#	Name: ASD01811733
#	Creating user name:	WinNT
#	Creation time:	15. 06. 2019 19:27

#	Modifying user name:	WinNT
#	Modification time:	15. 06. 2019 19:27

#	Program:	/corina/corina34_cracker 3.40 0067  02.08.2006

@<TRIPOS>MOLECULE
ASD01811733
  60   65    0    0    0
SMALL
NO_CHARGES


@<TRIPOS>ATOM
   1 C1             0.6294     1.4531     0.1627 C.ar    
   2 C2             0.3779     0.0964     0.0468 C.ar    
   3 C3             1.3983    -0.7737    -0.2949 C.ar    
   4 C4             2.6726    -0.2973    -0.5230 C.ar    
   5 C5             2.9339     1.0694    -0.4084 C.ar    
   6 C6             1.8967     1.9387    -0.0626 C.ar    
   7 C7            -1.0108    -0.4342     0.2938 C.3     
   8 C8             1.1161    -2.2489    -0.4180 C.3     
   9 C9             1.2130    -2.8939     0.9406 C.ar    
  10 C10            0.0715    -3.0749     1.7004 C.ar    
  11 C11            0.1545    -3.6656     2.9452 C.ar    
  12 C12            1.3908    -4.0797     3.4358 C.ar    
  13 C13            2.5374    -3.8950     2.6663 C.ar    
  14 C14            2.4423    -3.3080     1.4207 C.ar    
  15 C15            1.4863    -4.7151     4.7740 C.2     
  16 N16            0.4748    -4.9586     5.6265 N.2     
  17 N17            0.9489    -5.5198     6.6821 N.2     
  18 N18            2.2232    -5.6646     6.5814 N.pl3   
  19 C19            2.6173    -5.1749     5.3842 C.2     
  20 C20            3.0990    -6.2647     7.5909 C.3     
  21 C21           -1.6529    -0.1292     1.6486 C.3     
  22 C22           -2.1493     0.5834     0.3890 C.3     
  23 C23            4.1641     1.8644    -0.5860 C.2     
  24 N24            3.9139     3.1663    -0.3638 N.am    
  25 C25            2.4954     3.3225    -0.0224 C.3     
  26 O26            5.2489     1.4074    -0.8891 O.2     
  27 C27            4.8954     4.2505    -0.4488 C.3     
  28 C28            4.9200     4.8057    -1.8743 C.3     
  29 O29            3.6725     5.4452    -2.1682 O.3     
  30 C30            3.8872     6.8402    -2.4357 C.3     
  31 C31            5.3601     6.9398    -2.9063 C.3     
  32 C32            6.0313     5.8696    -2.0029 C.3     
  33 H33           -0.1699     2.1303     0.4255 H       
  34 H34            3.4662    -0.9798    -0.7890 H       
  35 H35           -1.2339    -1.3983    -0.1632 H       
  36 H36            0.1130    -2.3948    -0.8187 H       
  37 H37            1.8450    -2.7036    -1.0889 H       
  38 H38           -0.8864    -2.7532     1.3192 H       
  39 H39           -0.7374    -3.8061     3.5378 H       
  40 H40            3.4983    -4.2142     3.0420 H       
  41 H41            3.3304    -3.1647     0.8231 H       
  42 H42            3.6236    -5.1469     4.9932 H       
  43 H43            3.1777    -7.3371     7.4124 H       
  44 H44            4.0888    -5.8124     7.5284 H       
  45 H45            2.6821    -6.0912     8.5829 H       
  46 H46           -2.2988    -0.8924     2.0827 H       
  47 H47           -1.0710     0.4553     2.3612 H       
  48 H48           -1.8939     1.6367     0.2729 H       
  49 H49           -3.1218     0.2890    -0.0057 H       
  50 H50            2.0029     3.9649    -0.7524 H       
  51 H51            2.3951     3.7451     0.9773 H       
  52 H52            4.6208     5.0445     0.2457 H       
  53 H53            5.8829     3.8677    -0.1909 H       
  54 H54            5.0969     3.9967    -2.5830 H       
  55 H55            3.2148     7.1825    -3.2223 H       
  56 H56            3.7394     7.4264    -1.5288 H       
  57 H57            5.4542     6.6790    -3.9605 H       
  58 H58            5.7688     7.9312    -2.7109 H       
  59 H59            6.2831     6.2874    -1.0281 H       
  60 H60            6.9141     5.4518    -2.4868 H       
@<TRIPOS>BOND
   1    1    2 ar
   2    1    6 ar
   3    1   33 1
   4    2    3 ar
   5    2    7 1
   6    3    4 ar
   7    3    8 1
   8    4    5 ar
   9    4   34 1
  10    5    6 ar
  11    5   23 1
  12    6   25 1
  13    7   21 1
  14    7   22 1
  15    7   35 1
  16    8    9 1
  17    8   36 1
  18    8   37 1
  19    9   10 ar
  20    9   14 ar
  21   10   11 ar
  22   10   38 1
  23   11   12 ar
  24   11   39 1
  25   12   13 ar
  26   12   15 1
  27   13   14 ar
  28   13   40 1
  29   14   41 1
  30   15   16 1
  31   15   19 2
  32   16   17 2
  33   17   18 1
  34   18   19 1
  35   18   20 1
  36   19   42 1
  37   20   43 1
  38   20   44 1
  39   20   45 1
  40   21   22 1
  41   21   46 1
  42   21   47 1
  43   22   48 1
  44   22   49 1
  45   23   24 am
  46   23   26 2
  47   24   25 1
  48   24   27 1
  49   25   50 1
  50   25   51 1
  51   27   28 1
  52   27   52 1
  53   27   53 1
  54   28   29 1
  55   28   32 1
  56   28   54 1
  57   29   30 1
  58   30   31 1
  59   30   55 1
  60   30   56 1
  61   31   32 1
  62   31   57 1
  63   31   58 1
  64   32   59 1
  65   32   60 1

#	End of record

