#	Name: ASD03950086
#	Creating user name:	WinNT
#	Creation time:	15. 06. 2019 20:48

#	Modifying user name:	WinNT
#	Modification time:	15. 06. 2019 20:48

#	Program:	/corina/corina34_cracker 3.40 0067  02.08.2006

@<TRIPOS>MOLECULE
ASD03950086
  54   56    0    0    0
SMALL
NO_CHARGES


@<TRIPOS>ATOM
   1 N1            -0.0169     1.3944     0.0097 N.pl3   
   2 N2             0.0021    -0.0041     0.0020 N.2     
   3 C3             1.2314    -0.4337    -0.0120 C.2     
   4 C4             2.1091     0.7334    -0.0141 C.ar    
   5 C5             3.4978     0.9023    -0.0264 C.ar    
   6 C6             4.0373     2.1689    -0.0248 C.ar    
   7 C7             3.2186     3.2861    -0.0110 C.ar    
   8 C8             1.8340     3.1469     0.0014 C.ar    
   9 C9             1.2664     1.8601    -0.0000 C.ar    
  10 C10            0.9678     4.3406     0.0166 C.2     
  11 O11           -0.2415     4.2141     0.0274 O.2     
  12 N12            1.5167     5.5715     0.0184 N.am    
  13 N13            1.2120    -4.6668    -0.0334 N.am    
  14 C14            1.6148    -4.0354     1.2306 C.3     
  15 C15            1.1389    -2.5793     1.2280 C.3     
  16 C16            1.6694    -1.8756    -0.0232 C.3     
  17 C17            1.1170    -2.5666    -1.2720 C.3     
  18 C18            1.5927    -4.0225    -1.2977 C.3     
  19 S19            0.3512    -6.0815    -0.0330 S.o2    
  20 O20            0.6726    -6.6876    -1.2774 O.2     
  21 O21            0.6994    -6.7033     1.1963 O.2     
  22 C22           -1.3846    -5.5551    -0.0108 C.3     
  23 C23           -2.2913    -6.7875    -0.0088 C.3     
  24 C24           -3.7554    -6.3435     0.0099 C.3     
  25 O25           -4.6022    -7.4946     0.0117 O.3     
  26 C26           -5.9981    -7.1892     0.0288 C.3     
  27 C27            5.5343     2.3417    -0.0376 C.3     
  28 O28            5.9951     2.4033    -1.3889 O.3     
  29 H29           -0.8149     1.9457     0.0166 H       
  30 H30            4.1468     0.0391    -0.0369 H       
  31 H31            3.6580     4.2726    -0.0096 H       
  32 H32            2.4814     5.6724     0.0097 H       
  33 H33            0.9470     6.3565     0.0283 H       
  34 H34            1.1596    -4.5671     2.0661 H       
  35 H35            2.7004    -4.0648     1.3241 H       
  36 H36            0.0492    -2.5527     1.2259 H       
  37 H37            1.5139    -2.0723     2.1171 H       
  38 H38            2.7582    -1.9243    -0.0331 H       
  39 H39            0.0275    -2.5401    -1.2506 H       
  40 H40            1.4764    -2.0506    -2.1623 H       
  41 H41            2.6765    -4.0509    -1.4105 H       
  42 H42            1.1228    -4.5458    -2.1305 H       
  43 H43           -1.5735    -4.9636     0.8850 H       
  44 H44           -1.5928    -4.9523    -0.8948 H       
  45 H45           -2.1024    -7.3790    -0.9047 H       
  46 H46           -2.0831    -7.3903     0.8751 H       
  47 H47           -3.9443    -5.7520     0.9057 H       
  48 H48           -3.9636    -5.7407    -0.8741 H       
  49 H49           -6.2335    -6.6152     0.9251 H       
  50 H50           -6.2528    -6.6039    -0.8548 H       
  51 H51           -6.5727    -8.1154     0.0292 H       
  52 H52            5.7979     3.2648     0.4786 H       
  53 H53            6.0019     1.4966     0.4675 H       
  54 H54            6.9520     2.5142    -1.4735 H       
@<TRIPOS>BOND
   1    1    2 1
   2    1    9 1
   3    1   29 1
   4    2    3 2
   5    3    4 1
   6    3   16 1
   7    4    5 ar
   8    4    9 ar
   9    5    6 ar
  10    5   30 1
  11    6    7 ar
  12    6   27 1
  13    7    8 ar
  14    7   31 1
  15    8    9 ar
  16    8   10 1
  17   10   11 2
  18   10   12 am
  19   12   32 1
  20   12   33 1
  21   13   14 1
  22   13   18 1
  23   13   19 am
  24   14   15 1
  25   14   34 1
  26   14   35 1
  27   15   16 1
  28   15   36 1
  29   15   37 1
  30   16   17 1
  31   16   38 1
  32   17   18 1
  33   17   39 1
  34   17   40 1
  35   18   41 1
  36   18   42 1
  37   19   20 2
  38   19   21 2
  39   19   22 1
  40   22   23 1
  41   22   43 1
  42   22   44 1
  43   23   24 1
  44   23   45 1
  45   23   46 1
  46   24   25 1
  47   24   47 1
  48   24   48 1
  49   25   26 1
  50   26   49 1
  51   26   50 1
  52   26   51 1
  53   27   28 1
  54   27   52 1
  55   27   53 1
  56   28   54 1

#	End of record

