#	Name: ASD03090847
#	Creating user name:	WinNT
#	Creation time:	15. 06. 2019 20:29

#	Modifying user name:	WinNT
#	Modification time:	15. 06. 2019 20:29

#	Program:	/corina/corina34_cracker 3.40 0067  02.08.2006

@<TRIPOS>MOLECULE
ASD03090847
  39   41    0    0    0
SMALL
NO_CHARGES


@<TRIPOS>ATOM
   1 N1            -0.0153     1.3320     0.0571 N.2     
   2 C2             0.0031    -0.0039     0.0706 C.2     
   3 O3             1.0668    -0.5989     0.0536 O.2     
   4 N4            -1.1544    -0.6935     0.1029 N.am    
   5 C5            -1.1341    -2.1583     0.1177 C.3     
   6 C6            -0.9701    -2.6516     1.5566 C.3     
   7 C7            -2.4473    -2.6923    -0.4580 C.3     
   8 S8             2.7229     1.3646    -0.0035 S.3     
   9 C9             1.1278     2.0130     0.0251 C.2     
  10 N10            1.2769     3.3616     0.0079 N.pl3   
  11 C11            2.5513     3.8402    -0.0253 C.2     
  12 C12            3.5279     2.9428    -0.0376 C.2     
  13 C13            5.0107     3.2094    -0.0732 C.3     
  14 O14           -3.2352     6.5418     0.0475 O.3     
  15 C15           -4.1880     5.5034     0.3424 C.3     
  16 O16           -3.5467     4.3053    -0.1334 O.3     
  17 C17           -2.2066     4.5537    -0.0563 C.ar    
  18 C18           -2.0144     5.9293     0.0550 C.ar    
  19 C19           -1.1141     3.7035    -0.0723 C.ar    
  20 C20            0.1702     4.2224     0.0231 C.ar    
  21 C21            0.3585     5.5931     0.1339 C.ar    
  22 C22           -0.7313     6.4428     0.1494 C.ar    
  23 F23           -4.4178     5.4239     1.7201 F       
  24 F24           -5.3860     5.7259    -0.3450 F       
  25 H25           -2.0008    -0.2200     0.1165 H       
  26 H26           -0.3004    -2.5163    -0.4864 H       
  27 H27           -1.8038    -2.2937     2.1607 H       
  28 H28           -0.9551    -3.7415     1.5676 H       
  29 H29           -0.0346    -2.2712     1.9667 H       
  30 H30           -2.5641    -2.3409    -1.4831 H       
  31 H31           -2.4322    -3.7822    -0.4470 H       
  32 H32           -3.2810    -2.3344     0.1461 H       
  33 H33            2.7571     4.9003    -0.0411 H       
  34 H34            5.5502     2.2623    -0.0758 H       
  35 H35            5.2575     3.7706    -0.9745 H       
  36 H36            5.2970     3.7882     0.8050 H       
  37 H37           -1.2609     2.6370    -0.1581 H       
  38 H38            1.3578     5.9960     0.2083 H       
  39 H39           -0.5824     7.5090     0.2357 H       
@<TRIPOS>BOND
   1    1    2 1
   2    1    9 2
   3    2    3 2
   4    2    4 am
   5    4    5 1
   6    4   25 1
   7    5    6 1
   8    5    7 1
   9    5   26 1
  10    6   27 1
  11    6   28 1
  12    6   29 1
  13    7   30 1
  14    7   31 1
  15    7   32 1
  16    8    9 1
  17    8   12 1
  18    9   10 1
  19   10   11 1
  20   10   20 1
  21   11   12 2
  22   11   33 1
  23   12   13 1
  24   13   34 1
  25   13   35 1
  26   13   36 1
  27   14   15 1
  28   14   18 1
  29   15   16 1
  30   15   23 1
  31   15   24 1
  32   16   17 1
  33   17   18 ar
  34   17   19 ar
  35   18   22 ar
  36   19   20 ar
  37   19   37 1
  38   20   21 ar
  39   21   22 ar
  40   21   38 1
  41   22   39 1

#	End of record

