#	Name: ASD01410884
#	Creating user name:	WinNT
#	Creation time:	15. 06. 2019 19:18

#	Modifying user name:	WinNT
#	Modification time:	15. 06. 2019 19:18

#	Program:	/corina/corina34_cracker 3.40 0067  02.08.2006

@<TRIPOS>MOLECULE
ASD01410884
  74   75    0    0    0
SMALL
NO_CHARGES


@<TRIPOS>ATOM
   1 C1            -0.2290     0.4194    -0.7654 C.2     
   2 C2            -0.6904    -0.8445    -1.0438 C.2     
   3 C3             0.2852    -1.7702    -1.2766 C.2     
   4 S4             1.8684    -1.0189    -1.1399 S.3     
   5 C5             1.1413     0.5381    -0.7684 C.2     
   6 C6             1.8562     1.7307    -0.5118 C.2     
   7 N7            -1.0802     1.4947    -0.5068 N.am    
   8 C8            -1.5222     1.7180     0.7467 C.2     
   9 O9            -2.1912     2.7005     0.9878 O.2     
  10 C10           -1.4933     2.3808    -1.5979 C.3     
  11 C11           -3.0200     2.3882    -1.6987 C.3     
  12 C12           -1.0013     3.7785    -1.3236 C.2     
  13 N13           -0.8809     4.6612    -2.3350 N.am    
  14 O14           -0.7135     4.1091    -0.1927 O.2     
  15 C15            0.0533    -3.1491    -1.5859 C.1     
  16 C16           -0.1368    -4.2795    -1.8395 C.1     
  17 C17           -0.3751    -5.6969    -2.1574 C.3     
  18 C18            0.9654    -6.4088    -2.3496 C.3     
  19 C19           -1.1422    -6.3552    -1.0089 C.3     
  20 C20           -1.1963    -5.7998    -3.4442 C.3     
  21 C21           -1.1852     0.7469     1.8487 C.3     
  22 C22            0.3722     2.4243     2.8505 C.3     
  23 C23            0.2480     0.9929     2.3245 C.3     
  24 C24           -2.1520     0.9465     3.0176 C.3     
  25 C25           -2.0278     2.3778     3.5436 C.3     
  26 C26           -0.5946     2.6238     4.0194 C.3     
  27 C27           -0.4704     4.0552     4.5453 C.3     
  28 C28           -3.5105     0.9993    -2.1126 C.3     
  29 C29           -5.0234     1.0386    -2.3369 C.3     
  30 C30           -5.4961    -0.3172    -2.8652 C.3     
  31 O31            3.2056     1.7139    -0.4739 O.3     
  32 O32            1.2550     2.7725    -0.3252 O.2     
  33 C33           -0.4025     6.0200    -2.0683 C.3     
  34 C34           -1.2285     4.2619    -3.7010 C.3     
  35 H35           -1.7424    -1.0865    -1.0756 H       
  36 H36           -1.0690     2.0238    -2.5363 H       
  37 H37           -3.4468     2.6507    -0.7307 H       
  38 H38           -3.3314     3.1204    -2.4437 H       
  39 H39            1.5505    -6.3355    -1.4328 H       
  40 H40            0.7890    -7.4584    -2.5850 H       
  41 H41            1.5119    -5.9399    -3.1678 H       
  42 H42           -2.0972    -5.8480    -0.8720 H       
  43 H43           -1.3187    -7.4047    -1.2443 H       
  44 H44           -0.5571    -6.2818    -0.0921 H       
  45 H45           -0.6499    -5.3308    -4.2625 H       
  46 H46           -1.3728    -6.8493    -3.6797 H       
  47 H47           -2.1514    -5.2926    -3.3073 H       
  48 H48           -1.2737    -0.2728     1.4740 H       
  49 H49            1.3932     2.5995     3.1895 H       
  50 H50            0.1284     3.1267     2.0534 H       
  51 H51            0.4918     0.2905     3.1216 H       
  52 H52            0.9368     0.8508     1.4918 H       
  53 H53           -3.1730     0.7712     2.6786 H       
  54 H54           -1.9082     0.2441     3.8147 H       
  55 H55           -2.2716     3.0802     2.7465 H       
  56 H56           -2.7166     2.5200     4.3763 H       
  57 H57           -0.3508     1.9214     4.8165 H       
  58 H58           -0.7142     4.7576     3.7483 H       
  59 H59           -1.1592     4.1973     5.3781 H       
  60 H60            0.5506     4.2304     4.8843 H       
  61 H61           -3.0141     0.6987    -3.0353 H       
  62 H62           -3.2785     0.2824    -1.3250 H       
  63 H63           -5.5250     1.2561    -1.3939 H       
  64 H64           -5.2630     1.8152    -3.0633 H       
  65 H65           -4.9945    -0.5347    -3.8082 H       
  66 H66           -5.2566    -1.0938    -2.1388 H       
  67 H67           -6.5740    -0.2892    -3.0250 H       
  68 H68            3.6047     2.5757    -0.2920 H       
  69 H69            0.6835     6.0469    -2.1576 H       
  70 H70           -0.8436     6.7085    -2.7891 H       
  71 H71           -0.6916     6.3155    -1.0597 H       
  72 H72           -2.2820     4.4729    -3.8843 H       
  73 H73           -0.6173     4.8209    -4.4095 H       
  74 H74           -1.0446     3.1947    -3.8254 H       
@<TRIPOS>BOND
   1    1    2 1
   2    1    5 2
   3    1    7 1
   4    2    3 2
   5    2   35 1
   6    3    4 1
   7    3   15 1
   8    4    5 1
   9    5    6 1
  10    6   31 1
  11    6   32 2
  12    7    8 am
  13    7   10 1
  14    8    9 2
  15    8   21 1
  16   10   11 1
  17   10   12 1
  18   10   36 1
  19   11   28 1
  20   11   37 1
  21   11   38 1
  22   12   13 am
  23   12   14 2
  24   13   33 1
  25   13   34 1
  26   15   16 3
  27   16   17 1
  28   17   18 1
  29   17   19 1
  30   17   20 1
  31   18   39 1
  32   18   40 1
  33   18   41 1
  34   19   42 1
  35   19   43 1
  36   19   44 1
  37   20   45 1
  38   20   46 1
  39   20   47 1
  40   21   24 1
  41   21   23 1
  42   21   48 1
  43   22   23 1
  44   22   26 1
  45   22   49 1
  46   22   50 1
  47   23   51 1
  48   23   52 1
  49   24   25 1
  50   24   53 1
  51   24   54 1
  52   25   26 1
  53   25   55 1
  54   25   56 1
  55   26   27 1
  56   26   57 1
  57   27   58 1
  58   27   59 1
  59   27   60 1
  60   28   29 1
  61   28   61 1
  62   28   62 1
  63   29   30 1
  64   29   63 1
  65   29   64 1
  66   30   65 1
  67   30   66 1
  68   30   67 1
  69   31   68 1
  70   33   69 1
  71   33   70 1
  72   33   71 1
  73   34   72 1
  74   34   73 1
  75   34   74 1

#	End of record

