#	Name: ASD01920006
#	Creating user name:	WinNT
#	Creation time:	15. 06. 2019 20:11

#	Modifying user name:	WinNT
#	Modification time:	15. 06. 2019 20:11

#	Program:	/corina/corina34_cracker 3.40 0067  02.08.2006

@<TRIPOS>MOLECULE
ASD01920006
  43   46    0    0    0
SMALL
NO_CHARGES


@<TRIPOS>ATOM
   1 N1            -0.0644     1.4053     0.2558 N.am    
   2 C2             0.0285     0.0499     0.0770 C.2     
   3 C3            -1.0771    -0.7143    -0.1582 C.2     
   4 C4            -2.3371    -0.1071    -0.2190 C.2     
   5 C5            -2.4233     1.2846    -0.0338 C.2     
   6 C6            -1.2595     2.0328     0.2106 C.2     
   7 O7            -3.5944    -0.5234    -0.4225 O.3     
   8 N8            -4.4032     0.3757    -0.3899 N.2     
   9 C9            -3.8599     1.5480    -0.1628 C.2     
  10 C10           -4.5498     2.8570    -0.0589 C.ar    
  11 O11           -1.3270     3.2392     0.3724 O.2     
  12 C12            1.1505     2.1848     0.5058 C.3     
  13 C13            1.3551    -0.5981     0.1397 C.ar    
  14 C14           -5.6632     3.1258    -0.8530 C.ar    
  15 C15           -6.3012     4.3454    -0.7522 C.ar    
  16 C16           -5.8375     5.3002     0.1348 C.ar    
  17 C17           -4.7326     5.0391     0.9251 C.ar    
  18 C18           -4.0905     3.8206     0.8372 C.ar    
  19 C19            1.5843    -1.6408     1.0395 C.ar    
  20 C20            2.8249    -2.2416     1.0926 C.ar    
  21 C21            3.8409    -1.8132     0.2567 C.ar    
  22 C22            3.6207    -0.7801    -0.6371 C.ar    
  23 C23            2.3831    -0.1743    -0.7045 C.ar    
  24 C24            1.3496     3.1957    -0.6253 C.3     
  25 C25            1.0147     2.9282     1.8362 C.3     
  26 H26           -0.9807    -1.7810    -0.2970 H       
  27 H27            2.0093     1.5150     0.5499 H       
  28 H28           -6.0259     2.3812    -1.5461 H       
  29 H29           -7.1638     4.5549    -1.3673 H       
  30 H30           -6.3398     6.2533     0.2104 H       
  31 H31           -4.3747     5.7883     1.6157 H       
  32 H32           -3.2282     3.6176     1.4549 H       
  33 H33            0.7922    -1.9759     1.6927 H       
  34 H34            3.0037    -3.0481     1.7884 H       
  35 H35            4.8103    -2.2871     0.3023 H       
  36 H36            4.4182    -0.4501    -1.2862 H       
  37 H37            2.2125     0.6319    -1.4025 H       
  38 H38            0.4908     3.8655    -0.6694 H       
  39 H39            2.2536     3.7757    -0.4393 H       
  40 H40            1.4464     2.6661    -1.5731 H       
  41 H41            0.8729     2.2080     2.6420 H       
  42 H42            1.9187     3.5082     2.0222 H       
  43 H43            0.1559     3.5980     1.7921 H       
@<TRIPOS>BOND
   1    1    2 1
   2    1   12 1
   3    1    6 am
   4    2    3 2
   5    2   13 1
   6    3    4 1
   7    3   26 1
   8    4    5 2
   9    4    7 1
  10    5    6 1
  11    5    9 1
  12    6   11 2
  13    7    8 1
  14    8    9 2
  15    9   10 1
  16   10   14 ar
  17   10   18 ar
  18   12   24 1
  19   12   25 1
  20   12   27 1
  21   13   19 ar
  22   13   23 ar
  23   14   15 ar
  24   14   28 1
  25   15   16 ar
  26   15   29 1
  27   16   17 ar
  28   16   30 1
  29   17   18 ar
  30   17   31 1
  31   18   32 1
  32   19   20 ar
  33   19   33 1
  34   20   21 ar
  35   20   34 1
  36   21   22 ar
  37   21   35 1
  38   22   23 ar
  39   22   36 1
  40   23   37 1
  41   24   38 1
  42   24   39 1
  43   24   40 1
  44   25   41 1
  45   25   42 1
  46   25   43 1

#	End of record

