#	Name: ASD01810125
#	Creating user name:	WinNT
#	Creation time:	15. 06. 2019 19:23

#	Modifying user name:	WinNT
#	Modification time:	15. 06. 2019 19:23

#	Program:	/corina/corina34_cracker 3.40 0067  02.08.2006

@<TRIPOS>MOLECULE
ASD01810125
  41   44    0    0    0
SMALL
NO_CHARGES


@<TRIPOS>ATOM
   1 C1             0.1041     1.4768     0.3866 C.ar    
   2 C2             0.0850     0.0905     0.3783 C.ar    
   3 C3             1.2534    -0.6303     0.2380 C.ar    
   4 C4             2.4705     0.0349     0.1022 C.ar    
   5 C5             2.4883     1.4402     0.1103 C.ar    
   6 C6             1.2978     2.1572     0.2535 C.ar    
   7 N7             3.6447    -0.6745    -0.0381 N.pl3   
   8 C8             4.8383    -0.0824    -0.1709 C.2     
   9 C9             4.9815     1.2904    -0.1774 C.2     
  10 C10            3.7817     2.1314    -0.0342 C.2     
  11 O11            3.8551     3.3478    -0.0339 O.2     
  12 C12            6.3094     1.9024    -0.3250 C.2     
  13 O13            6.4363     3.2445    -0.3300 O.3     
  14 O14            7.2934     1.1983    -0.4427 O.2     
  15 C15            3.5837    -2.1382    -0.0416 C.3     
  16 C16            3.4399    -2.6316    -1.4583 C.ar    
  17 C17            4.5603    -2.7756    -2.2558 C.ar    
  18 C18            4.4316    -3.2271    -3.5548 C.ar    
  19 C19            3.1759    -3.5370    -4.0593 C.ar    
  20 C20            2.0529    -3.3918    -3.2560 C.ar    
  21 C21            2.1884    -2.9448    -1.9562 C.ar    
  22 N22            3.0420    -3.9951    -5.3774 N.pl3   
  23 F23            1.3146     3.5081     0.2609 F       
  24 C24            1.8839    -4.3303    -5.9898 C.2     
  25 C25            2.1827    -4.7207    -7.2504 C.2     
  26 C26            3.5686    -4.6213    -7.4151 C.2     
  27 N27            4.0837    -4.1809    -6.2955 N.2     
  28 F28            1.2175    -1.9809     0.2329 F       
  29 H29           -0.8194     2.0266     0.4931 H       
  30 H30           -0.8549    -0.4312     0.4831 H       
  31 H31            5.7184    -0.6995    -0.2759 H       
  32 H32            7.3298     3.6006    -0.4297 H       
  33 H33            4.4988    -2.5411     0.3923 H       
  34 H34            2.7271    -2.4675     0.5465 H       
  35 H35            5.5369    -2.5344    -1.8628 H       
  36 H36            5.3070    -3.3387    -4.1774 H       
  37 H37            1.0747    -3.6317    -3.6458 H       
  38 H38            1.3152    -2.8317    -1.3308 H       
  39 H39            0.8976    -4.2935    -5.5512 H       
  40 H40            1.4762    -5.0508    -7.9976 H       
  41 H41            4.1183    -4.8622    -8.3131 H       
@<TRIPOS>BOND
   1    1    2 ar
   2    1    6 ar
   3    1   29 1
   4    2    3 ar
   5    2   30 1
   6    3    4 ar
   7    3   28 1
   8    4    5 ar
   9    4    7 1
  10    5    6 ar
  11    5   10 1
  12    6   23 1
  13    7    8 1
  14    7   15 1
  15    8    9 2
  16    8   31 1
  17    9   10 1
  18    9   12 1
  19   10   11 2
  20   12   13 1
  21   12   14 2
  22   13   32 1
  23   15   16 1
  24   15   33 1
  25   15   34 1
  26   16   17 ar
  27   16   21 ar
  28   17   18 ar
  29   17   35 1
  30   18   19 ar
  31   18   36 1
  32   19   20 ar
  33   19   22 1
  34   20   21 ar
  35   20   37 1
  36   21   38 1
  37   22   24 1
  38   22   27 1
  39   24   25 2
  40   24   39 1
  41   25   26 1
  42   25   40 1
  43   26   27 2
  44   26   41 1

#	End of record

