#	Name: ASD03731621
#	Creating user name:	WinNT
#	Creation time:	15. 06. 2019 20:46

#	Modifying user name:	WinNT
#	Modification time:	15. 06. 2019 20:46

#	Program:	/corina/corina34_cracker 3.40 0067  02.08.2006

@<TRIPOS>MOLECULE
ASD03731621
  33   34    0    0    0
SMALL
NO_CHARGES


@<TRIPOS>ATOM
   1 C1             0.3759     1.0938     1.9780 C.2     
   2 C2             0.2922    -0.2825     1.4514 C.ar    
   3 C3             1.3749    -0.8359     0.7622 C.ar    
   4 C4             1.2927    -2.1209     0.2723 C.ar    
   5 C5             0.1337    -2.8669     0.4631 C.ar    
   6 C6            -0.9443    -2.3193     1.1479 C.ar    
   7 C7            -0.8673    -1.0372     1.6456 C.ar    
   8 O8             1.3876     1.7476     1.8125 O.2     
   9 N9            -0.6711     1.6279     2.6375 N.am    
  10 S10           -0.5772     3.1720     3.2284 S.o2    
  11 O11           -1.8282     3.3784     3.8700 O.2     
  12 O12            0.6368     3.1915     3.9666 O.2     
  13 C13           -0.4402     4.2147     1.7503 C.3     
  14 O14            0.0558    -4.1323    -0.0213 O.3     
  15 C15           -1.1302    -4.7864     0.0907 C.ar    
  16 C16           -2.0843    -4.6707    -0.9101 C.ar    
  17 C17           -3.2899    -5.3368    -0.7942 C.ar    
  18 C18           -3.5451    -6.1190     0.3200 C.ar    
  19 C19           -2.5946    -6.2349     1.3182 C.ar    
  20 C20           -1.3861    -5.5750     1.2030 C.ar    
  21 Cl21          -5.0600    -6.9544     0.4643 Cl      
  22 Cl22          -4.4848    -5.1925    -2.0453 Cl      
  23 Cl23           2.6362    -2.8099    -0.5845 Cl      
  24 H24            2.2745    -0.2570     0.6137 H       
  25 H25           -1.8423    -2.9012     1.2937 H       
  26 H26           -1.7041    -0.6143     2.1816 H       
  27 H27           -1.4797     1.1077     2.7661 H       
  28 H28           -1.3196     4.0720     1.1222 H       
  29 H29           -0.3726     5.2608     2.0486 H       
  30 H30            0.4539     3.9376     1.1918 H       
  31 H31           -1.8853    -4.0605    -1.7787 H       
  32 H32           -2.7954    -6.8452     2.1863 H       
  33 H33           -0.6425    -5.6699     1.9805 H       
@<TRIPOS>BOND
   1    1    2 1
   2    1    8 2
   3    1    9 am
   4    2    3 ar
   5    2    7 ar
   6    3    4 ar
   7    3   24 1
   8    4    5 ar
   9    4   23 1
  10    5    6 ar
  11    5   14 1
  12    6    7 ar
  13    6   25 1
  14    7   26 1
  15    9   10 am
  16    9   27 1
  17   10   11 2
  18   10   12 2
  19   10   13 1
  20   13   28 1
  21   13   29 1
  22   13   30 1
  23   14   15 1
  24   15   16 ar
  25   15   20 ar
  26   16   17 ar
  27   16   31 1
  28   17   18 ar
  29   17   22 1
  30   18   19 ar
  31   18   21 1
  32   19   20 ar
  33   19   32 1
  34   20   33 1

#	End of record

