#	Name: ASD02500759
#	Creating user name:	WinNT
#	Creation time:	15. 06. 2019 20:23

#	Modifying user name:	WinNT
#	Modification time:	15. 06. 2019 20:23

#	Program:	/corina/corina34_cracker 3.40 0067  02.08.2006

@<TRIPOS>MOLECULE
ASD02500759
  45   48    0    0    0
SMALL
NO_CHARGES


@<TRIPOS>ATOM
   1 N1            -0.0179     1.4654     0.0101 N.am    
   2 C2             0.0021    -0.0041     0.0020 C.3     
   3 C3             0.8261    -0.4764    -1.2022 C.3     
   4 N4             2.1040     0.2493    -1.2105 N.am    
   5 C5             2.0841     1.7188    -1.2024 C.3     
   6 C6             1.2601     2.1912     0.0018 C.3     
   7 S7             3.5407    -0.5740    -1.2281 S.o2    
   8 O8             4.5153     0.3081    -0.6883 O.2     
   9 O9             3.2726    -1.8605    -0.6876 O.2     
  10 C10            3.9775    -0.8248    -2.9166 C.ar    
  11 C11            4.7450     0.1164    -3.5807 C.ar    
  12 C12            5.0876    -0.0818    -4.9076 C.ar    
  13 C13            4.6635    -1.2188    -5.5690 C.ar    
  14 C14            3.8971    -2.1593    -4.9070 C.ar    
  15 C15            3.5580    -1.9659    -3.5783 C.ar    
  16 F16            2.8139    -2.8883    -2.9297 F       
  17 F17            5.1594     1.2281    -2.9345 F       
  18 S18           -1.4546     2.2888     0.0214 S.o2    
  19 O19           -1.1840     3.5755    -0.5173 O.2     
  20 O20           -2.4267     1.4070    -0.5232 O.2     
  21 O21           -3.0660     2.8964     5.6397 O.3     
  22 C22           -3.4369     1.5240     5.8684 C.3     
  23 O23           -3.7566     1.0323     4.5534 O.3     
  24 C24           -3.0198     1.7917     3.6912 C.ar    
  25 C25           -2.5951     2.9380     4.3592 C.ar    
  26 C26           -1.8240     3.8770     3.6943 C.ar    
  27 C27           -1.4775     3.6761     2.3708 C.ar    
  28 C28           -1.8991     2.5390     1.7080 C.ar    
  29 C29           -2.6694     1.5974     2.3654 C.ar    
  30 H30            0.4576    -0.3688     0.9227 H       
  31 H31           -1.0165    -0.3833    -0.0803 H       
  32 H32            1.0139    -1.5469    -1.1197 H       
  33 H33            0.2810    -0.2679    -2.1228 H       
  34 H34            3.1027     2.0980    -1.1201 H       
  35 H35            1.6286     2.0836    -2.1231 H       
  36 H36            1.0723     3.2617    -0.0807 H       
  37 H37            1.8051     1.9827     0.9224 H       
  38 H38            5.6862     0.6526    -5.4261 H       
  39 H39            4.9309    -1.3724    -6.6041 H       
  40 H40            3.5659    -3.0472    -5.4249 H       
  41 H41           -2.6014     0.9672     6.2928 H       
  42 H42           -4.3079     1.4663     6.5212 H       
  43 H43           -1.4936     4.7668     4.2097 H       
  44 H44           -0.8765     4.4095     1.8538 H       
  45 H45           -2.9974     0.7096     1.8450 H       
@<TRIPOS>BOND
   1    1    2 1
   2    1    6 1
   3    1   18 am
   4    2    3 1
   5    2   30 1
   6    2   31 1
   7    3    4 1
   8    3   32 1
   9    3   33 1
  10    4    5 1
  11    4    7 am
  12    5    6 1
  13    5   34 1
  14    5   35 1
  15    6   36 1
  16    6   37 1
  17    7    8 2
  18    7    9 2
  19    7   10 1
  20   10   11 ar
  21   10   15 ar
  22   11   12 ar
  23   11   17 1
  24   12   13 ar
  25   12   38 1
  26   13   14 ar
  27   13   39 1
  28   14   15 ar
  29   14   40 1
  30   15   16 1
  31   18   19 2
  32   18   20 2
  33   18   28 1
  34   21   22 1
  35   21   25 1
  36   22   23 1
  37   22   41 1
  38   22   42 1
  39   23   24 1
  40   24   25 ar
  41   24   29 ar
  42   25   26 ar
  43   26   27 ar
  44   26   43 1
  45   27   28 ar
  46   27   44 1
  47   28   29 ar
  48   29   45 1

#	End of record

