#	Name: ASD05380321
#	Creating user name:	WinNT
#	Creation time:	15. 06. 2019 20:59

#	Modifying user name:	WinNT
#	Modification time:	15. 06. 2019 20:59

#	Program:	/corina/corina34_cracker 3.40 0067  02.08.2006

@<TRIPOS>MOLECULE
ASD05380321
  61   65    0    0    0
SMALL
NO_CHARGES


@<TRIPOS>ATOM
   1 N1            -0.1888     1.5185    -1.0101 N.ar    
   2 C2            -0.2150     0.2304    -1.3531 C.ar    
   3 C3             0.9709    -0.3911    -1.7411 C.ar    
   4 C4             2.1407     0.3645    -1.7543 C.ar    
   5 N5             2.0886     1.6444    -1.3990 N.ar    
   6 C6             0.9436     2.2031    -1.0355 C.ar    
   7 N7             3.3477    -0.2126    -2.1338 N.am    
   8 C8             3.6541    -0.7576    -3.4652 C.3     
   9 C9             4.4233    -0.3576    -1.3479 C.2     
  10 O10            5.4608    -0.9456    -1.9538 O.3     
  11 C11            5.1044    -1.2606    -3.3310 C.3     
  12 C12            6.0073    -0.5294    -4.2908 C.ar    
  13 O13            4.4536     0.0118    -0.1908 O.2     
  14 N14            0.9313     3.5387    -0.6726 N.3     
  15 C15           -0.4357     3.9918    -0.3771 C.3     
  16 C16            1.5427     4.3740    -1.7166 C.3     
  17 C17            1.5623     5.8319    -1.2497 C.3     
  18 O18            0.2293     6.2451    -0.9372 O.3     
  19 C19           -0.3962     5.4535     0.0764 C.3     
  20 C20           -1.4869    -0.5301    -1.3217 C.ar    
  21 C21           -2.3196    -0.4880    -0.1998 C.ar    
  22 N22           -3.4452    -1.1792    -0.2104 N.ar    
  23 C23           -3.7879    -1.9050    -1.2654 C.ar    
  24 N24           -3.0248    -1.9703    -2.3478 N.ar    
  25 C25           -1.8870    -1.3033    -2.4159 C.ar    
  26 C26           -1.9385     0.3338     1.0045 C.3     
  27 F27           -2.1513     1.6891     0.7306 F       
  28 F28           -2.7227    -0.0497     2.0978 F       
  29 F29           -0.5879     0.1248     1.3033 F       
  30 N30           -4.9738    -2.6141    -1.2361 N.pl3   
  31 C31            6.3582    -1.1157    -5.4925 C.ar    
  32 C32            7.1864    -0.4451    -6.3729 C.ar    
  33 C33            7.6634     0.8120    -6.0519 C.ar    
  34 C34            7.3117     1.3987    -4.8506 C.ar    
  35 C35            6.4800     0.7299    -3.9721 C.ar    
  36 C36            3.5616     0.3383    -4.5289 C.3     
  37 C37            2.1192     0.8404    -4.6197 C.3     
  38 H38            0.9823    -1.4332    -2.0243 H       
  39 H39            2.9816    -1.5810    -3.7059 H       
  40 H40            5.1539    -2.3359    -3.5021 H       
  41 H41           -1.0496     3.9053    -1.2736 H       
  42 H42           -0.8598     3.3760     0.4161 H       
  43 H43            2.5627     4.0371    -1.9013 H       
  44 H44            0.9603     4.2936    -2.6345 H       
  45 H45            2.1886     5.9214    -0.3621 H       
  46 H46            1.9624     6.4629    -2.0433 H       
  47 H47           -1.4126     5.8109     0.2418 H       
  48 H48            0.1731     5.5320     1.0026 H       
  49 H49           -1.2705    -1.3607    -3.3008 H       
  50 H50           -5.5423    -2.5763    -0.4511 H       
  51 H51           -5.2377    -3.1496    -2.0007 H       
  52 H52            5.9856    -2.0979    -5.7433 H       
  53 H53            7.4612    -0.9034    -7.3114 H       
  54 H54            8.3110     1.3357    -6.7394 H       
  55 H55            7.6846     2.3807    -4.5996 H       
  56 H56            6.2052     1.1882    -3.0335 H       
  57 H57            4.2177     1.1650    -4.2567 H       
  58 H58            3.8672    -0.0655    -5.4941 H       
  59 H59            1.4481    -0.0063    -4.7638 H       
  60 H60            1.8565     1.3595    -3.6979 H       
  61 H61            2.0255     1.5258    -5.4620 H       
@<TRIPOS>BOND
   1    1    2 ar
   2    1    6 ar
   3    2    3 ar
   4    2   20 1
   5    3    4 ar
   6    3   38 1
   7    4    5 ar
   8    4    7 1
   9    5    6 ar
  10    6   14 1
  11    7    8 1
  12    7    9 am
  13    8   36 1
  14    8   11 1
  15    8   39 1
  16    9   10 1
  17    9   13 2
  18   10   11 1
  19   11   12 1
  20   11   40 1
  21   12   31 ar
  22   12   35 ar
  23   14   15 1
  24   14   16 1
  25   15   19 1
  26   15   41 1
  27   15   42 1
  28   16   17 1
  29   16   43 1
  30   16   44 1
  31   17   18 1
  32   17   45 1
  33   17   46 1
  34   18   19 1
  35   19   47 1
  36   19   48 1
  37   20   21 ar
  38   20   25 ar
  39   21   22 ar
  40   21   26 1
  41   22   23 ar
  42   23   24 ar
  43   23   30 1
  44   24   25 ar
  45   25   49 1
  46   26   27 1
  47   26   28 1
  48   26   29 1
  49   30   50 1
  50   30   51 1
  51   31   32 ar
  52   31   52 1
  53   32   33 ar
  54   32   53 1
  55   33   34 ar
  56   33   54 1
  57   34   35 ar
  58   34   55 1
  59   35   56 1
  60   36   37 1
  61   36   57 1
  62   36   58 1
  63   37   59 1
  64   37   60 1
  65   37   61 1

#	End of record

