#	Name: ASD01920069
#	Creating user name:	WinNT
#	Creation time:	15. 06. 2019 20:11

#	Modifying user name:	WinNT
#	Modification time:	15. 06. 2019 20:11

#	Program:	/corina/corina34_cracker 3.40 0067  02.08.2006

@<TRIPOS>MOLECULE
ASD01920069
  36   38    0    0    0
SMALL
NO_CHARGES


@<TRIPOS>ATOM
   1 C1            -0.1071     1.4812    -0.5553 C.2     
   2 C2            -0.1792     0.2340    -1.1092 C.2     
   3 C3             1.0723     2.3511    -0.5698 C.2     
   4 O4             2.0979     1.9769    -1.1079 O.2     
   5 N5             1.0212     3.5655     0.0126 N.am    
   6 C6             2.1777     4.3500     0.0982 C.ar    
   7 C7             2.0888     5.7321    -0.0070 C.ar    
   8 C8             3.4130     3.7471     0.2939 C.ar    
   9 C9             4.5538     4.5223     0.3787 C.ar    
  10 C10            4.4644     5.9033     0.2682 C.ar    
  11 C11            3.2294     6.5057     0.0774 C.ar    
  12 O12            5.5870     6.6660     0.3521 O.3     
  13 Cl13           6.0987     3.7693     0.6240 Cl      
  14 C14            6.3673     6.7747    -0.7526 C.ar    
  15 C15            7.5746     7.4572    -0.6771 C.ar    
  16 C16            8.3619     7.5608    -1.8108 C.ar    
  17 C17            7.9107     6.9746    -2.9862 C.ar    
  18 C18            6.6985     6.3107    -2.9881 C.ar    
  19 N19            5.9732     6.2249    -1.8894 N.ar    
  20 Cl20           8.8585     7.0751    -4.4372 Cl      
  21 C21           -1.4081    -0.3613    -0.9501 C.2     
  22 C22           -2.3123     0.3710    -0.2892 C.2     
  23 S23           -1.6584     1.8781     0.1711 S.3     
  24 C24           -3.7220    -0.0737     0.0040 C.3     
  25 H25            0.6469    -0.2370    -1.6213 H       
  26 H26            0.1832     3.8959     0.3725 H       
  27 H27            1.1276     6.2017    -0.1552 H       
  28 H28            3.4822     2.6728     0.3802 H       
  29 H29            3.1605     7.5801    -0.0088 H       
  30 H30            7.8947     7.9015     0.2537 H       
  31 H31            9.3053     8.0857    -1.7821 H       
  32 H32            6.3426     5.8529    -3.8992 H       
  33 H33           -1.6278    -1.3478    -1.3309 H       
  34 H34           -3.7473    -0.5932     0.9619 H       
  35 H35           -4.3765     0.7969     0.0455 H       
  36 H36           -4.0619    -0.7466    -0.7833 H       
@<TRIPOS>BOND
   1    1    2 2
   2    1    3 1
   3    1   23 1
   4    2   21 1
   5    2   25 1
   6    3    4 2
   7    3    5 am
   8    5    6 1
   9    5   26 1
  10    6    7 ar
  11    6    8 ar
  12    7   11 ar
  13    7   27 1
  14    8    9 ar
  15    8   28 1
  16    9   10 ar
  17    9   13 1
  18   10   11 ar
  19   10   12 1
  20   11   29 1
  21   12   14 1
  22   14   15 ar
  23   14   19 ar
  24   15   16 ar
  25   15   30 1
  26   16   17 ar
  27   16   31 1
  28   17   18 ar
  29   17   20 1
  30   18   19 ar
  31   18   32 1
  32   21   22 2
  33   21   33 1
  34   22   23 1
  35   22   24 1
  36   24   34 1
  37   24   35 1
  38   24   36 1

#	End of record

