#	Name: ASD01720153
#	Creating user name:	WinNT
#	Creation time:	15. 06. 2019 19:23

#	Modifying user name:	WinNT
#	Modification time:	15. 06. 2019 19:23

#	Program:	/corina/corina34_cracker 3.40 0067  02.08.2006

@<TRIPOS>MOLECULE
ASD01720153
  92   96    0    0    0
SMALL
NO_CHARGES


@<TRIPOS>ATOM
   1 C1            -0.0856     1.7877    -2.9955 C.ar    
   2 C2            -0.3941     1.6798    -4.3358 C.ar    
   3 C3             0.5096     2.1206    -5.2849 C.ar    
   4 C4             1.7100     2.6700    -4.8860 C.ar    
   5 C5             2.0212     2.7850    -3.5364 C.ar    
   6 C6             1.1249     2.3357    -2.5930 C.ar    
   7 C7             1.4110     2.3998    -1.1136 C.3     
   8 C8             3.3380     3.4200    -3.1749 C.3     
   9 C9             3.7525     3.0416    -1.7539 C.3     
  10 N10            2.5882     3.2414    -0.8742 N.am    
  11 C11            4.8888     3.9226    -1.3027 C.2     
  12 N12            5.9701     3.3776    -0.7109 N.am    
  13 O13            4.8303     5.1221    -1.4722 O.2     
  14 C14            7.0747     4.2341    -0.2723 C.3     
  15 C15            8.1677     3.3718     0.3624 C.3     
  16 C16            9.3213     4.2663     0.8205 C.3     
  17 C17           10.4142     3.4040     1.4552 C.3     
  18 C18           11.5679     4.2985     1.9133 C.3     
  19 C19           12.6957     3.4405     2.4260 C.2     
  20 N20           11.1021     5.1874     2.9861 N.3     
  21 N21           13.5419     2.8508     1.5585 N.am    
  22 O22           12.8420     3.2807     3.6193 O.2     
  23 C23           14.6384     2.0168     2.0569 C.3     
  24 C24           15.4425     1.4718     0.8749 C.3     
  25 C25           16.1078     2.6137     0.1507 C.ar    
  26 C26           16.4934     0.5169     1.3799 C.ar    
  27 C27           17.4957     0.9716     2.2163 C.ar    
  28 C28           18.4597     0.0957     2.6795 C.ar    
  29 C29           18.4211    -1.2348     2.3066 C.ar    
  30 C30           17.4183    -1.6896     1.4710 C.ar    
  31 C31           16.4518    -0.8147     1.0113 C.ar    
  32 C32           17.3527     4.6583     0.2034 C.ar    
  33 C33           16.7425     3.6107     0.8676 C.ar    
  34 C34           16.0881     2.6612    -1.2307 C.ar    
  35 C35           16.6983     3.7088    -1.8950 C.ar    
  36 C36           17.3277     4.7090    -1.1778 C.ar    
  37 C37            2.6039     4.1599     0.1119 C.2     
  38 O38            3.6211     4.7756     0.3511 O.2     
  39 C39            1.3575     4.4220     0.9175 C.3     
  40 C40            1.6439     5.5011     1.9636 C.3     
  41 C41            0.3975     5.7632     2.7692 C.2     
  42 C42            0.4146     6.7662     3.8460 C.ar    
  43 O43           -0.6195     5.1477     2.5301 O.2     
  44 C44            1.5921     8.4203     5.1316 C.ar    
  45 C45            1.5840     7.4822     4.1210 C.ar    
  46 C46           -0.7400     7.0122     4.5957 C.ar    
  47 C47           -0.7159     7.9535     5.6030 C.ar    
  48 C48            0.4468     8.6543     5.8726 C.ar    
  49 H49           -0.7929     1.4475    -2.2537 H       
  50 H50           -1.3374     1.2525    -4.6424 H       
  51 H51            0.2762     2.0345    -6.3358 H       
  52 H52            2.4146     3.0135    -5.6289 H       
  53 H53            0.5506     2.8238    -0.5959 H       
  54 H54            1.6010     1.3947    -0.7371 H       
  55 H55            4.1030     3.0816    -3.8737 H       
  56 H56            3.2444     4.5038    -3.2444 H       
  57 H57            4.0617     1.9968    -1.7260 H       
  58 H58            6.0169     2.4183    -0.5754 H       
  59 H59            7.4846     4.7665    -1.1306 H       
  60 H60            6.7081     4.9533     0.4601 H       
  61 H61            7.7578     2.8394     1.2207 H       
  62 H62            8.5343     2.6526    -0.3700 H       
  63 H63            9.7312     4.7987    -0.0378 H       
  64 H64            8.9547     4.9855     1.5530 H       
  65 H65           10.0044     2.8716     2.3135 H       
  66 H66           10.7808     2.6848     0.7228 H       
  67 H67           11.9196     4.8968     1.0728 H       
  68 H68           10.7707     4.6563     3.7774 H       
  69 H69           11.8275     5.8324     3.2618 H       
  70 H70           13.4250     2.9787     0.6041 H       
  71 H71           15.2894     2.6152     2.6942 H       
  72 H72           14.2302     1.1860     2.6326 H       
  73 H73           14.7742     0.9481     0.1913 H       
  74 H74           17.5259     2.0111     2.5076 H       
  75 H75           19.2432     0.4511     3.3324 H       
  76 H76           19.1747    -1.9190     2.6679 H       
  77 H77           17.3883    -2.7291     1.1794 H       
  78 H78           15.6662    -1.1708     0.3613 H       
  79 H79           17.8479     5.4376     0.7635 H       
  80 H80           16.7613     3.5715     1.9468 H       
  81 H81           15.5964     1.8798    -1.7910 H       
  82 H82           16.6836     3.7455    -2.9742 H       
  83 H83           17.8044     5.5274    -1.6968 H       
  84 H84            0.5611     4.7607     0.2547 H       
  85 H85            1.0483     3.5041     1.4174 H       
  86 H86            2.4403     5.1624     2.6264 H       
  87 H87            1.9531     6.4190     1.4637 H       
  88 H88            2.4943     8.9741     5.3452 H       
  89 H89            2.4785     7.3007     3.5436 H       
  90 H90           -1.6482     6.4667     4.3861 H       
  91 H91           -1.6067     8.1447     6.1829 H       
  92 H92            0.4595     9.3898     6.6633 H       
@<TRIPOS>BOND
   1    1    2 ar
   2    1    6 ar
   3    1   49 1
   4    2    3 ar
   5    2   50 1
   6    3    4 ar
   7    3   51 1
   8    4    5 ar
   9    4   52 1
  10    5    6 ar
  11    5    8 1
  12    6    7 1
  13    7   10 1
  14    7   53 1
  15    7   54 1
  16    8    9 1
  17    8   55 1
  18    8   56 1
  19    9   10 1
  20    9   11 1
  21    9   57 1
  22   10   37 am
  23   11   12 am
  24   11   13 2
  25   12   14 1
  26   12   58 1
  27   14   15 1
  28   14   59 1
  29   14   60 1
  30   15   16 1
  31   15   61 1
  32   15   62 1
  33   16   17 1
  34   16   63 1
  35   16   64 1
  36   17   18 1
  37   17   65 1
  38   17   66 1
  39   18   19 1
  40   18   20 1
  41   18   67 1
  42   19   21 am
  43   19   22 2
  44   20   68 1
  45   20   69 1
  46   21   23 1
  47   21   70 1
  48   23   24 1
  49   23   71 1
  50   23   72 1
  51   24   25 1
  52   24   26 1
  53   24   73 1
  54   25   34 ar
  55   25   33 ar
  56   26   27 ar
  57   26   31 ar
  58   27   28 ar
  59   27   74 1
  60   28   29 ar
  61   28   75 1
  62   29   30 ar
  63   29   76 1
  64   30   31 ar
  65   30   77 1
  66   31   78 1
  67   32   33 ar
  68   32   36 ar
  69   32   79 1
  70   33   80 1
  71   34   35 ar
  72   34   81 1
  73   35   36 ar
  74   35   82 1
  75   36   83 1
  76   37   38 2
  77   37   39 1
  78   39   40 1
  79   39   84 1
  80   39   85 1
  81   40   41 1
  82   40   86 1
  83   40   87 1
  84   41   42 1
  85   41   43 2
  86   42   46 ar
  87   42   45 ar
  88   44   45 ar
  89   44   48 ar
  90   44   88 1
  91   45   89 1
  92   46   47 ar
  93   46   90 1
  94   47   48 ar
  95   47   91 1
  96   48   92 1

#	End of record

