#	Name: ASD03082220
#	Creating user name:	WinNT
#	Creation time:	15. 06. 2019 20:27

#	Modifying user name:	WinNT
#	Modification time:	15. 06. 2019 20:27

#	Program:	/corina/corina34_cracker 3.40 0067  02.08.2006

@<TRIPOS>MOLECULE
ASD03082220
  42   45    0    0    0
SMALL
NO_CHARGES


@<TRIPOS>ATOM
   1 N1             0.4936     1.6513     0.0969 N.pl3   
   2 N2             0.0824     0.3088     0.0789 N.2     
   3 C3             1.1675    -0.4229    -0.0259 C.2     
   4 N4             2.2316     0.3807    -0.0744 N.2     
   5 C5             1.8422     1.6384    -0.0014 C.2     
   6 N6             1.2025    -1.8177    -0.0776 N.pl3   
   7 C7             2.4140    -2.4790    -0.3040 C.ar    
   8 C8             2.5932    -3.7785     0.1531 C.ar    
   9 C9             3.7900    -4.4296    -0.0719 C.ar    
  10 C10            4.8113    -3.7880    -0.7526 C.ar    
  11 C11            4.6351    -2.4927    -1.2086 C.ar    
  12 C12            3.4376    -1.8395    -0.9909 C.ar    
  13 C13            3.9851    -5.8392     0.4241 C.3     
  14 F14            2.8243    -6.2691     1.0760 F       
  15 F15            4.2504    -6.6825    -0.6602 F       
  16 F16            5.0616    -5.8746     1.3168 F       
  17 C17            3.0876     5.1537    -0.4177 C.ar    
  18 C18            2.2224     4.0697    -0.4131 C.ar    
  19 C19            2.7243     2.8248    -0.0235 C.ar    
  20 C20            4.0686     2.7118     0.3457 C.ar    
  21 N21            4.8639     3.7577     0.3317 N.ar    
  22 C22            4.4270     4.9588    -0.0320 C.ar    
  23 C23           -0.3680     2.8320     0.1960 C.3     
  24 C24           -0.9269     3.1730    -1.1868 C.3     
  25 F25            5.9813    -4.4269    -0.9716 F       
  26 O26           -1.4472     2.5602     1.0923 O.3     
  27 C27            5.0577     6.2781    -0.1467 C.2     
  28 C28            4.1003     7.1178    -0.5694 C.2     
  29 O29            2.9429     6.4558    -0.7335 O.3     
  30 H30            0.3865    -2.3281     0.0433 H       
  31 H31            1.7971    -4.2791     0.6842 H       
  32 H32            5.4332    -1.9940    -1.7386 H       
  33 H33            3.2990    -0.8307    -1.3507 H       
  34 H34            1.1884     4.1844    -0.7030 H       
  35 H35            4.4586     1.7508     0.6471 H       
  36 H36            0.2125     3.6749     0.5712 H       
  37 H37           -1.5074     2.3302    -1.5620 H       
  38 H38           -1.5680     4.0515    -1.1130 H       
  39 H39           -0.1037     3.3804    -1.8705 H       
  40 H40           -2.0595     3.3000     1.2065 H       
  41 H41            6.0873     6.5245     0.0669 H       
  42 H42            4.2408     8.1725    -0.7547 H       
@<TRIPOS>BOND
   1    1    2 1
   2    1    5 1
   3    1   23 1
   4    2    3 2
   5    3    4 1
   6    3    6 1
   7    4    5 2
   8    5   19 1
   9    6    7 1
  10    6   30 1
  11    7    8 ar
  12    7   12 ar
  13    8    9 ar
  14    8   31 1
  15    9   10 ar
  16    9   13 1
  17   10   11 ar
  18   10   25 1
  19   11   12 ar
  20   11   32 1
  21   12   33 1
  22   13   14 1
  23   13   15 1
  24   13   16 1
  25   17   18 ar
  26   17   22 ar
  27   17   29 1
  28   18   19 ar
  29   18   34 1
  30   19   20 ar
  31   20   21 ar
  32   20   35 1
  33   21   22 ar
  34   22   27 1
  35   23   24 1
  36   23   26 1
  37   23   36 1
  38   24   37 1
  39   24   38 1
  40   24   39 1
  41   26   40 1
  42   27   28 2
  43   27   41 1
  44   28   29 1
  45   28   42 1

#	End of record

