#	Name: ASD01912353
#	Creating user name:	WinNT
#	Creation time:	15. 06. 2019 19:59

#	Modifying user name:	WinNT
#	Modification time:	15. 06. 2019 19:59

#	Program:	/corina/corina34_cracker 3.40 0067  02.08.2006

@<TRIPOS>MOLECULE
ASD01912353
  44   46    0    0    0
SMALL
NO_CHARGES


@<TRIPOS>ATOM
   1 C1            -0.1286     1.6224    -1.1912 C.ar    
   2 C2            -0.1103     0.2366    -1.3739 C.ar    
   3 C3             1.1012    -0.3971    -1.5803 C.ar    
   4 C4             2.2577     0.3714    -1.5980 C.ar    
   5 C5             2.1683     1.7387    -1.4105 C.ar    
   6 N6             1.0030     2.3207    -1.2155 N.ar    
   7 C7             3.4221     2.5746    -1.4294 C.3     
   8 C8            -1.3752     2.2956    -0.9822 C.1     
   9 C9            -2.3971     2.8474    -0.8109 C.1     
  10 C10           -3.6436     3.5206    -0.6019 C.2     
  11 N11           -3.6029     7.1935     0.9990 N.am    
  12 C12           -4.8462     6.4151     1.0694 C.3     
  13 C13           -4.9730     5.5710    -0.2051 C.3     
  14 C14           -3.6664     4.8412    -0.4273 C.2     
  15 C15           -2.3865     5.6476    -0.4469 C.3     
  16 C16           -2.3245     6.4899     0.8337 C.3     
  17 C17           -3.6352     8.5385     1.0796 C.2     
  18 C18           -2.3729     9.3061     1.1388 C.ar    
  19 C19           -2.2231    10.4678     0.3800 C.ar    
  20 C20           -1.0410    11.1805     0.4405 C.ar    
  21 C21           -0.0066    10.7430     1.2526 C.ar    
  22 C22           -0.1509     9.5924     2.0062 C.ar    
  23 C23           -1.3287     8.8751     1.9582 C.ar    
  24 O24           -4.7021     9.1204     1.1037 O.2     
  25 F25           -0.8930    12.3051    -0.2934 F       
  26 H26           -1.0290    -0.3309    -1.3538 H       
  27 H27            1.1471    -1.4665    -1.7241 H       
  28 H28            3.2189    -0.0947    -1.7566 H       
  29 H29            3.6209     2.9084    -2.4478 H       
  30 H30            3.2906     3.4416    -0.7820 H       
  31 H31            4.2617     1.9784    -1.0721 H       
  32 H32           -4.5652     2.9578    -0.5859 H       
  33 H33           -4.8185     5.7602     1.9402 H       
  34 H34           -5.6972     7.0920     1.1455 H       
  35 H35           -5.7813     4.8490    -0.0882 H       
  36 H36           -5.1802     6.2199    -1.0560 H       
  37 H37           -1.5296     4.9751    -0.4856 H       
  38 H38           -2.3789     6.3029    -1.3179 H       
  39 H39           -1.5153     7.2159     0.7547 H       
  40 H40           -2.1520     5.8392     1.6910 H       
  41 H41           -3.0290    10.8086    -0.2532 H       
  42 H42            0.9160    11.3027     1.2968 H       
  43 H43            0.6590     9.2565     2.6368 H       
  44 H44           -1.4407     7.9791     2.5507 H       
@<TRIPOS>BOND
   1    1    2 ar
   2    1    6 ar
   3    1    8 1
   4    2    3 ar
   5    2   26 1
   6    3    4 ar
   7    3   27 1
   8    4    5 ar
   9    4   28 1
  10    5    6 ar
  11    5    7 1
  12    7   29 1
  13    7   30 1
  14    7   31 1
  15    8    9 3
  16    9   10 1
  17   10   14 2
  18   10   32 1
  19   11   12 1
  20   11   16 1
  21   11   17 am
  22   12   13 1
  23   12   33 1
  24   12   34 1
  25   13   14 1
  26   13   35 1
  27   13   36 1
  28   14   15 1
  29   15   16 1
  30   15   37 1
  31   15   38 1
  32   16   39 1
  33   16   40 1
  34   17   18 1
  35   17   24 2
  36   18   19 ar
  37   18   23 ar
  38   19   20 ar
  39   19   41 1
  40   20   21 ar
  41   20   25 1
  42   21   22 ar
  43   21   42 1
  44   22   23 ar
  45   22   43 1
  46   23   44 1

#	End of record

