#	Name: ASD01320062
#	Creating user name:	WinNT
#	Creation time:	15. 06. 2019 19:15

#	Modifying user name:	WinNT
#	Modification time:	15. 06. 2019 19:15

#	Program:	/corina/corina34_cracker 3.40 0067  02.08.2006

@<TRIPOS>MOLECULE
ASD01320062
 125  130    0    0    0
SMALL
NO_CHARGES


@<TRIPOS>ATOM
   1 C1            -3.4550    -2.1178    -0.7828 C.3     
   2 C2            -3.0882    -3.6025    -0.8287 C.3     
   3 C3            -2.1797    -3.8665    -2.0311 C.3     
   4 C4            -1.8130    -5.3512    -2.0770 C.3     
   5 C5            -0.9044    -5.6151    -3.2794 C.3     
   6 C6            -0.5377    -7.0998    -3.3253 C.3     
   7 C7             0.3708    -7.3638    -4.5277 C.3     
   8 C8             0.7376    -8.8485    -4.5736 C.3     
   9 C9             1.6461    -9.1124    -5.7760 C.3     
  10 C10            2.0074   -10.5748    -5.8212 C.2     
  11 O11            1.5818   -11.3285    -4.9782 O.2     
  12 O12            2.8019   -11.0400    -6.7980 O.3     
  13 C13            3.1080   -12.4592    -6.7790 C.3     
  14 C14            4.0052   -12.7952    -7.9423 C.2     
  15 N15            4.4954   -14.0004    -8.2530 N.2     
  16 N16            5.2192   -13.8954    -9.3112 N.2     
  17 N17            5.2336   -12.6749    -9.7198 N.pl3   
  18 C18            4.4686   -11.9379    -8.8816 C.2     
  19 C19            5.9506   -12.1712   -10.8939 C.3     
  20 C20            7.4081   -12.5398   -10.7888 C.2     
  21 O21            7.8070   -13.1596    -9.8314 O.2     
  22 O22            8.2631   -12.1795   -11.7588 O.3     
  23 C23            9.6556   -12.5694   -11.5907 C.3     
  24 C24            9.8764   -13.9379   -12.2216 C.3     
  25 C25           11.3440   -14.3411   -12.1162 C.3     
  26 C26           12.2129   -13.3403   -12.9005 C.3     
  27 C27           11.9888   -11.9511   -12.3192 C.3     
  28 C28           10.5524   -11.4975   -12.2114 C.3     
  29 C29            9.9689   -11.0376   -13.5465 C.3     
  30 C30           10.5006   -10.2814   -11.2527 C.3     
  31 C31           12.8863   -10.9456   -13.0403 C.3     
  32 C32           14.3361   -11.2898   -12.6528 C.3     
  33 C33           14.6966   -12.6917   -13.1355 C.3     
  34 C34           13.6766   -13.7307   -12.6919 C.3     
  35 C35           13.9887   -15.0691   -13.3610 C.3     
  36 C36           15.4308   -15.4245   -13.1209 C.2     
  37 C37           16.3449   -14.5610   -12.7906 C.2     
  38 C38           16.0797   -13.0905   -12.6091 C.3     
  39 C39           16.1114   -12.8410   -11.0932 C.3     
  40 C40           17.1784   -12.2380   -13.2268 C.3     
  41 C41           18.5745   -12.7538   -12.8760 C.3     
  42 C42           18.7354   -14.2110   -13.3158 C.3     
  43 C43           17.7508   -15.0633   -12.5176 C.3     
  44 C44           17.8875   -16.5339   -12.8771 C.3     
  45 C45           19.3145   -17.0268   -12.6413 C.3     
  46 C46           19.6233   -17.0412   -11.1425 C.3     
  47 C47           19.4296   -18.4647   -13.1730 C.3     
  48 C48           20.3282   -16.1544   -13.3733 C.3     
  49 C49           20.1619   -14.6789   -13.0301 C.3     
  50 C50           18.4581   -14.3215   -14.7908 C.2     
  51 O51           17.5628   -15.0302   -15.1858 O.2     
  52 O52           19.2053   -13.6326   -15.6677 O.3     
  53 C53           14.7849   -12.6638   -14.6706 C.3     
  54 C54           11.8174   -13.4319   -14.3701 C.3     
  55 H55           -2.5470    -1.5220    -0.6898 H       
  56 H56           -3.9770    -1.8440    -1.6996 H       
  57 H57           -4.1022    -1.9298     0.0739 H       
  58 H58           -2.5662    -3.8763     0.0882 H       
  59 H59           -3.9962    -4.1983    -0.9216 H       
  60 H60           -2.7017    -3.5927    -2.9479 H       
  61 H61           -1.2717    -3.2706    -1.9382 H       
  62 H62           -1.2909    -5.6250    -1.1601 H       
  63 H63           -2.7209    -5.9470    -2.1699 H       
  64 H64           -1.4264    -5.3413    -4.1963 H       
  65 H65            0.0036    -5.0193    -3.1865 H       
  66 H66           -0.0157    -7.3736    -2.4084 H       
  67 H67           -1.4457    -7.6956    -3.4182 H       
  68 H68           -0.1512    -7.0900    -5.4446 H       
  69 H69            1.2788    -6.7679    -4.4348 H       
  70 H70            1.2596    -9.1223    -3.6567 H       
  71 H71           -0.1704    -9.4443    -4.6665 H       
  72 H72            1.1241    -8.8386    -6.6929 H       
  73 H73            2.5541    -8.5166    -5.6831 H       
  74 H74            3.6135   -12.7094    -5.8462 H       
  75 H75            2.1835   -13.0314    -6.8560 H       
  76 H76            4.2732   -10.8777    -8.9450 H       
  77 H77            5.5279   -12.6145   -11.7956 H       
  78 H78            5.8526   -11.0867   -10.9419 H       
  79 H79            9.8699   -12.6295   -10.5177 H       
  80 H80            9.2734   -14.6777   -11.6738 H       
  81 H81            9.5376   -13.9428   -13.2531 H       
  82 H82           11.6552   -14.3361   -11.0723 H       
  83 H83           11.4829   -15.3364   -12.5365 H       
  84 H84           12.3802   -11.9991   -11.2696 H       
  85 H85            9.8901   -11.8899   -14.2214 H       
  86 H86            8.9793   -10.6110   -13.3828 H       
  87 H87           10.6211   -10.2839   -13.9876 H       
  88 H88           11.1187    -9.4774   -11.6521 H       
  89 H89            9.4710    -9.9360   -11.1593 H       
  90 H90           10.8756   -10.5754   -10.2724 H       
  91 H91           12.7629   -10.9829   -14.1112 H       
  92 H92           12.6793    -9.9327   -12.6886 H       
  93 H93           15.0001   -10.5590   -13.1168 H       
  94 H94           14.3976   -11.1975   -11.5717 H       
  95 H95           13.7975   -13.8840   -11.5980 H       
  96 H96           13.3661   -15.8497   -12.9057 H       
  97 H97           13.7992   -15.0582   -14.4276 H       
  98 H98           15.7096   -16.4630   -13.2327 H       
  99 H99           15.3408   -13.4417   -10.6099 H       
 100 H100          17.0890   -13.1192   -10.6995 H       
 101 H101          15.9268   -11.7852   -10.8947 H       
 102 H102          17.1034   -12.1511   -14.3046 H       
 103 H103          17.0889   -11.2151   -12.8198 H       
 104 H104          19.3204   -12.1472   -13.3997 H       
 105 H105          18.7519   -12.6756   -11.8058 H       
 106 H106          17.9593   -14.9328   -11.4468 H       
 107 H107          17.2100   -17.1203   -12.2400 H       
 108 H108          17.6039   -16.7077   -13.9148 H       
 109 H109          18.9257   -17.7069   -10.6342 H       
 110 H110          20.6425   -17.3940   -10.9849 H       
 111 H111          19.5216   -16.0330   -10.7409 H       
 112 H112          19.2037   -18.4769   -14.2393 H       
 113 H113          20.4433   -18.8315   -13.0121 H       
 114 H114          18.7233   -19.1051   -12.6447 H       
 115 H115          21.3383   -16.4728   -13.0794 H       
 116 H116          20.2376   -16.3092   -14.4491 H       
 117 H117          20.8550   -14.0863   -13.6382 H       
 118 H118          20.3971   -14.5050   -11.9792 H       
 119 H119          18.9895   -13.7356   -16.6046 H       
 120 H120          15.5901   -11.9957   -14.9761 H       
 121 H121          14.9864   -13.6689   -15.0412 H       
 122 H122          13.8408   -12.3072   -15.0824 H       
 123 H123          10.7329   -13.3683   -14.4592 H       
 124 H124          12.2760   -12.6112   -14.9216 H       
 125 H125          12.1605   -14.3818   -14.7802 H       
@<TRIPOS>BOND
   1    1    2 1
   2    1   55 1
   3    1   56 1
   4    1   57 1
   5    2    3 1
   6    2   58 1
   7    2   59 1
   8    3    4 1
   9    3   60 1
  10    3   61 1
  11    4    5 1
  12    4   62 1
  13    4   63 1
  14    5    6 1
  15    5   64 1
  16    5   65 1
  17    6    7 1
  18    6   66 1
  19    6   67 1
  20    7    8 1
  21    7   68 1
  22    7   69 1
  23    8    9 1
  24    8   70 1
  25    8   71 1
  26    9   10 1
  27    9   72 1
  28    9   73 1
  29   10   11 2
  30   10   12 1
  31   12   13 1
  32   13   14 1
  33   13   74 1
  34   13   75 1
  35   14   15 1
  36   14   18 2
  37   15   16 2
  38   16   17 1
  39   17   18 1
  40   17   19 1
  41   18   76 1
  42   19   20 1
  43   19   77 1
  44   19   78 1
  45   20   21 2
  46   20   22 1
  47   22   23 1
  48   23   24 1
  49   23   28 1
  50   23   79 1
  51   24   25 1
  52   24   80 1
  53   24   81 1
  54   25   26 1
  55   25   82 1
  56   25   83 1
  57   26   27 1
  58   26   54 1
  59   26   34 1
  60   27   28 1
  61   27   31 1
  62   27   84 1
  63   28   29 1
  64   28   30 1
  65   29   85 1
  66   29   86 1
  67   29   87 1
  68   30   88 1
  69   30   89 1
  70   30   90 1
  71   31   32 1
  72   31   91 1
  73   31   92 1
  74   32   33 1
  75   32   93 1
  76   32   94 1
  77   33   38 1
  78   33   53 1
  79   33   34 1
  80   34   35 1
  81   34   95 1
  82   35   36 1
  83   35   96 1
  84   35   97 1
  85   36   37 2
  86   36   98 1
  87   37   38 1
  88   37   43 1
  89   38   39 1
  90   38   40 1
  91   39   99 1
  92   39  100 1
  93   39  101 1
  94   40   41 1
  95   40  102 1
  96   40  103 1
  97   41   42 1
  98   41  104 1
  99   41  105 1
 100   42   50 1
 101   42   43 1
 102   42   49 1
 103   43   44 1
 104   43  106 1
 105   44   45 1
 106   44  107 1
 107   44  108 1
 108   45   46 1
 109   45   47 1
 110   45   48 1
 111   46  109 1
 112   46  110 1
 113   46  111 1
 114   47  112 1
 115   47  113 1
 116   47  114 1
 117   48   49 1
 118   48  115 1
 119   48  116 1
 120   49  117 1
 121   49  118 1
 122   50   51 2
 123   50   52 1
 124   52  119 1
 125   53  120 1
 126   53  121 1
 127   53  122 1
 128   54  123 1
 129   54  124 1
 130   54  125 1

#	End of record

