#	Name: ASD03091508
#	Creating user name:	WinNT
#	Creation time:	15. 06. 2019 20:30

#	Modifying user name:	WinNT
#	Modification time:	15. 06. 2019 20:30

#	Program:	/corina/corina34_cracker 3.40 0067  02.08.2006

@<TRIPOS>MOLECULE
ASD03091508
  40   42    0    0    0
SMALL
NO_CHARGES


@<TRIPOS>ATOM
   1 Cl1            0.0000     0.0000     0.0000 Cl      
   2 H2             0.0000     1.3700     0.0000 H       
   3 C3            14.5454    10.3513     7.3417 C.ar    
   4 C4            14.5643     8.9512     7.3340 C.ar    
   5 C5            15.7876     8.2710     7.3187 C.ar    
   6 C6            16.9689     8.9740     7.3112 C.ar    
   7 C7            16.9548    10.3636     7.3188 C.ar    
   8 C8            15.7793    11.0456     7.3336 C.ar    
   9 S9            12.9142     8.3395     7.3464 S.3     
  10 C10           12.2581     9.9670     7.3614 C.2     
  11 C11           13.2417    10.8725     7.3626 C.2     
  12 C12           10.8241    10.2903     7.3765 C.2     
  13 O13           10.4625    11.4517     7.3857 O.2     
  14 N14            9.9100     9.2999     7.3799 N.am    
  15 N15            6.9401     8.8958     5.6359 N.3     
  16 C16            7.9946     9.8648     5.9632 C.3     
  17 C17            8.4810     9.6220     7.3949 C.3     
  18 C18            7.6956     8.4475     7.9919 C.3     
  19 C19            7.9236     7.2101     7.1146 C.3     
  20 C20            7.4522     7.5195     5.6909 C.3     
  21 C21            5.7786     9.0605     6.5207 C.3     
  22 C22            6.2018     8.7955     7.9683 C.3     
  23 Br23          15.8152     6.3802     7.3089 Br      
  24 H24           17.9104     8.4450     7.2998 H       
  25 H25           17.8879    10.9074     7.3132 H       
  26 H26           15.7864    12.1256     7.3394 H       
  27 H27           13.0464    11.9347     7.3713 H       
  28 H28           10.1984     8.3737     7.3725 H       
  29 H29            8.8276     9.7435     5.2707 H       
  30 H30            7.5972    10.8764     5.8808 H       
  31 H31            8.3125    10.5165     7.9945 H       
  32 H32            8.0306     8.2517     9.0105 H       
  33 H33            8.9849     6.9619     7.1020 H       
  34 H34            7.3549     6.3700     7.5131 H       
  35 H35            6.6599     6.8252     5.4112 H       
  36 H36            8.2887     7.4148     5.0000 H       
  37 H37            5.3966    10.0777     6.4339 H       
  38 H38            5.0000     8.3535     6.2342 H       
  39 H39            5.6262     7.9617     8.3703 H       
  40 H40            6.0250     9.6873     8.5696 H       
@<TRIPOS>BOND
   1    1    2 1
   2    3    4 ar
   3    3    8 ar
   4    3   11 1
   5    4    5 ar
   6    4    9 1
   7    5    6 ar
   8    5   23 1
   9    6    7 ar
  10    6   24 1
  11    7    8 ar
  12    7   25 1
  13    8   26 1
  14    9   10 1
  15   10   11 2
  16   10   12 1
  17   11   27 1
  18   12   13 2
  19   12   14 am
  20   14   17 1
  21   14   28 1
  22   15   16 1
  23   15   20 1
  24   15   21 1
  25   16   17 1
  26   16   29 1
  27   16   30 1
  28   17   18 1
  29   17   31 1
  30   18   19 1
  31   18   22 1
  32   18   32 1
  33   19   20 1
  34   19   33 1
  35   19   34 1
  36   20   35 1
  37   20   36 1
  38   21   22 1
  39   21   37 1
  40   21   38 1
  41   22   39 1
  42   22   40 1

#	End of record

