#	Name: ASD03740163
#	Creating user name:	WinNT
#	Creation time:	15. 06. 2019 20:46

#	Modifying user name:	WinNT
#	Modification time:	15. 06. 2019 20:46

#	Program:	/corina/corina34_cracker 3.40 0067  02.08.2006

@<TRIPOS>MOLECULE
ASD03740163
  69   73    0    0    0
SMALL
NO_CHARGES


@<TRIPOS>ATOM
   1 C1            -1.5263     1.4983     0.8178 C.ar    
   2 C2            -1.4538     0.1007     0.7820 C.ar    
   3 C3            -2.5845    -0.6520     0.6609 C.ar    
   4 C4            -3.8306    -0.0342     0.5711 C.ar    
   5 C5            -3.9169     1.3715     0.6059 C.ar    
   6 C6            -2.7550     2.1354     0.7359 C.ar    
   7 N7            -5.1118    -0.5056     0.4458 N.pl3   
   8 N8            -5.9974     0.5757     0.4016 N.2     
   9 C9            -5.3386     1.6986     0.4925 C.2     
  10 O10           -5.8763     2.9470     0.4839 O.3     
  11 C11           -5.4926    -1.9181     0.3697 C.3     
  12 C12           -5.7457    -2.4456     1.7585 C.ar    
  13 C13           -7.0133    -2.3722     2.3052 C.ar    
  14 C14           -7.2461    -2.8558     3.5789 C.ar    
  15 C15           -6.2101    -3.4135     4.3068 C.ar    
  16 C16           -4.9417    -3.4868     3.7591 C.ar    
  17 C17           -4.7114    -3.0079     2.4832 C.ar    
  18 C18           -7.2971     3.0406     0.3635 C.3     
  19 C19           -7.7138     4.5128     0.3722 C.3     
  20 C20           -9.2351     4.6130     0.2433 C.3     
  21 Cl21          -6.5015    -4.0206     5.9068 Cl      
  22 N22           -9.6351     6.0264     0.2517 N.3     
  23 C23          -11.0508     6.1772    -0.1319 C.3     
  24 C24           -9.4441     6.6232     1.5908 C.3     
  25 C25          -10.5910     7.6550     1.7313 C.3     
  26 C26          -11.7589     6.9245     1.0176 C.3     
  27 C27          -11.6868     4.7993    -0.3267 C.3     
  28 C28           -0.2848     2.3001     0.9501 C.ar    
  29 C29           -0.3432     3.6904     0.9869 C.ar    
  30 N30            0.7567     4.4067     1.1047 N.ar    
  31 C31            1.9505     3.8413     1.1921 C.ar    
  32 C32            2.0888     2.4572     1.1624 C.ar    
  33 C33            0.9604     1.6691     1.0453 C.ar    
  34 N34            3.0838     4.6430     1.3149 N.am    
  35 C35            2.9727     5.9838     1.2347 C.2     
  36 O36            1.8775     6.4972     1.1461 O.2     
  37 C37            4.2092     6.8450     1.2552 C.3     
  38 H38           -0.4924    -0.3865     0.8506 H       
  39 H39           -2.5142    -1.7293     0.6342 H       
  40 H40           -2.8124     3.2135     0.7638 H       
  41 H41           -6.3987    -2.0185    -0.2278 H       
  42 H42           -4.6868    -2.4873    -0.0938 H       
  43 H43           -7.8219    -1.9364     1.7370 H       
  44 H44           -8.2363    -2.7980     4.0060 H       
  45 H45           -4.1326    -3.9221     4.3269 H       
  46 H46           -3.7213    -3.0651     2.0556 H       
  47 H47           -7.6137     2.5789    -0.5718 H       
  48 H48           -7.7675     2.5249     1.2007 H       
  49 H49           -7.3973     4.9744     1.3075 H       
  50 H50           -7.2434     5.0285    -0.4650 H       
  51 H51           -9.5516     4.1513    -0.6920 H       
  52 H52           -9.7054     4.0973     1.0805 H       
  53 H53          -11.1258     6.7537    -1.0539 H       
  54 H54           -9.5257     5.8577     2.3625 H       
  55 H55           -8.4764     7.1212     1.6498 H       
  56 H56          -10.8266     7.8364     2.7799 H       
  57 H57          -10.3432     8.5860     1.2216 H       
  58 H58          -12.4795     7.6418     0.6248 H       
  59 H59          -12.2438     6.2205     1.6939 H       
  60 H60          -11.5122     4.1899     0.5599 H       
  61 H61          -12.7594     4.9132    -0.4839 H       
  62 H62          -11.2420     4.3133    -1.1951 H       
  63 H63           -1.2997     4.1872     0.9179 H       
  64 H64            3.0665     2.0041     1.2342 H       
  65 H65            1.0381     0.5922     1.0201 H       
  66 H66            3.9526     4.2361     1.4581 H       
  67 H67            4.5637     6.9960     0.2355 H       
  68 H68            3.9728     7.8096     1.7043 H       
  69 H69            4.9855     6.3522     1.8405 H       
@<TRIPOS>BOND
   1    1    2 ar
   2    1   28 1
   3    1    6 ar
   4    2    3 ar
   5    2   38 1
   6    3    4 ar
   7    3   39 1
   8    4    5 ar
   9    4    7 1
  10    5    6 ar
  11    5    9 1
  12    6   40 1
  13    7    8 1
  14    7   11 1
  15    8    9 2
  16    9   10 1
  17   10   18 1
  18   11   12 1
  19   11   41 1
  20   11   42 1
  21   12   13 ar
  22   12   17 ar
  23   13   14 ar
  24   13   43 1
  25   14   15 ar
  26   14   44 1
  27   15   16 ar
  28   15   21 1
  29   16   17 ar
  30   16   45 1
  31   17   46 1
  32   18   19 1
  33   18   47 1
  34   18   48 1
  35   19   20 1
  36   19   49 1
  37   19   50 1
  38   20   22 1
  39   20   51 1
  40   20   52 1
  41   22   23 1
  42   22   24 1
  43   23   27 1
  44   23   26 1
  45   23   53 1
  46   24   25 1
  47   24   54 1
  48   24   55 1
  49   25   26 1
  50   25   56 1
  51   25   57 1
  52   26   58 1
  53   26   59 1
  54   27   60 1
  55   27   61 1
  56   27   62 1
  57   28   29 ar
  58   28   33 ar
  59   29   30 ar
  60   29   63 1
  61   30   31 ar
  62   31   32 ar
  63   31   34 1
  64   32   33 ar
  65   32   64 1
  66   33   65 1
  67   34   35 am
  68   34   66 1
  69   35   36 2
  70   35   37 1
  71   37   67 1
  72   37   68 1
  73   37   69 1

#	End of record

