#	Name: ASD04230074
#	Creating user name:	WinNT
#	Creation time:	15. 06. 2019 20:48

#	Modifying user name:	WinNT
#	Modification time:	15. 06. 2019 20:48

#	Program:	/corina/corina34_cracker 3.40 0067  02.08.2006

@<TRIPOS>MOLECULE
ASD04230074
  52   55    0    0    0
SMALL
NO_CHARGES


@<TRIPOS>ATOM
   1 C1             1.5361     4.6855     1.7216 C.ar    
   2 C2             2.5442     5.3833     2.3710 C.ar    
   3 C3             3.8008     4.8582     2.4692 C.ar    
   4 C4             4.0827     3.6074     1.9009 C.ar    
   5 C5             3.0565     2.8814     1.2697 C.ar    
   6 C6             1.7832     3.4390     1.1739 C.ar    
   7 C7             5.3936     3.0672     1.9622 C.2     
   8 C8             5.6630     1.9280     1.2153 C.2     
   9 C9             4.5672     1.3875     0.3902 C.2     
  10 O10            3.2980     1.6420     0.7794 O.3     
  11 C11            6.9880     1.2867     1.2457 C.2     
  12 N12            7.2189     0.1816     0.5095 N.am    
  13 O13            7.8743     1.7542     1.9353 O.2     
  14 C14            8.5060    -0.3625     0.4496 C.ar    
  15 C15            8.6754    -1.7391     0.3669 C.ar    
  16 C16            9.9458    -2.2804     0.3081 C.ar    
  17 C17           11.0533    -1.4567     0.3311 C.ar    
  18 C18           10.8928    -0.0743     0.4135 C.ar    
  19 C19            9.6135     0.4723     0.4670 C.ar    
  20 C20           12.0821     0.8124     0.4383 C.ar    
  21 O21            4.7980     0.7336    -0.6096 O.2     
  22 O22            0.7868     2.7605     0.5449 O.3     
  23 C23           11.9212     2.1941     0.5207 C.ar    
  24 C24           13.0287     3.0159     0.5441 C.ar    
  25 C25           14.3027     2.4678     0.4857 C.ar    
  26 C26           14.4662     1.0914     0.4032 C.ar    
  27 C27           13.3628     0.2645     0.3852 C.ar    
  28 C28           15.8509     0.5002     0.3395 C.3     
  29 O29           15.3919     3.2797     0.5090 O.3     
  30 C30           15.1512     4.6857     0.5944 C.3     
  31 C31           16.4869     5.4318     0.6086 C.3     
  32 H32            0.5488     5.1169     1.6467 H       
  33 H33            2.3333     6.3506     2.8023 H       
  34 H34            4.5768     5.4056     2.9836 H       
  35 H35            6.1580     3.5279     2.5704 H       
  36 H36            6.4924    -0.2364     0.0212 H       
  37 H37            7.8122    -2.3879     0.3490 H       
  38 H38           10.0724    -3.3511     0.2442 H       
  39 H39           12.0444    -1.8834     0.2856 H       
  40 H40            9.4841     1.5426     0.5306 H       
  41 H41            0.2745     2.1840     1.1281 H       
  42 H42           10.9302     2.6212     0.5657 H       
  43 H43           12.9046     4.0868     0.6075 H       
  44 H44           13.4906    -0.8060     0.3213 H       
  45 H45           16.2068     0.2988     1.3499 H       
  46 H46           15.8232    -0.4299    -0.2281 H       
  47 H47           16.5244     1.2042    -0.1493 H       
  48 H48           14.5648     5.0069    -0.2665 H       
  49 H49           14.6025     4.9054     1.5102 H       
  50 H50           17.0733     5.1106     1.4694 H       
  51 H51           17.0356     5.2121    -0.3072 H       
  52 H52           16.3033     6.5043     0.6738 H       
@<TRIPOS>BOND
   1    1    2 ar
   2    1    6 ar
   3    1   32 1
   4    2    3 ar
   5    2   33 1
   6    3    4 ar
   7    3   34 1
   8    4    5 ar
   9    4    7 1
  10    5    6 ar
  11    5   10 1
  12    6   22 1
  13    7    8 2
  14    7   35 1
  15    8    9 1
  16    8   11 1
  17    9   10 1
  18    9   21 2
  19   11   12 am
  20   11   13 2
  21   12   14 1
  22   12   36 1
  23   14   15 ar
  24   14   19 ar
  25   15   16 ar
  26   15   37 1
  27   16   17 ar
  28   16   38 1
  29   17   18 ar
  30   17   39 1
  31   18   19 ar
  32   18   20 1
  33   19   40 1
  34   20   23 ar
  35   20   27 ar
  36   22   41 1
  37   23   24 ar
  38   23   42 1
  39   24   25 ar
  40   24   43 1
  41   25   26 ar
  42   25   29 1
  43   26   27 ar
  44   26   28 1
  45   27   44 1
  46   28   45 1
  47   28   46 1
  48   28   47 1
  49   29   30 1
  50   30   31 1
  51   30   48 1
  52   30   49 1
  53   31   50 1
  54   31   51 1
  55   31   52 1

#	End of record

