#	Name: ASD05740257
#	Creating user name:	WinNT
#	Creation time:	15. 06. 2019 21:03

#	Modifying user name:	WinNT
#	Modification time:	15. 06. 2019 21:03

#	Program:	/corina/corina34_cracker 3.40 0067  02.08.2006

@<TRIPOS>MOLECULE
ASD05740257
  58   61    0    0    0
SMALL
NO_CHARGES


@<TRIPOS>ATOM
   1 C1            -0.0174     1.3909    -0.0579 C.ar    
   2 C2             0.0012    -0.0016    -0.0582 C.ar    
   3 N3             1.1110     2.0858    -0.0596 N.ar    
   4 C4             2.2886     1.4956    -0.0616 C.ar    
   5 C5             2.3872     0.1061    -0.0624 C.ar    
   6 C6             1.2146    -0.6594    -0.0602 C.ar    
   7 C7             3.7144    -0.5529    -0.0656 C.ar    
   8 C8             4.8843     0.2063     0.0371 C.ar    
   9 N9             3.8114    -1.8772    -0.1608 N.ar    
  10 C10            4.9963    -2.4677    -0.1634 C.ar    
  11 N11            6.1209    -1.7726    -0.0719 N.ar    
  12 C12            6.0999    -0.4526     0.0303 C.ar    
  13 N13            5.0624    -3.8475    -0.2637 N.pl3   
  14 N14           -1.2333     2.0595    -0.0617 N.pl3   
  15 C15            6.3051    -4.4821    -0.3869 C.ar    
  16 C16            6.5117    -5.7236     0.1999 C.ar    
  17 C17            7.3283    -3.8722    -1.1005 C.ar    
  18 C18            8.5546    -4.4988    -1.2218 C.ar    
  19 C19            8.7623    -5.7393    -0.6291 C.ar    
  20 C20            7.7369    -6.3500     0.0795 C.ar    
  21 N21           10.0048    -6.3755    -0.7518 N.3     
  22 C22           11.2506    -8.3031    -1.6037 C.3     
  23 N23           11.8981    -8.4515    -0.2929 N.3     
  24 C24           12.0369    -7.1490     0.3732 C.3     
  25 C25           10.6523    -6.5239     0.5590 C.3     
  26 C26            9.8660    -7.6781    -1.4179 C.3     
  27 C27           -2.4864     1.3006    -0.0659 C.3     
  28 C28           -3.6699     2.2704    -0.0695 C.3     
  29 N29           -4.9264     1.5095    -0.0737 N.3     
  30 F30            9.5506    -3.9063    -1.9163 F       
  31 C31           13.2006    -9.1184    -0.4216 C.3     
  32 H32           -0.9231    -0.5602    -0.0564 H       
  33 H33            3.1869     2.0951    -0.0629 H       
  34 H34            1.2586    -1.7386    -0.0604 H       
  35 H35            4.8394     1.2823     0.1195 H       
  36 H36            7.0227     0.1037     0.1039 H       
  37 H37            4.2481    -4.3744    -0.2488 H       
  38 H38           -1.2535     3.0292    -0.0615 H       
  39 H39            5.7142    -6.1994     0.7511 H       
  40 H40            7.1660    -2.9088    -1.5609 H       
  41 H41            7.8982    -7.3133     0.5402 H       
  42 H42           11.8584    -7.6585    -2.2387 H       
  43 H43           11.1478    -9.2823    -2.0715 H       
  44 H44           12.5073    -7.2867     1.3468 H       
  45 H45           12.6536    -6.4912    -0.2393 H       
  46 H46           10.7551    -5.5447     1.0267 H       
  47 H47           10.0445    -7.1685     1.1939 H       
  48 H48            9.2492    -8.3358    -0.8055 H       
  49 H49            9.3955    -7.5404    -2.3915 H       
  50 H50           -2.5282     0.6731    -0.9562 H       
  51 H51           -2.5340     0.6727     0.8238 H       
  52 H52           -3.6281     2.8979     0.8208 H       
  53 H53           -3.6223     2.8983    -0.9592 H       
  54 H54           -4.9658     0.8720     0.7074 H       
  55 H55           -5.7237     2.1280    -0.0762 H       
  56 H56           13.8497    -8.5266    -1.0670 H       
  57 H57           13.6581    -9.2154     0.5630 H       
  58 H58           13.0607   -10.1081    -0.8563 H       
@<TRIPOS>BOND
   1    1    2 ar
   2    1    3 ar
   3    1   14 1
   4    2    6 ar
   5    2   32 1
   6    3    4 ar
   7    4    5 ar
   8    4   33 1
   9    5    6 ar
  10    5    7 1
  11    6   34 1
  12    7    8 ar
  13    7    9 ar
  14    8   12 ar
  15    8   35 1
  16    9   10 ar
  17   10   11 ar
  18   10   13 1
  19   11   12 ar
  20   12   36 1
  21   13   15 1
  22   13   37 1
  23   14   27 1
  24   14   38 1
  25   15   16 ar
  26   15   17 ar
  27   16   20 ar
  28   16   39 1
  29   17   18 ar
  30   17   40 1
  31   18   19 ar
  32   18   30 1
  33   19   20 ar
  34   19   21 1
  35   20   41 1
  36   21   26 1
  37   21   25 1
  38   22   23 1
  39   22   26 1
  40   22   42 1
  41   22   43 1
  42   23   24 1
  43   23   31 1
  44   24   25 1
  45   24   44 1
  46   24   45 1
  47   25   46 1
  48   25   47 1
  49   26   48 1
  50   26   49 1
  51   27   28 1
  52   27   50 1
  53   27   51 1
  54   28   29 1
  55   28   52 1
  56   28   53 1
  57   29   54 1
  58   29   55 1
  59   31   56 1
  60   31   57 1
  61   31   58 1

#	End of record

