#	Name: ASD01916062
#	Creating user name:	WinNT
#	Creation time:	15. 06. 2019 20:06

#	Modifying user name:	WinNT
#	Modification time:	15. 06. 2019 20:06

#	Program:	/corina/corina34_cracker 3.40 0067  02.08.2006

@<TRIPOS>MOLECULE
ASD01916062
  46   48    0    0    0
SMALL
NO_CHARGES


@<TRIPOS>ATOM
   1 C1            -0.0169     1.3974     0.0097 C.ar    
   2 C2             0.0021    -0.0041     0.0020 C.ar    
   3 C3            -1.2070    -0.6758     0.0095 C.ar    
   4 C4            -2.3852     0.0496     0.0241 C.ar    
   5 C5            -3.7040    -0.6796     0.0328 C.3     
   6 C6             1.2059     2.1425     0.0021 C.1     
   7 C7             2.2084     2.7534    -0.0042 C.1     
   8 C8             3.4313     3.4985    -0.0119 C.ar    
   9 C9             3.4019     4.8954    -0.0041 C.ar    
  10 C10            5.8345     3.5576    -0.0283 C.ar    
  11 C11            4.5832     5.6078    -0.0111 C.ar    
  12 N12           -2.3736     1.3688     0.0311 N.ar    
  13 C13           -1.2496     2.0547     0.0192 C.ar    
  14 C14            4.6592     2.8319    -0.0214 C.ar    
  15 C15            5.7962     4.9432    -0.0262 C.ar    
  16 C16           -4.1015    -1.0285    -1.4036 C.3     
  17 C17           -3.5744    -1.9352     0.8464 C.2     
  18 N18           -4.0949    -3.1069     0.4798 N.am    
  19 C19           -4.8103    -3.3281    -0.7706 C.3     
  20 C20           -5.2882    -1.9985    -1.3561 C.3     
  21 O21           -2.9634    -1.8807     1.8926 O.2     
  22 C22           -3.9374    -4.2433     1.3910 C.3     
  23 C23           -3.8793    -4.0161    -1.7710 C.3     
  24 C24           -6.0190    -4.2290    -0.5093 C.3     
  25 F25            7.0232     2.9158    -0.0426 F       
  26 H26            0.9365    -0.5454    -0.0098 H       
  27 H27           -1.2312    -1.7555     0.0035 H       
  28 H28           -4.4683    -0.0404     0.4749 H       
  29 H29            2.4560     5.4165     0.0070 H       
  30 H30            4.5608     6.6876    -0.0051 H       
  31 H31           -1.2809     3.1342     0.0258 H       
  32 H32            4.6893     1.7523    -0.0229 H       
  33 H33            6.7177     5.5065    -0.0312 H       
  34 H34           -4.3899    -0.1216    -1.9351 H       
  35 H35           -3.2614    -1.5011    -1.9124 H       
  36 H36           -6.0754    -1.5836    -0.7265 H       
  37 H37           -5.6696    -2.1590    -2.3645 H       
  38 H38           -3.3856    -3.9258     2.2758 H       
  39 H39           -4.9200    -4.6100     1.6877 H       
  40 H40           -3.3893    -5.0396     0.8873 H       
  41 H41           -3.5517    -4.9727    -1.3640 H       
  42 H42           -4.4116    -4.1828    -2.7075 H       
  43 H43           -3.0112    -3.3828    -1.9543 H       
  44 H44           -6.6818    -3.7480     0.2101 H       
  45 H45           -6.5562    -4.3962    -1.4429 H       
  46 H46           -5.6802    -5.1844    -0.1088 H       
@<TRIPOS>BOND
   1    1    2 ar
   2    1    6 1
   3    1   13 ar
   4    2    3 ar
   5    2   26 1
   6    3    4 ar
   7    3   27 1
   8    4   12 ar
   9    4    5 1
  10    5   16 1
  11    5   17 1
  12    5   28 1
  13    6    7 3
  14    7    8 1
  15    8    9 ar
  16    8   14 ar
  17    9   11 ar
  18    9   29 1
  19   10   15 ar
  20   10   25 1
  21   10   14 ar
  22   11   15 ar
  23   11   30 1
  24   12   13 ar
  25   13   31 1
  26   14   32 1
  27   15   33 1
  28   16   20 1
  29   16   34 1
  30   16   35 1
  31   17   18 am
  32   17   21 2
  33   18   19 1
  34   18   22 1
  35   19   20 1
  36   19   23 1
  37   19   24 1
  38   20   36 1
  39   20   37 1
  40   22   38 1
  41   22   39 1
  42   22   40 1
  43   23   41 1
  44   23   42 1
  45   23   43 1
  46   24   44 1
  47   24   45 1
  48   24   46 1

#	End of record

