#	Name: ASD01880094
#	Creating user name:	WinNT
#	Creation time:	15. 06. 2019 19:40

#	Modifying user name:	WinNT
#	Modification time:	15. 06. 2019 19:40

#	Program:	/corina/corina34_cracker 3.40 0067  02.08.2006

@<TRIPOS>MOLECULE
ASD01880094
  64   68    0    0    0
SMALL
NO_CHARGES


@<TRIPOS>ATOM
   1 C1            -0.0167     1.3776     0.0096 C.ar    
   2 C2             0.0021    -0.0041     0.0020 C.ar    
   3 C3            -1.1810    -0.7162     0.0095 C.ar    
   4 C4            -2.4037    -0.0455     0.0248 C.ar    
   5 C5            -2.4326     1.3447     0.0330 C.ar    
   6 C6            -1.2364     2.0614     0.0308 C.ar    
   7 C7            -3.6728    -0.8147     0.0318 C.ar    
   8 C8            -4.8951    -0.1467     0.0470 C.ar    
   9 C9            -6.0726    -0.8672     0.0535 C.ar    
  10 C10           -6.0402    -2.2498     0.0449 C.ar    
  11 C11           -4.8291    -2.9183     0.0298 C.ar    
  12 C12           -3.6461    -2.2079     0.0173 C.ar    
  13 C13           -4.8018    -4.4250     0.0210 C.3     
  14 O14           -4.8058    -4.8936    -1.3290 O.3     
  15 C15           -4.7831    -6.2373    -1.5146 C.ar    
  16 C16           -4.7575    -7.0894    -0.4170 C.ar    
  17 C17           -4.7343    -8.4561    -0.6017 C.ar    
  18 C18           -4.7372    -8.9839    -1.8949 C.ar    
  19 C19           -4.7638    -8.1109    -2.9963 C.ar    
  20 C20           -4.7914    -6.7609    -2.8030 C.ar    
  21 C21           -4.7041    -9.5818     0.4040 C.3     
  22 C22           -4.6882   -10.8838    -0.4088 C.3     
  23 C23           -4.7101   -10.4524    -1.8550 C.2     
  24 C24           -3.4149   -11.6785    -0.1119 C.3     
  25 C25           -3.3488   -12.0281     1.3852 C.3     
  26 C26           -3.3337   -13.5679     1.4779 C.3     
  27 C27           -2.7868   -14.0258     0.1030 C.3     
  28 C28           -3.4377   -13.0180    -0.8767 C.3     
  29 O29           -4.7056   -11.1903    -2.8177 O.2     
  30 C30           -4.8202    -5.8331    -3.9902 C.3     
  31 C31           -4.7666    -8.6688    -4.3963 C.3     
  32 Cl32           1.4752     2.2653     0.0001 Cl      
  33 C33           -1.2576     3.5379     0.0394 C.2     
  34 O34           -0.2145     4.1604     0.0375 O.2     
  35 O35           -2.4339     4.1946     0.0495 O.3     
  36 H36            0.9458    -0.5291    -0.0102 H       
  37 H37           -1.1594    -1.7960     0.0031 H       
  38 H38           -3.3777     1.8673     0.0445 H       
  39 H39           -4.9215     0.9330     0.0541 H       
  40 H40           -7.0208    -0.3503     0.0657 H       
  41 H41           -6.9637    -2.8096     0.0504 H       
  42 H42           -2.7012    -2.7308     0.0055 H       
  43 H43           -3.9006    -4.7750     0.5244 H       
  44 H44           -5.6802    -4.8074     0.5409 H       
  45 H45           -4.7553    -6.6807     0.5827 H       
  46 H46           -3.8057    -9.5122     1.0172 H       
  47 H47           -5.5925    -9.5447     1.0345 H       
  48 H48           -5.5699   -11.4825    -0.1800 H       
  49 H49           -2.5378   -11.0986    -0.3990 H       
  50 H50           -2.4392   -11.6186     1.8244 H       
  51 H51           -4.2239   -11.6316     1.9002 H       
  52 H52           -2.6721   -13.8953     2.2799 H       
  53 H53           -4.3423   -13.9506     1.6339 H       
  54 H54           -1.7001   -13.9462     0.0736 H       
  55 H55           -3.1068   -15.0435    -0.1205 H       
  56 H56           -4.4630   -13.3119    -1.1009 H       
  57 H57           -2.8519   -12.9441    -1.7930 H       
  58 H58           -5.8546    -5.6315    -4.2687 H       
  59 H59           -4.3245    -4.8973    -3.7320 H       
  60 H60           -4.3025    -6.2993    -4.8284 H       
  61 H61           -5.7947    -8.8223    -4.7241 H       
  62 H62           -4.2720    -7.9672    -5.0680 H       
  63 H63           -4.2352    -9.6203    -4.4092 H       
  64 H64           -2.3972     5.1609     0.0549 H       
@<TRIPOS>BOND
   1    1    2 ar
   2    1   32 1
   3    1    6 ar
   4    2    3 ar
   5    2   36 1
   6    3    4 ar
   7    3   37 1
   8    4    5 ar
   9    4    7 1
  10    5    6 ar
  11    5   38 1
  12    6   33 1
  13    7    8 ar
  14    7   12 ar
  15    8    9 ar
  16    8   39 1
  17    9   10 ar
  18    9   40 1
  19   10   11 ar
  20   10   41 1
  21   11   12 ar
  22   11   13 1
  23   12   42 1
  24   13   14 1
  25   13   43 1
  26   13   44 1
  27   14   15 1
  28   15   16 ar
  29   15   20 ar
  30   16   17 ar
  31   16   45 1
  32   17   18 ar
  33   17   21 1
  34   18   19 ar
  35   18   23 1
  36   19   20 ar
  37   19   31 1
  38   20   30 1
  39   21   22 1
  40   21   46 1
  41   21   47 1
  42   22   23 1
  43   22   24 1
  44   22   48 1
  45   23   29 2
  46   24   25 1
  47   24   28 1
  48   24   49 1
  49   25   26 1
  50   25   50 1
  51   25   51 1
  52   26   27 1
  53   26   52 1
  54   26   53 1
  55   27   28 1
  56   27   54 1
  57   27   55 1
  58   28   56 1
  59   28   57 1
  60   30   58 1
  61   30   59 1
  62   30   60 1
  63   31   61 1
  64   31   62 1
  65   31   63 1
  66   33   34 2
  67   33   35 1
  68   35   64 1

#	End of record

