#	Name: ASD01811503
#	Creating user name:	WinNT
#	Creation time:	15. 06. 2019 19:26

#	Modifying user name:	WinNT
#	Modification time:	15. 06. 2019 19:26

#	Program:	/corina/corina34_cracker 3.40 0067  02.08.2006

@<TRIPOS>MOLECULE
ASD01811503
  70   74    0    0    0
SMALL
NO_CHARGES


@<TRIPOS>ATOM
   1 C1            -8.0917     3.2945    -4.0317 C.1     
   2 C2            -6.9864     3.9407    -3.3904 C.ar    
   3 C3            -5.8246     3.2218    -3.1024 C.ar    
   4 C4            -4.7636     3.8506    -2.4844 C.ar    
   5 C5            -4.8491     5.1904    -2.1495 C.ar    
   6 C6            -5.9976     5.9086    -2.4315 C.ar    
   7 C7            -7.0635     5.2941    -3.0553 C.ar    
   8 N8            -8.9685     2.7818    -4.5405 N.1     
   9 N9            -2.3699     8.0861    -0.3086 N.am    
  10 C10           -1.9919     7.6950    -1.6734 C.3     
  11 C11           -3.1956     7.0281    -2.3465 C.3     
  12 C12           -3.6862     5.8704    -1.4740 C.3     
  13 C13           -4.1311     6.4086    -0.1122 C.3     
  14 C14           -2.9380     7.0685     0.5861 C.3     
  15 C15           -2.1938     9.3529     0.1164 C.2     
  16 C16           -2.6581     9.7525     1.4622 C.ar    
  17 C17           -3.5387    10.8269     1.6084 C.ar    
  18 C18           -3.9731    11.2011     2.8642 C.ar    
  19 C19           -3.5409    10.5171     3.9834 C.ar    
  20 C20           -2.6607     9.4414     3.8514 C.ar    
  21 C21           -2.2229     9.0548     2.5867 C.ar    
  22 O22           -1.6531    10.1669    -0.6065 O.2     
  23 C23           -4.0200    10.9330     5.3504 C.3     
  24 C24           -4.0152    11.5794     0.3928 C.3     
  25 N25            0.1615     7.3281     9.0792 N.am    
  26 C26            0.8018     6.9452     7.8311 C.3     
  27 C27           -0.2250     6.2430     6.9222 C.3     
  28 C28           -1.1374     7.3226     6.3696 C.2     
  29 C29           -1.9816     8.0648     7.0997 C.2     
  30 C30           -2.1570     7.9478     8.6043 C.3     
  31 C31           -0.8263     8.3816     9.2468 C.3     
  32 C32           -2.1985     8.7103     5.0514 C.2     
  33 N33           -1.2581     7.7178     5.0711 N.pl3   
  34 N34           -2.6226     8.9042     6.2835 N.2     
  35 C35            0.5124     6.6384    10.1827 C.2     
  36 O36            1.2963     5.7168    10.0981 O.2     
  37 C37           -0.0691     7.0124    11.5217 C.3     
  38 H38           -5.7568     2.1758    -3.3626 H       
  39 H39           -3.8643     3.2958    -2.2611 H       
  40 H40           -6.0578     6.9540    -2.1671 H       
  41 H41           -7.9576     5.8570    -3.2792 H       
  42 H42           -1.7005     8.5797    -2.2396 H       
  43 H43           -1.1593     6.9927    -1.6349 H       
  44 H44           -3.9962     7.7581    -2.4661 H       
  45 H45           -2.9009     6.6472    -3.3243 H       
  46 H46           -2.8775     5.1531    -1.3342 H       
  47 H47           -4.9229     7.1444    -0.2529 H       
  48 H48           -4.5022     5.5868     0.5002 H       
  49 H49           -2.1825     6.3150     0.8089 H       
  50 H50           -3.2708     7.5398     1.5109 H       
  51 H51           -4.6537    12.0327     2.9719 H       
  52 H52           -1.5455     8.2205     2.4788 H       
  53 H53           -4.8681    10.3136     5.6422 H       
  54 H54           -3.2129    10.8073     6.0721 H       
  55 H55           -4.3255    11.9790     5.3256 H       
  56 H56           -4.8727    11.0644    -0.0403 H       
  57 H57           -4.3059    12.5895     0.6816 H       
  58 H58           -3.2117    11.6287    -0.3421 H       
  59 H59            1.1822     7.8352     7.3298 H       
  60 H60            1.6274     6.2649     8.0399 H       
  61 H61            0.2873     5.7347     6.1053 H       
  62 H62           -0.8060     5.5258     7.5020 H       
  63 H63           -2.9618     8.6032     8.9370 H       
  64 H64           -2.3811     6.9156     8.8735 H       
  65 H65           -0.9804     8.5692    10.3094 H       
  66 H66           -0.4707     9.2926     8.7654 H       
  67 H67           -0.7719     7.3645     4.3098 H       
  68 H68           -0.8261     7.7849    11.3861 H       
  69 H69           -0.5246     6.1336    11.9783 H       
  70 H70            0.7226     7.3892    12.1693 H       
@<TRIPOS>BOND
   1    1    2 1
   2    1    8 3
   3    2    3 ar
   4    2    7 ar
   5    3    4 ar
   6    3   38 1
   7    4    5 ar
   8    4   39 1
   9    5    6 ar
  10    5   12 1
  11    6    7 ar
  12    6   40 1
  13    7   41 1
  14    9   10 1
  15    9   14 1
  16    9   15 am
  17   10   11 1
  18   10   42 1
  19   10   43 1
  20   11   12 1
  21   11   44 1
  22   11   45 1
  23   12   13 1
  24   12   46 1
  25   13   14 1
  26   13   47 1
  27   13   48 1
  28   14   49 1
  29   14   50 1
  30   15   16 1
  31   15   22 2
  32   16   17 ar
  33   16   21 ar
  34   17   18 ar
  35   17   24 1
  36   18   19 ar
  37   18   51 1
  38   19   20 ar
  39   19   23 1
  40   20   21 ar
  41   20   32 1
  42   21   52 1
  43   23   53 1
  44   23   54 1
  45   23   55 1
  46   24   56 1
  47   24   57 1
  48   24   58 1
  49   25   26 1
  50   25   31 1
  51   25   35 am
  52   26   27 1
  53   26   59 1
  54   26   60 1
  55   27   28 1
  56   27   61 1
  57   27   62 1
  58   28   29 2
  59   28   33 1
  60   29   30 1
  61   29   34 1
  62   30   31 1
  63   30   63 1
  64   30   64 1
  65   31   65 1
  66   31   66 1
  67   32   33 1
  68   32   34 2
  69   33   67 1
  70   35   36 2
  71   35   37 1
  72   37   68 1
  73   37   69 1
  74   37   70 1

#	End of record

