#	Name: ASD01810879
#	Creating user name:	WinNT
#	Creation time:	15. 06. 2019 19:25

#	Modifying user name:	WinNT
#	Modification time:	15. 06. 2019 19:25

#	Program:	/corina/corina34_cracker 3.40 0067  02.08.2006

@<TRIPOS>MOLECULE
ASD01810879
  66   70    0    0    0
SMALL
NO_CHARGES


@<TRIPOS>ATOM
   1 C1            -0.1364     1.4648    -0.1044 C.ar    
   2 C2            -0.0577     0.0722    -0.1547 C.ar    
   3 C3            -1.2936    -0.7397    -0.2020 C.2     
   4 N4            -2.5460    -0.3319     0.1371 N.pl3   
   5 N5            -1.3949    -1.9960    -0.5864 N.2     
   6 C6            -2.9883     0.9731     0.6261 C.3     
   7 C7             1.1890    -0.5512    -0.1607 C.ar    
   8 C8             2.3431     0.2162    -0.1166 C.ar    
   9 C9             2.2543     1.6021    -0.0667 C.ar    
  10 C10            1.0177     2.2201    -0.0607 C.ar    
  11 N11            3.5964    -0.4047    -0.1220 N.am    
  12 C12           -4.3749     0.8157     1.2613 C.3     
  13 C13           -5.3008     0.0705     0.2957 C.3     
  14 C14           -4.8488    -1.3918     0.1841 C.3     
  15 C15           -3.3615    -1.4050    -0.0662 C.2     
  16 C16           -6.7147     0.1216     0.8146 C.ar    
  17 C17           -7.7076     0.7098     0.0512 C.ar    
  18 C18           -9.0040     0.7596     0.5199 C.ar    
  19 C19           -9.3133     0.2146     1.7677 C.ar    
  20 C20           -8.3064    -0.3775     2.5328 C.ar    
  21 C21           -7.0152    -0.4250     2.0496 C.ar    
  22 C22          -10.6568     0.2631     2.2608 C.1     
  23 N23          -11.7227     0.3016     2.6519 N.1     
  24 C24            3.5100     2.4339    -0.0188 C.3     
  25 C25            3.7612    -1.5955     0.4874 C.2     
  26 C26            5.0459    -2.3113     0.3724 C.ar    
  27 O27            2.8509    -2.0797     1.1320 O.2     
  28 C28            6.0974    -1.7647    -0.3649 C.ar    
  29 N29            7.2446    -2.4027    -0.4677 N.ar    
  30 C30            7.4432    -3.5755     0.1184 C.ar    
  31 C31            6.4369    -4.1804     0.8699 C.ar    
  32 C32            5.2304    -3.5492     1.0078 C.ar    
  33 N33            8.6670    -4.2085    -0.0184 N.pl3   
  34 C34            8.8974    -5.5044     0.6247 C.3     
  35 C35            9.9905    -6.2620    -0.1317 C.3     
  36 C36            9.3387    -5.2838     2.0730 C.3     
  37 N37           -2.6217    -2.3810    -0.5003 N.2     
  38 H38           -1.1005     1.9515    -0.1041 H       
  39 H39           -2.2842     1.3420     1.3719 H       
  40 H40           -3.0447     1.6753    -0.2057 H       
  41 H41            1.2558    -1.6285    -0.1992 H       
  42 H42            0.9547     3.2976    -0.0221 H       
  43 H43            4.3470     0.0218    -0.5643 H       
  44 H44           -4.2871     0.2502     2.1890 H       
  45 H45           -4.7902     1.8005     1.4750 H       
  46 H46           -5.2563     0.5409    -0.6866 H       
  47 H47           -5.0704    -1.9174     1.1130 H       
  48 H48           -5.3659    -1.8746    -0.6451 H       
  49 H49           -7.4669     1.1313    -0.9136 H       
  50 H50           -9.7780     1.2193    -0.0768 H       
  51 H51           -8.5387    -0.8006     3.4989 H       
  52 H52           -6.2354    -0.8827     2.6403 H       
  53 H53            3.8267     2.6724    -1.0341 H       
  54 H54            3.3138     3.3569     0.5268 H       
  55 H55            4.2976     1.8741     0.4855 H       
  56 H56            5.9689    -0.8110    -0.8553 H       
  57 H57            6.6092    -5.1361     1.3424 H       
  58 H58            4.4354    -3.9975     1.5853 H       
  59 H59            9.3719    -3.7938    -0.5401 H       
  60 H60            7.9757    -6.0861     0.6104 H       
  61 H61           10.9122    -5.6803    -0.1173 H       
  62 H62           10.1619    -7.2263     0.3468 H       
  63 H63            9.6761    -6.4192    -1.1635 H       
  64 H64           10.2604    -4.7021     2.0874 H       
  65 H65            8.5600    -4.7440     2.6119 H       
  66 H66            9.5101    -6.2480     2.5515 H       
@<TRIPOS>BOND
   1    1    2 ar
   2    1   10 ar
   3    1   38 1
   4    2    3 1
   5    2    7 ar
   6    3    4 1
   7    3    5 2
   8    4    6 1
   9    4   15 1
  10    5   37 1
  11    6   12 1
  12    6   39 1
  13    6   40 1
  14    7    8 ar
  15    7   41 1
  16    8    9 ar
  17    8   11 1
  18    9   10 ar
  19    9   24 1
  20   10   42 1
  21   11   25 am
  22   11   43 1
  23   12   13 1
  24   12   44 1
  25   12   45 1
  26   13   14 1
  27   13   16 1
  28   13   46 1
  29   14   15 1
  30   14   47 1
  31   14   48 1
  32   15   37 2
  33   16   17 ar
  34   16   21 ar
  35   17   18 ar
  36   17   49 1
  37   18   19 ar
  38   18   50 1
  39   19   20 ar
  40   19   22 1
  41   20   21 ar
  42   20   51 1
  43   21   52 1
  44   22   23 3
  45   24   53 1
  46   24   54 1
  47   24   55 1
  48   25   26 1
  49   25   27 2
  50   26   28 ar
  51   26   32 ar
  52   28   29 ar
  53   28   56 1
  54   29   30 ar
  55   30   31 ar
  56   30   33 1
  57   31   32 ar
  58   31   57 1
  59   32   58 1
  60   33   34 1
  61   33   59 1
  62   34   35 1
  63   34   36 1
  64   34   60 1
  65   35   61 1
  66   35   62 1
  67   35   63 1
  68   36   64 1
  69   36   65 1
  70   36   66 1

#	End of record

