#	Name: ASD01411489
#	Creating user name:	WinNT
#	Creation time:	15. 06. 2019 19:19

#	Modifying user name:	WinNT
#	Modification time:	15. 06. 2019 19:19

#	Program:	/corina/corina34_cracker 3.40 0067  02.08.2006

@<TRIPOS>MOLECULE
ASD01411489
  76   78    0    0    0
SMALL
NO_CHARGES


@<TRIPOS>ATOM
   1 C1            -0.5884     1.7508    -1.7672 C.ar    
   2 C2            -0.2405     0.4415    -1.4570 C.ar    
   3 C3            -1.1211    -0.3706    -0.7714 C.ar    
   4 C4            -2.3625     0.1161    -0.3864 C.ar    
   5 C5            -2.7199     1.4372    -0.6965 C.ar    
   6 C6            -1.8194     2.2529    -1.3858 C.ar    
   7 O7             0.2864     2.5424    -2.4429 O.3     
   8 C8             0.5164     2.2654    -3.7532 C.ar    
   9 N9            -3.2517    -0.7048     0.3057 N.am    
  10 C10           -3.0465    -0.9684     1.7321 C.3     
  11 C11           -1.7607    -1.7755     1.9219 C.3     
  12 C12           -2.9313     0.3589     2.4845 C.3     
  13 C13           -0.2133     1.2729    -4.3924 C.ar    
  14 C14           -4.2999    -1.2561    -0.3375 C.2     
  15 O15           -4.5157    -0.9751    -1.4974 O.2     
  16 C16           -5.2040    -2.2216     0.3846 C.3     
  17 C17            1.4771     2.9782    -4.4559 C.ar    
  18 C18            1.7087     2.6949    -5.7881 C.ar    
  19 C19            0.9840     1.7021    -6.4211 C.ar    
  20 C20            0.0221     0.9937    -5.7243 C.ar    
  21 C21            1.2384     1.3956    -7.8745 C.3     
  22 C22           -5.9006    -3.1268    -0.6335 C.3     
  23 C23           -6.8185    -4.1070     0.0997 C.3     
  24 C24           -7.8696    -3.3266     0.8914 C.3     
  25 C25           -7.1731    -2.4214     1.9095 C.3     
  26 C26           -6.2552    -1.4412     1.1763 C.3     
  27 C27           -8.7875    -4.3068     1.6245 C.3     
  28 O28            2.2508     0.3926    -7.9797 O.3     
  29 C29           -4.0362     1.9630    -0.2924 C.2     
  30 O30           -4.8626     1.2197     0.1987 O.2     
  31 O31           -4.3231     3.2679    -0.4674 O.3     
  32 C32           -5.6750     3.6937    -0.1520 C.3     
  33 C33            2.2671     4.0608    -3.7667 C.3     
  34 F34            3.1668     4.6308    -4.6738 F       
  35 F35            1.3938     5.0464    -3.2944 F       
  36 F36            2.9739     3.5102    -2.6923 F       
  37 O37           -4.1923     1.0306     2.4613 O.3     
  38 C38           -4.1936     2.2880     3.1403 C.3     
  39 O39           -1.8950    -3.0439     1.2775 O.3     
  40 C40           -0.7087    -3.8400     1.3082 C.3     
  41 H41            0.7240     0.0572    -1.7544 H       
  42 H42           -0.8437    -1.3871    -0.5343 H       
  43 H43           -2.0871     3.2709    -1.6277 H       
  44 H44           -3.8921    -1.5349     2.1222 H       
  45 H45           -0.9230    -1.2326     1.4843 H       
  46 H46           -1.5799    -1.9260     2.9862 H       
  47 H47           -2.6408     0.1669     3.5174 H       
  48 H48           -2.1777     0.9839     2.0053 H       
  49 H49           -0.9644     0.7191    -3.8486 H       
  50 H50           -4.6129    -2.8311     1.0681 H       
  51 H51            2.4562     3.2497    -6.3357 H       
  52 H52           -0.5426     0.2186    -6.2211 H       
  53 H53            0.3194     1.0340    -8.3358 H       
  54 H54            1.5691     2.3006    -8.3842 H       
  55 H55           -6.4917    -2.5173    -1.3170 H       
  56 H56           -5.1517    -3.6828    -1.1975 H       
  57 H57           -7.3147    -4.7519    -0.6256 H       
  58 H58           -6.2273    -4.7165     0.7832 H       
  59 H59           -8.4608    -2.7171     0.2079 H       
  60 H60           -7.9220    -1.8654     2.4735 H       
  61 H61           -6.5819    -3.0309     2.5930 H       
  62 H62           -5.7590    -0.7963     1.9016 H       
  63 H63           -6.8464    -0.8317     0.4928 H       
  64 H64           -8.1964    -4.9163     2.3080 H       
  65 H65           -9.5364    -3.7508     2.1886 H       
  66 H66           -9.2838    -4.9517     0.8993 H       
  67 H67            2.4663     0.1452    -8.8893 H       
  68 H68           -6.3756     3.2155    -0.8365 H       
  69 H69           -5.9160     3.4089     0.8722 H       
  70 H70           -5.7483     4.7764    -0.2548 H       
  71 H71           -3.4662     2.9531     2.6747 H       
  72 H72           -5.1862     2.7340     3.0773 H       
  73 H73           -3.9293     2.1361     4.1868 H       
  74 H74           -0.4770    -4.1071     2.3393 H       
  75 H75           -0.8646    -4.7470     0.7241 H       
  76 H76            0.1203    -3.2731     0.8847 H       
@<TRIPOS>BOND
   1    1    2 ar
   2    1    7 1
   3    1    6 ar
   4    2    3 ar
   5    2   41 1
   6    3    4 ar
   7    3   42 1
   8    4    5 ar
   9    4    9 1
  10    5    6 ar
  11    5   29 1
  12    6   43 1
  13    7    8 1
  14    8   17 ar
  15    8   13 ar
  16    9   10 1
  17    9   14 am
  18   10   11 1
  19   10   12 1
  20   10   44 1
  21   11   39 1
  22   11   45 1
  23   11   46 1
  24   12   37 1
  25   12   47 1
  26   12   48 1
  27   13   20 ar
  28   13   49 1
  29   14   15 2
  30   14   16 1
  31   16   22 1
  32   16   26 1
  33   16   50 1
  34   17   18 ar
  35   17   33 1
  36   18   19 ar
  37   18   51 1
  38   19   20 ar
  39   19   21 1
  40   20   52 1
  41   21   28 1
  42   21   53 1
  43   21   54 1
  44   22   23 1
  45   22   55 1
  46   22   56 1
  47   23   24 1
  48   23   57 1
  49   23   58 1
  50   24   25 1
  51   24   27 1
  52   24   59 1
  53   25   26 1
  54   25   60 1
  55   25   61 1
  56   26   62 1
  57   26   63 1
  58   27   64 1
  59   27   65 1
  60   27   66 1
  61   28   67 1
  62   29   30 2
  63   29   31 1
  64   31   32 1
  65   32   68 1
  66   32   69 1
  67   32   70 1
  68   33   34 1
  69   33   35 1
  70   33   36 1
  71   37   38 1
  72   38   71 1
  73   38   72 1
  74   38   73 1
  75   39   40 1
  76   40   74 1
  77   40   75 1
  78   40   76 1

#	End of record

