#	Name: ASD03091549
#	Creating user name:	WinNT
#	Creation time:	15. 06. 2019 20:30

#	Modifying user name:	WinNT
#	Modification time:	15. 06. 2019 20:30

#	Program:	/corina/corina34_cracker 3.40 0067  02.08.2006

@<TRIPOS>MOLECULE
ASD03091549
  46   48    0    0    0
SMALL
NO_CHARGES


@<TRIPOS>ATOM
   1 C1            -0.0170     1.4015     0.0097 C.ar    
   2 C2             0.0021    -0.0041     0.0020 C.ar    
   3 C3             1.2295    -0.6665    -0.0137 C.ar    
   4 C4             2.4031     0.0636    -0.0214 C.ar    
   5 C5             2.3740     1.4514    -0.0132 C.ar    
   6 C6             1.1827     2.1196     0.0021 C.ar    
   7 O7            -1.2767    -0.4296     0.0124 O.3     
   8 C8            -2.1302     0.6153     0.0264 C.2     
   9 C9            -1.4298     1.7789     0.0311 C.2     
  10 C10           -3.5963     0.5101     0.0403 C.2     
  11 O11           -4.2783     1.5174     0.0521 O.2     
  12 N12           -4.1849    -0.7023     0.0401 N.am    
  13 N13           -6.8755    -1.9604     1.8300 N.3     
  14 C14           -6.1528    -0.7256     1.4968 C.3     
  15 C15           -5.6461    -0.8071     0.0540 C.3     
  16 C16           -6.0705    -2.1543    -0.5442 C.3     
  17 C17           -7.6002    -2.2533    -0.4904 C.3     
  18 C18           -8.0527    -2.1323     0.9675 C.3     
  19 C19           -5.9888    -3.1294     1.7487 C.3     
  20 C20           -5.4769    -3.2791     0.3133 C.3     
  21 N21            3.6432     2.2129    -0.0206 N.pl3   
  22 O22            4.7081     1.6217    -0.0339 O.2     
  23 O23            3.6229     3.4307    -0.0135 O.2     
  24 O24            1.2714    -2.0255    -0.0209 O.3     
  25 C25            2.5639    -2.6347    -0.0370 C.3     
  26 H26            3.3526    -0.4509    -0.0335 H       
  27 H27            1.1675     3.1994     0.0079 H       
  28 H28           -1.8343     2.7802     0.0420 H       
  29 H29           -3.6411    -1.5055     0.0308 H       
  30 H30           -6.8239     0.1273     1.5989 H       
  31 H31           -5.3065    -0.6058     2.1732 H       
  32 H32           -6.0780     0.0047    -0.5313 H       
  33 H33           -5.7259    -2.2317    -1.5754 H       
  34 H34           -8.0393    -1.4465    -1.0772 H       
  35 H35           -7.9183    -3.2150    -0.8929 H       
  36 H36           -8.5878    -3.0362     1.2584 H       
  37 H37           -8.7105    -1.2697     1.0738 H       
  38 H38           -5.1440    -2.9927     2.4237 H       
  39 H39           -6.5409    -4.0251     2.0332 H       
  40 H40           -5.7865    -4.2449    -0.0860 H       
  41 H41           -4.3891    -3.2098     0.3044 H       
  42 H42            2.4544    -3.7191    -0.0414 H       
  43 H43            3.1027    -2.3203    -0.9309 H       
  44 H44            3.1206    -2.3292     0.8490 H       
  45 Cl45           9.7081     8.4307     7.4237 Cl      
  46 H46            9.7081     9.8007     7.4237 H       
@<TRIPOS>BOND
   1    1    2 ar
   2    1    6 ar
   3    1    9 1
   4    2    3 ar
   5    2    7 1
   6    3    4 ar
   7    3   24 1
   8    4    5 ar
   9    4   26 1
  10    5    6 ar
  11    5   21 1
  12    6   27 1
  13    7    8 1
  14    8    9 2
  15    8   10 1
  16    9   28 1
  17   10   11 2
  18   10   12 am
  19   12   15 1
  20   12   29 1
  21   13   14 1
  22   13   18 1
  23   13   19 1
  24   14   15 1
  25   14   30 1
  26   14   31 1
  27   15   16 1
  28   15   32 1
  29   16   17 1
  30   16   20 1
  31   16   33 1
  32   17   18 1
  33   17   34 1
  34   17   35 1
  35   18   36 1
  36   18   37 1
  37   19   20 1
  38   19   38 1
  39   19   39 1
  40   20   40 1
  41   20   41 1
  42   21   22 2
  43   21   23 2
  44   24   25 1
  45   25   42 1
  46   25   43 1
  47   25   44 1
  48   45   46 1

#	End of record

