#	Name: ASD02508276
#	Creating user name:	WinNT
#	Creation time:	15. 06. 2019 20:24

#	Modifying user name:	WinNT
#	Modification time:	15. 06. 2019 20:24

#	Program:	/corina/corina34_cracker 3.40 0067  02.08.2006

@<TRIPOS>MOLECULE
ASD02508276
  39   42    0    0    0
SMALL
NO_CHARGES


@<TRIPOS>ATOM
   1 C1            -0.0710     1.3039     0.3833 C.ar    
   2 C2            -0.0631    -0.0707     0.1480 C.ar    
   3 C3            -1.2589    -0.7657     0.0559 C.ar    
   4 C4            -2.4570    -0.0931     0.1978 C.ar    
   5 C5            -2.4659     1.2712     0.4309 C.ar    
   6 C6            -1.2782     1.9693     0.5293 C.ar    
   7 S7            -3.9783    -0.9744     0.0812 S.o2    
   8 N8            -4.7833    -0.3897    -1.2426 N.am    
   9 C9            -4.2719    -0.6106    -2.5262 C.ar    
  10 O10            1.2208     1.7128     0.4242 O.3     
  11 C11            2.0243     0.6560     0.2254 C.2     
  12 N12            1.2753    -0.4511     0.0529 N.am    
  13 O13           -3.6397    -2.3217    -0.2177 O.2     
  14 O14           -4.7471    -0.5997     1.2161 O.2     
  15 O15            3.2395     0.6920     0.2043 O.2     
  16 C16            1.7756    -1.8063    -0.1906 C.3     
  17 C17           -5.1136    -1.0362    -3.5453 C.ar    
  18 C18           -3.7775     1.9974     0.5836 C.3     
  19 C19           -2.9241    -0.3988    -2.7825 C.ar    
  20 C20           -2.4176    -0.6168    -4.0502 C.ar    
  21 C21           -3.2527    -1.0468    -5.0678 C.ar    
  22 C22           -4.6069    -1.2546    -4.8152 C.ar    
  23 O23           -3.0059    -1.3303    -6.3814 O.3     
  24 C24           -4.1332    -2.1085    -6.8248 C.3     
  25 O25           -5.2068    -1.6722    -5.9682 O.3     
  26 H26           -1.2538    -1.8301    -0.1266 H       
  27 H27           -1.2902     3.0338     0.7117 H       
  28 H28           -5.6092     0.1058    -1.1282 H       
  29 H29            2.8653    -1.7927    -0.2135 H       
  30 H30            1.4372    -2.4673     0.6073 H       
  31 H31            1.3966    -2.1672    -1.1467 H       
  32 H32           -6.1631    -1.1972    -3.3473 H       
  33 H33           -4.1201     1.9158     1.6151 H       
  34 H34           -3.6429     3.0483     0.3275 H       
  35 H35           -4.5182     1.5533    -0.0815 H       
  36 H36           -2.2707    -0.0631    -1.9909 H       
  37 H37           -1.3688    -0.4511    -4.2474 H       
  38 H38           -4.3641    -1.8887    -7.8672 H       
  39 H39           -3.9404    -3.1729    -6.6904 H       
@<TRIPOS>BOND
   1    1    2 ar
   2    1   10 1
   3    1    6 ar
   4    2    3 ar
   5    2   12 1
   6    3    4 ar
   7    3   26 1
   8    4    5 ar
   9    4    7 1
  10    5    6 ar
  11    5   18 1
  12    6   27 1
  13    7    8 am
  14    7   13 2
  15    7   14 2
  16    8    9 1
  17    8   28 1
  18    9   17 ar
  19    9   19 ar
  20   10   11 1
  21   11   12 am
  22   11   15 2
  23   12   16 1
  24   16   29 1
  25   16   30 1
  26   16   31 1
  27   17   22 ar
  28   17   32 1
  29   18   33 1
  30   18   34 1
  31   18   35 1
  32   19   20 ar
  33   19   36 1
  34   20   21 ar
  35   20   37 1
  36   21   22 ar
  37   21   23 1
  38   22   25 1
  39   23   24 1
  40   24   25 1
  41   24   38 1
  42   24   39 1

#	End of record

