#	Name: ASD01670021
#	Creating user name:	WinNT
#	Creation time:	15. 06. 2019 19:22

#	Modifying user name:	WinNT
#	Modification time:	15. 06. 2019 19:22

#	Program:	/corina/corina34_cracker 3.40 0067  02.08.2006

@<TRIPOS>MOLECULE
ASD01670021
  55   57    0    0    0
SMALL
NO_CHARGES


@<TRIPOS>ATOM
   1 C1             0.1163     1.0989    -0.3148 C.ar    
   2 C2             2.5204     1.3515    -0.2084 C.ar    
   3 C3             5.0128     8.9299     1.4429 C.ar    
   4 C4             0.2656    -0.2680    -0.3686 C.ar    
   5 C5             2.6631    -0.0161    -0.2620 C.ar    
   6 C6             6.2630     9.5044     1.6022 C.ar    
   7 C7             1.2440     1.9212    -0.2341 C.ar    
   8 C8             5.5089     8.4794    -0.8656 C.ar    
   9 C9             4.6315     8.4191     0.2215 C.ar    
  10 C10            1.5381    -0.8322    -0.3423 C.ar    
  11 C11            7.1438     9.5720     0.5358 C.ar    
  12 C12            6.7728     9.0603    -0.7049 C.ar    
  13 C13            1.0874     3.3869    -0.1768 C.2     
  14 C14            5.1054     7.9337    -2.1742 C.2     
  15 C15            8.9581     9.5057    -0.7637 C.3     
  16 C16            5.2458     4.0846     0.9452 C.3     
  17 C17            4.3924     4.1571     3.2923 C.3     
  18 C18            3.2696     7.7952     0.0573 C.3     
  19 C19            3.7905     5.9750     1.6876 C.3     
  20 C20            2.0201     5.6339    -0.0422 C.3     
  21 C21            4.0627     4.4764     1.8328 C.3     
  22 C22            3.3762     6.2808     0.2468 C.3     
  23 N23            1.6856    -2.2138    -0.3958 N.pl3   
  24 N24            2.1756     4.1783    -0.0991 N.am    
  25 O25            4.5422     8.6458    -2.9819 O.2     
  26 O26           -0.0234     3.8810    -0.1997 O.2     
  27 O27            5.3611     6.6453    -2.4748 O.3     
  28 O28            8.4079    10.0787     0.4373 O.3     
  29 O29            7.8002     9.2460    -1.5796 O.3     
  30 H30           -0.8709     1.5362    -0.3393 H       
  31 H31            3.3935     1.9841    -0.1461 H       
  32 H32            4.3348     8.8780     2.2819 H       
  33 H33           -0.6052    -0.9037    -0.4309 H       
  34 H34            3.6489    -0.4567    -0.2422 H       
  35 H35            6.5524     9.9022     2.5636 H       
  36 H36            9.6226    10.2151    -1.2569 H       
  37 H37            9.4849     8.5783    -0.5391 H       
  38 H38            6.1295     4.6456     1.2493 H       
  39 H39            5.4398     3.0170     1.0487 H       
  40 H40            5.0110     4.3121    -0.0946 H       
  41 H41            5.2761     4.7180     3.5964 H       
  42 H42            3.5496     4.4362     3.9246 H       
  43 H43            4.5864     3.0895     3.3958 H       
  44 H44            2.5889     8.2076     0.8021 H       
  45 H45            2.8893     8.0106    -0.9412 H       
  46 H46            2.9883     6.2659     2.3658 H       
  47 H47            4.6938     6.5338     1.9323 H       
  48 H48            1.3176     5.8936     0.7498 H       
  49 H49            1.6409     5.9965    -0.9976 H       
  50 H50            3.1790     3.9154     1.5288 H       
  51 H51            4.1231     5.8805    -0.4388 H       
  52 H52            0.9025    -2.7834    -0.4515 H       
  53 H53            2.5717    -2.6080    -0.3776 H       
  54 H54            3.0617     3.7841    -0.0808 H       
  55 H55            5.0777     6.3329    -3.3449 H       
@<TRIPOS>BOND
   1    1    4 ar
   2    1    7 ar
   3    1   30 1
   4    2    5 ar
   5    2    7 ar
   6    2   31 1
   7    3    6 ar
   8    3    9 ar
   9    3   32 1
  10    4   10 ar
  11    4   33 1
  12    5   10 ar
  13    5   34 1
  14    6   11 ar
  15    6   35 1
  16    7   13 1
  17    8    9 ar
  18    8   12 ar
  19    8   14 1
  20    9   18 1
  21   10   23 1
  22   11   12 ar
  23   11   28 1
  24   12   29 1
  25   13   24 am
  26   13   26 2
  27   14   25 2
  28   14   27 1
  29   15   28 1
  30   15   29 1
  31   15   36 1
  32   15   37 1
  33   16   21 1
  34   16   38 1
  35   16   39 1
  36   16   40 1
  37   17   21 1
  38   17   41 1
  39   17   42 1
  40   17   43 1
  41   18   22 1
  42   18   44 1
  43   18   45 1
  44   19   21 1
  45   19   22 1
  46   19   46 1
  47   19   47 1
  48   20   22 1
  49   20   24 1
  50   20   48 1
  51   20   49 1
  52   21   50 1
  53   22   51 1
  54   23   52 1
  55   23   53 1
  56   24   54 1
  57   27   55 1

#	End of record

