#	Name: ASD04881245
#	Creating user name:	WinNT
#	Creation time:	15. 06. 2019 20:53

#	Modifying user name:	WinNT
#	Modification time:	15. 06. 2019 20:53

#	Program:	/corina/corina34_cracker 3.40 0067  02.08.2006

@<TRIPOS>MOLECULE
ASD04881245
  79   83    0    0    0
SMALL
NO_CHARGES


@<TRIPOS>ATOM
   1 C1            -0.2237     0.3566     4.1055 C.ar    
   2 C2            -0.3584    -0.8624     3.4661 C.ar    
   3 C3             0.6151    -1.2957     2.5850 C.ar    
   4 C4             1.7259    -0.5120     2.3406 C.ar    
   5 C5             1.8643     0.7126     2.9810 C.ar    
   6 C6             0.8843     1.1451     3.8657 C.ar    
   7 N7             2.9865     1.5075     2.7365 N.3     
   8 C8             3.0004     1.9858     1.3471 C.3     
   9 C9             4.1993     2.9149     1.1422 C.3     
  10 N10            5.4376     2.1895     1.4588 N.3     
  11 C11            5.4237     1.7112     2.8483 C.3     
  12 C12            4.2248     0.7821     3.0532 C.3     
  13 C13            6.5564     2.9819     1.2151 C.ar    
  14 C14            6.8687     3.3654    -0.0926 C.ar    
  15 C15            7.9787     4.1521    -0.3341 C.ar    
  16 C16            8.7862     4.5622     0.7310 C.ar    
  17 C17            8.4683     4.1753     2.0355 C.ar    
  18 C18            7.3577     3.3953     2.2726 C.ar    
  19 C19            1.0300     2.4733     4.5625 C.3     
  20 N20            6.0573     2.9521    -1.1571 N.am    
  21 C21            5.9703     3.7065    -2.2706 C.2     
  22 C22            5.0427     3.3288    -3.3415 C.2     
  23 O23            6.6617     4.7014    -2.3871 O.2     
  24 C24            4.8562     4.0007    -4.5157 C.2     
  25 C25            3.8837     3.2905    -5.2369 C.2     
  26 C26            3.5236     2.2299    -4.4810 C.2     
  27 O27            4.2280     2.2534    -3.3420 O.3     
  28 C28            9.9726     5.4018     0.4779 C.2     
  29 O29           10.2487     5.7376    -0.6577 O.2     
  30 N30           10.7503     5.7965     1.5054 N.am    
  31 C31           11.9285     6.6303     1.2541 C.3     
  32 C32           12.6301     6.9344     2.5792 C.3     
  33 C33           13.8605     7.8051     2.3168 C.3     
  34 N34           14.6147     7.9763     3.5657 N.3     
  35 C35           15.2670     6.7115     3.9686 C.3     
  36 C36           15.2581     6.6690     5.5079 C.3     
  37 C37           14.5366     7.9650     5.9434 C.3     
  38 C38           13.7116     8.3413     4.6871 C.3     
  39 C39           13.4124     9.8182     4.6699 C.2     
  40 N40           12.6076    10.3536     5.6091 N.am    
  41 O41           13.8958    10.5249     3.8110 O.2     
  42 H42           -0.9880     0.6941     4.7898 H       
  43 H43           -1.2258    -1.4773     3.6557 H       
  44 H44            0.5070    -2.2483     2.0876 H       
  45 H45            2.4861    -0.8512     1.6525 H       
  46 H46            3.0798     1.1351     0.6703 H       
  47 H47            2.0790     2.5303     1.1407 H       
  48 H48            4.2282     3.2480     0.1047 H       
  49 H49            4.1060     3.7793     1.7995 H       
  50 H50            6.3451     1.1667     3.0547 H       
  51 H51            5.3443     2.5620     3.5250 H       
  52 H52            4.1959     0.4491     4.0906 H       
  53 H53            4.3181    -0.0823     2.3958 H       
  54 H54            8.2221     4.4493    -1.3435 H       
  55 H55            9.0915     4.4912     2.8590 H       
  56 H56            7.1115     3.1012     3.2822 H       
  57 H57            1.4832     2.3219     5.5422 H       
  58 H58            1.6644     3.1289     3.9660 H       
  59 H59            0.0476     2.9299     4.6834 H       
  60 H60            5.5581     2.1229    -1.0929 H       
  61 H61            5.3595     4.9035    -4.8287 H       
  62 H62            3.4958     3.5443    -6.2123 H       
  63 H63            2.7913     1.4838    -4.7523 H       
  64 H64           10.5301     5.5286     2.4112 H       
  65 H65           12.6143     6.1003     0.5931 H       
  66 H66           11.6193     7.5638     0.7840 H       
  67 H67           11.9443     7.4643     3.2402 H       
  68 H68           12.9393     6.0008     3.0493 H       
  69 H69           14.4946     7.3232     1.5725 H       
  70 H70           13.5433     8.7803     1.9473 H       
  71 H71           14.7101     5.8633     3.5705 H       
  72 H72           16.2934     6.6900     3.6024 H       
  73 H73           14.7102     5.7947     5.8591 H       
  74 H74           16.2782     6.6566     5.8919 H       
  75 H75           13.8806     7.7745     6.7928 H       
  76 H76           15.2579     8.7473     6.1797 H       
  77 H77           12.7903     7.7605     4.6437 H       
  78 H78           12.2209     9.7884     6.2960 H       
  79 H79           12.4150    11.3042     5.5980 H       
@<TRIPOS>BOND
   1    1    2 ar
   2    1    6 ar
   3    1   42 1
   4    2    3 ar
   5    2   43 1
   6    3    4 ar
   7    3   44 1
   8    4    5 ar
   9    4   45 1
  10    5    6 ar
  11    5    7 1
  12    6   19 1
  13    7    8 1
  14    7   12 1
  15    8    9 1
  16    8   46 1
  17    8   47 1
  18    9   10 1
  19    9   48 1
  20    9   49 1
  21   10   11 1
  22   10   13 1
  23   11   12 1
  24   11   50 1
  25   11   51 1
  26   12   52 1
  27   12   53 1
  28   13   14 ar
  29   13   18 ar
  30   14   15 ar
  31   14   20 1
  32   15   16 ar
  33   15   54 1
  34   16   17 ar
  35   16   28 1
  36   17   18 ar
  37   17   55 1
  38   18   56 1
  39   19   57 1
  40   19   58 1
  41   19   59 1
  42   20   21 am
  43   20   60 1
  44   21   22 1
  45   21   23 2
  46   22   24 2
  47   22   27 1
  48   24   25 1
  49   24   61 1
  50   25   26 2
  51   25   62 1
  52   26   27 1
  53   26   63 1
  54   28   29 2
  55   28   30 am
  56   30   31 1
  57   30   64 1
  58   31   32 1
  59   31   65 1
  60   31   66 1
  61   32   33 1
  62   32   67 1
  63   32   68 1
  64   33   34 1
  65   33   69 1
  66   33   70 1
  67   34   35 1
  68   34   38 1
  69   35   36 1
  70   35   71 1
  71   35   72 1
  72   36   37 1
  73   36   73 1
  74   36   74 1
  75   37   38 1
  76   37   75 1
  77   37   76 1
  78   38   39 1
  79   38   77 1
  80   39   40 am
  81   39   41 2
  82   40   78 1
  83   40   79 1

#	End of record

