#	Name: ASD02030472
#	Creating user name:	WinNT
#	Creation time:	15. 06. 2019 20:15

#	Modifying user name:	WinNT
#	Modification time:	15. 06. 2019 20:15

#	Program:	/corina/corina34_cracker 3.40 0067  02.08.2006

@<TRIPOS>MOLECULE
ASD02030472
  56   59    0    0    0
SMALL
NO_CHARGES


@<TRIPOS>ATOM
   1 N1             0.1834     1.1275     0.7369 N.am    
   2 C2             0.0763    -0.2549     0.2496 C.3     
   3 C3             0.7466    -0.3427    -1.1270 C.3     
   4 N4             2.0763     0.2774    -1.0422 N.am    
   5 C5             2.1835     1.6598    -0.5550 C.3     
   6 C6             1.5131     1.7475     0.8217 C.3     
   7 C7            -0.9186     1.8161     1.0942 C.2     
   8 O8            -2.0201     1.3349     0.9163 O.2     
   9 O9            -0.7991     3.0374     1.6484 O.3     
  10 C10            0.7814    -1.1993     1.2252 C.3     
  11 C11           -1.3985    -0.6438     0.1284 C.3     
  12 C12            3.1779    -0.4096    -1.4044 C.2     
  13 O13            3.1077    -1.6048    -1.6118 O.2     
  14 C14            4.4745     0.2927    -1.5497 C.ar    
  15 C15            5.6369    -0.4423    -1.7717 C.ar    
  16 C16            6.8421     0.2286    -1.9059 C.ar    
  17 C17            6.8428     1.6118    -1.8135 C.ar    
  18 C18            5.6485     2.2783    -1.5913 C.ar    
  19 N19            4.5179     1.6169    -1.4727 N.ar    
  20 C20            5.6442     3.7818    -1.4901 C.3     
  21 C21            5.9575     4.3989    -0.1255 C.3     
  22 C22            6.9862     4.4780    -1.2553 C.3     
  23 C23           -2.0284     3.7211     2.0084 C.3     
  24 C24           -1.6992     5.0631     2.6097 C.ar    
  25 C25           -1.5899     6.1764     1.7976 C.ar    
  26 C26           -1.2879     7.4074     2.3492 C.ar    
  27 C27           -1.0955     7.5252     3.7130 C.ar    
  28 C28           -1.2057     6.4121     4.5253 C.ar    
  29 C29           -1.5120     5.1819     3.9742 C.ar    
  30 H30            0.8483    -1.3880    -1.4184 H       
  31 H31            0.1419     0.1876    -1.8628 H       
  32 H32            3.2341     1.9368    -0.4686 H       
  33 H33            1.6811     2.3326    -1.2500 H       
  34 H34            1.4114     2.7929     1.1131 H       
  35 H35            2.1178     1.2173     1.5574 H       
  36 H36            0.3130    -1.1240     2.2066 H       
  37 H37            0.7006    -2.2238     0.8618 H       
  38 H38            1.8330    -0.9231     1.3024 H       
  39 H39           -1.8974     0.0345    -0.5637 H       
  40 H40           -1.4755    -1.6650    -0.2448 H       
  41 H41           -1.8733    -0.5780     1.1073 H       
  42 H42            5.5995    -1.5196    -1.8378 H       
  43 H43            7.7600    -0.3138    -2.0783 H       
  44 H44            7.7653     2.1645    -1.9133 H       
  45 H45            4.9147     4.2932    -2.1181 H       
  46 H46            5.4344     5.3164     0.1440 H       
  47 H47            6.1668     3.7173     0.6990 H       
  48 H48            7.8723     3.8484    -1.1740 H       
  49 H49            7.1400     5.4475    -1.7290 H       
  50 H50           -2.6399     3.8624     1.1172 H       
  51 H51           -2.5778     3.1224     2.7348 H       
  52 H52           -1.7402     6.0843     0.7320 H       
  53 H53           -1.2018     8.2770     1.7146 H       
  54 H54           -0.8589     8.4869     4.1439 H       
  55 H55           -1.0551     6.5041     5.5907 H       
  56 H56           -1.6016     4.3130     4.6092 H       
@<TRIPOS>BOND
   1    1    2 1
   2    1    6 1
   3    1    7 am
   4    2    3 1
   5    2   10 1
   6    2   11 1
   7    3    4 1
   8    3   30 1
   9    3   31 1
  10    4    5 1
  11    4   12 am
  12    5    6 1
  13    5   32 1
  14    5   33 1
  15    6   34 1
  16    6   35 1
  17    7    8 2
  18    7    9 1
  19    9   23 1
  20   10   36 1
  21   10   37 1
  22   10   38 1
  23   11   39 1
  24   11   40 1
  25   11   41 1
  26   12   13 2
  27   12   14 1
  28   14   15 ar
  29   14   19 ar
  30   15   16 ar
  31   15   42 1
  32   16   17 ar
  33   16   43 1
  34   17   18 ar
  35   17   44 1
  36   18   19 ar
  37   18   20 1
  38   20   21 1
  39   20   22 1
  40   20   45 1
  41   21   22 1
  42   21   46 1
  43   21   47 1
  44   22   48 1
  45   22   49 1
  46   23   24 1
  47   23   50 1
  48   23   51 1
  49   24   25 ar
  50   24   29 ar
  51   25   26 ar
  52   25   52 1
  53   26   27 ar
  54   26   53 1
  55   27   28 ar
  56   27   54 1
  57   28   29 ar
  58   28   55 1
  59   29   56 1

#	End of record

