#	Name: ASD07300831
#	Creating user name:	WinNT
#	Creation time:	15. 06. 2019 21:10

#	Modifying user name:	WinNT
#	Modification time:	15. 06. 2019 21:10

#	Program:	/corina/corina34_cracker 3.40 0067  02.08.2006

@<TRIPOS>MOLECULE
ASD07300831
  46   49    0    0    0
SMALL
NO_CHARGES


@<TRIPOS>ATOM
   1 C1            -0.0173     1.4129    -0.0101 C.2     
   2 C2             0.0021    -0.0041     0.0020 C.2     
   3 N3             1.1789     2.0868    -0.0173 N.pl3   
   4 N4             1.1570    -0.6392     0.0061 N.2     
   5 C5             2.3164     0.0269    -0.0010 C.2     
   6 C6             2.3499     1.3742    -0.0125 C.2     
   7 N7            -0.9987     2.3003    -0.0113 N.2     
   8 C8            -0.4895     3.5281    -0.0253 C.2     
   9 C9             0.8876     3.4246    -0.0284 C.2     
  10 N10           -1.1862    -0.7176     0.0100 N.pl3   
  11 C11           -1.1897    -2.1844    -0.1073 C.3     
  12 C12           -2.0524    -2.7577     1.0227 C.3     
  13 O13           -3.3302    -2.1168     1.0109 O.3     
  14 C14           -3.2811    -0.7090     1.2547 C.3     
  15 C15           -2.4810    -0.0312     0.1422 C.3     
  16 C16            2.8612     6.4430    -0.4686 C.2     
  17 N17            3.6036     5.7786     0.3753 N.2     
  18 C18            3.0215     4.6086     0.6621 C.2     
  19 C19            1.8540     4.5360    -0.0384 C.2     
  20 N20            1.7564     5.7073    -0.7573 N.pl3   
  21 C21            3.1757     7.8070    -1.0267 C.3     
  22 C22            3.8754     7.6559    -2.3789 C.3     
  23 C23            1.8770     8.5950    -1.2098 C.3     
  24 C24           -1.2789     4.8118    -0.0319 C.3     
  25 H25            3.2444    -0.5257     0.0030 H       
  26 H26            3.2979     1.8917    -0.0185 H       
  27 H27           -1.6074    -2.4746    -1.0714 H       
  28 H28           -0.1711    -2.5622    -0.0194 H       
  29 H29           -2.1815    -3.8298     0.8742 H       
  30 H30           -1.5639    -2.5783     1.9805 H       
  31 H31           -4.2942    -0.3071     1.2730 H       
  32 H32           -2.7971    -0.5221     2.2133 H       
  33 H33           -2.3171     1.0163     0.3953 H       
  34 H34           -3.0310    -0.1009    -0.7963 H       
  35 H35            3.4087     3.8540     1.3307 H       
  36 H36            1.0354     5.9590    -1.3554 H       
  37 H37            3.8298     8.3400    -0.3367 H       
  38 H38            4.8006     7.0946    -2.2485 H       
  39 H39            3.2212     7.1230    -3.0690 H       
  40 H40            4.1029     8.6425    -2.7826 H       
  41 H41            1.3785     8.7027    -0.2464 H       
  42 H42            2.1045     9.5816    -1.6134 H       
  43 H43            1.2228     8.0621    -1.8998 H       
  44 H44           -1.4626     5.1306     0.9941 H       
  45 H45           -0.7144     5.5827    -0.5564 H       
  46 H46           -2.2306     4.6505    -0.5381 H       
@<TRIPOS>BOND
   1    1    2 1
   2    1    3 1
   3    1    7 2
   4    2    4 2
   5    2   10 1
   6    3    6 1
   7    3    9 1
   8    4    5 1
   9    5    6 2
  10    5   25 1
  11    6   26 1
  12    7    8 1
  13    8    9 2
  14    8   24 1
  15    9   19 1
  16   10   11 1
  17   10   15 1
  18   11   12 1
  19   11   27 1
  20   11   28 1
  21   12   13 1
  22   12   29 1
  23   12   30 1
  24   13   14 1
  25   14   15 1
  26   14   31 1
  27   14   32 1
  28   15   33 1
  29   15   34 1
  30   16   17 2
  31   16   20 1
  32   16   21 1
  33   17   18 1
  34   18   19 2
  35   18   35 1
  36   19   20 1
  37   20   36 1
  38   21   22 1
  39   21   23 1
  40   21   37 1
  41   22   38 1
  42   22   39 1
  43   22   40 1
  44   23   41 1
  45   23   42 1
  46   23   43 1
  47   24   44 1
  48   24   45 1
  49   24   46 1

#	End of record

