#	Name: ASD01914584
#	Creating user name:	WinNT
#	Creation time:	15. 06. 2019 20:03

#	Modifying user name:	WinNT
#	Modification time:	15. 06. 2019 20:03

#	Program:	/corina/corina34_cracker 3.40 0067  02.08.2006

@<TRIPOS>MOLECULE
ASD01914584
  40   42    0    0    0
SMALL
NO_CHARGES


@<TRIPOS>ATOM
   1 Cl1            0.0021    -0.0041     0.0020 Cl      
   2 C2            -0.0215     1.7317     0.0116 C.ar    
   3 N3             1.1185     2.3988     0.0043 N.ar    
   4 C4             1.1589     3.7185     0.0105 C.ar    
   5 C5            -0.0003     4.4627     0.0256 C.ar    
   6 C6            -1.2354     3.7976     0.0338 C.ar    
   7 C7            -1.2311     2.3961     0.0209 C.ar    
   8 C8            -2.4658     4.5300     0.0500 C.1     
   9 C9            -3.4746     5.1304     0.0632 C.1     
  10 C10           -4.7050     5.8628     0.0794 C.2     
  11 N11           -5.9532     5.3314     0.0885 N.2     
  12 C12           -6.8282     6.2968     0.1025 C.2     
  13 N13           -6.1738     7.4884     0.1030 N.pl3   
  14 C14           -4.8338     7.2211     0.0944 C.2     
  15 C15           -3.7151     8.2308     0.0916 C.3     
  16 C16           -6.7660     8.7603     0.1160 C.ar    
  17 C17           -7.5086     9.1692     1.2154 C.ar    
  18 C18           -8.0913    10.4209     1.2278 C.ar    
  19 C19           -7.9348    11.2699     0.1417 C.ar    
  20 C20           -7.1931    10.8616    -0.9573 C.ar    
  21 C21           -6.6049     9.6124    -0.9680 C.ar    
  22 O22           -8.5086    12.5022     0.1544 O.3     
  23 C23           -8.3064    13.3239    -0.9972 C.3     
  24 F24           -8.8237    12.6799    -2.1262 F       
  25 F25           -8.9604    14.5475    -0.8176 F       
  26 F26           -6.9371    13.5487    -1.1750 F       
  27 C27           -8.3248     6.1207     0.1161 C.3     
  28 H28            2.1145     4.2218     0.0041 H       
  29 H29            0.0412     5.5419     0.0313 H       
  30 H30           -2.1597     1.8447     0.0263 H       
  31 H31           -3.4395     8.4706     1.1185 H       
  32 H32           -2.8520     7.8154    -0.4287 H       
  33 H33           -4.0446     9.1367    -0.4172 H       
  34 H34           -7.6309     8.5082     2.0607 H       
  35 H35           -8.6694    10.7389     2.0828 H       
  36 H36           -7.0718    11.5227    -1.8027 H       
  37 H37           -6.0276     9.2946    -1.8236 H       
  38 H38           -8.6757     6.0728     1.1469 H       
  39 H39           -8.7946     6.9649    -0.3888 H       
  40 H40           -8.5867     5.1971    -0.4002 H       
@<TRIPOS>BOND
   1    1    2 1
   2    2    3 ar
   3    2    7 ar
   4    3    4 ar
   5    4    5 ar
   6    4   28 1
   7    5    6 ar
   8    5   29 1
   9    6    7 ar
  10    6    8 1
  11    7   30 1
  12    8    9 3
  13    9   10 1
  14   10   11 1
  15   10   14 2
  16   11   12 2
  17   12   13 1
  18   12   27 1
  19   13   14 1
  20   13   16 1
  21   14   15 1
  22   15   31 1
  23   15   32 1
  24   15   33 1
  25   16   17 ar
  26   16   21 ar
  27   17   18 ar
  28   17   34 1
  29   18   19 ar
  30   18   35 1
  31   19   20 ar
  32   19   22 1
  33   20   21 ar
  34   20   36 1
  35   21   37 1
  36   22   23 1
  37   23   24 1
  38   23   25 1
  39   23   26 1
  40   27   38 1
  41   27   39 1
  42   27   40 1

#	End of record

