#	Name: ASD01916732
#	Creating user name:	WinNT
#	Creation time:	15. 06. 2019 20:07

#	Modifying user name:	WinNT
#	Modification time:	15. 06. 2019 20:07

#	Program:	/corina/corina34_cracker 3.40 0067  02.08.2006

@<TRIPOS>MOLECULE
ASD01916732
  31   33    0    0    0
SMALL
NO_CHARGES


@<TRIPOS>ATOM
   1 O1            -0.0161     1.3382     0.0094 O.3     
   2 C2             0.0021    -0.0041     0.0020 C.2     
   3 N3             1.2264    -0.4375    -0.0120 N.2     
   4 C4             2.0698     0.6304    -0.0143 C.ar    
   5 C5             1.2622     1.7767    -0.0005 C.ar    
   6 C6             1.8490     3.0352     0.0003 C.ar    
   7 C7             3.2250     3.1528    -0.0126 C.ar    
   8 C8             4.0273     2.0216    -0.0268 C.ar    
   9 C9             3.4611     0.7642    -0.0269 C.ar    
  10 C10           -1.2226    -0.8822     0.0098 C.3     
  11 C11           -1.6224    -1.1872     1.4548 C.3     
  12 C12           -2.8186    -2.0449     1.4624 C.1     
  13 C13           -3.7727    -2.7291     1.4684 C.1     
  14 C14           -4.9364    -3.5635     1.4758 C.ar    
  15 C15           -5.4867    -3.9735     2.6908 C.ar    
  16 C16           -6.6111    -4.7795     2.6811 C.ar    
  17 C17           -7.1503    -5.1506     1.4570 C.ar    
  18 C18           -6.5540    -4.7084     0.2905 C.ar    
  19 N19           -5.4868    -3.9369     0.3263 N.ar    
  20 F20            1.0753     4.1426     0.0132 F       
  21 F21            4.2480    -0.3339    -0.0403 F       
  22 H22            3.6795     4.1325    -0.0120 H       
  23 H23            5.1022     2.1261    -0.0372 H       
  24 H24           -2.0416    -0.3680    -0.4930 H       
  25 H25           -1.0045    -1.8144    -0.5113 H       
  26 H26           -0.8033    -1.7014     1.9576 H       
  27 H27           -1.8404    -0.2549     1.9759 H       
  28 H28           -5.0410    -3.6662     3.6253 H       
  29 H29           -7.0592    -5.1129     3.6055 H       
  30 H30           -8.0274    -5.7794     1.4161 H       
  31 H31           -6.9714    -4.9960    -0.6631 H       
@<TRIPOS>BOND
   1    1    2 1
   2    1    5 1
   3    2    3 2
   4    2   10 1
   5    3    4 1
   6    4    5 ar
   7    4    9 ar
   8    5    6 ar
   9    6    7 ar
  10    6   20 1
  11    7    8 ar
  12    7   22 1
  13    8    9 ar
  14    8   23 1
  15    9   21 1
  16   10   11 1
  17   10   24 1
  18   10   25 1
  19   11   12 1
  20   11   26 1
  21   11   27 1
  22   12   13 3
  23   13   14 1
  24   14   15 ar
  25   14   19 ar
  26   15   16 ar
  27   15   28 1
  28   16   17 ar
  29   16   29 1
  30   17   18 ar
  31   17   30 1
  32   18   19 ar
  33   18   31 1

#	End of record

