#	Name: ASD01917882
#	Creating user name:	WinNT
#	Creation time:	15. 06. 2019 20:10

#	Modifying user name:	WinNT
#	Modification time:	15. 06. 2019 20:10

#	Program:	/corina/corina34_cracker 3.40 0067  02.08.2006

@<TRIPOS>MOLECULE
ASD01917882
  44   47    0    0    0
SMALL
NO_CHARGES


@<TRIPOS>ATOM
   1 C1            -0.0172     1.3249     0.0076 C.2     
   2 C2            -0.0106    -0.0212     0.0157 C.2     
   3 C3            -1.2825    -0.8552     0.0284 C.3     
   4 C4            -2.4482     0.0153     0.5036 C.3     
   5 N5            -2.4133     1.2994    -0.2126 N.am    
   6 C6            -1.2597     2.1855     0.0220 C.3     
   7 C7            -3.4039     1.6536    -1.0549 C.2     
   8 O8            -4.2910     0.8646    -1.3159 O.2     
   9 S9             1.6453     1.8961    -0.0144 S.3     
  10 C10            2.2075     0.2820    -0.0062 C.2     
  11 N11            1.2125    -0.5335     0.0100 N.2     
  12 C12            3.6580    -0.1267    -0.0168 C.3     
  13 O13            4.1036    -0.2667    -1.3673 O.3     
  14 C14            5.3986    -0.6334    -1.5548 C.ar    
  15 C15            5.8980    -0.7878    -2.8399 C.ar    
  16 C16            7.2148    -1.1608    -3.0279 C.ar    
  17 C17            8.0349    -1.3800    -1.9365 C.ar    
  18 C18            7.5396    -1.2272    -0.6547 C.ar    
  19 C19            6.2252    -0.8485    -0.4615 C.ar    
  20 C20           -3.4117     3.0017    -1.6615 C.ar    
  21 C21           -3.8827     3.2019    -2.9641 C.ar    
  22 N22           -3.8715     4.4239    -3.4670 N.ar    
  23 C23           -3.4257     5.4443    -2.7607 C.ar    
  24 N24           -2.9731     5.3005    -1.5304 N.ar    
  25 C25           -2.9536     4.1147    -0.9474 C.ar    
  26 C26           -3.4331     6.8185    -3.3792 C.3     
  27 H27           -1.4879    -1.2218    -0.9774 H       
  28 H28           -1.1580    -1.6994     0.7066 H       
  29 H29           -3.3902    -0.4922     0.2961 H       
  30 H30           -2.3571     0.1931     1.5751 H       
  31 H31           -1.3607     2.6767     0.9898 H       
  32 H32           -1.2000     2.9330    -0.7691 H       
  33 H33            4.2539     0.6356     0.4853 H       
  34 H34            3.7714    -1.0776     0.5037 H       
  35 H35            5.2576    -0.6170    -3.6927 H       
  36 H36            7.6038    -1.2815    -4.0281 H       
  37 H37            9.0641    -1.6715    -2.0856 H       
  38 H38            8.1820    -1.3998     0.1961 H       
  39 H39            5.8387    -0.7292     0.5399 H       
  40 H40           -4.2491     2.3712    -3.5489 H       
  41 H41           -2.5818     4.0049     0.0606 H       
  42 H42           -4.3815     7.3097    -3.1618 H       
  43 H43           -2.6152     7.4079    -2.9648 H       
  44 H44           -3.3078     6.7318    -4.4585 H       
@<TRIPOS>BOND
   1    1    2 2
   2    1    9 1
   3    1    6 1
   4    2    3 1
   5    2   11 1
   6    3    4 1
   7    3   27 1
   8    3   28 1
   9    4    5 1
  10    4   29 1
  11    4   30 1
  12    5    6 1
  13    5    7 am
  14    6   31 1
  15    6   32 1
  16    7    8 2
  17    7   20 1
  18    9   10 1
  19   10   11 2
  20   10   12 1
  21   12   13 1
  22   12   33 1
  23   12   34 1
  24   13   14 1
  25   14   15 ar
  26   14   19 ar
  27   15   16 ar
  28   15   35 1
  29   16   17 ar
  30   16   36 1
  31   17   18 ar
  32   17   37 1
  33   18   19 ar
  34   18   38 1
  35   19   39 1
  36   20   21 ar
  37   20   25 ar
  38   21   22 ar
  39   21   40 1
  40   22   23 ar
  41   23   24 ar
  42   23   26 1
  43   24   25 ar
  44   25   41 1
  45   26   42 1
  46   26   43 1
  47   26   44 1

#	End of record

