#	Name: ASD01208945
#	Creating user name:	WinNT
#	Creation time:	15. 06. 2019 19:10

#	Modifying user name:	WinNT
#	Modification time:	15. 06. 2019 19:10

#	Program:	/corina/corina34_cracker 3.40 0067  02.08.2006

@<TRIPOS>MOLECULE
ASD01208945
  53   57    0    0    0
SMALL
NO_CHARGES


@<TRIPOS>ATOM
   1 C1            -0.7105    -2.6112     0.7069 C.3     
   2 C2            -1.1114    -2.0654    -0.6861 C.3     
   3 C3             0.1298    -2.4118    -1.5471 C.3     
   4 C4             0.5825    -3.7827    -1.0031 C.3     
   5 C5             0.0435    -3.8948     0.4078 C.2     
   6 C6            -1.3327    -0.5523    -0.6345 C.3     
   7 C7            -2.5331    -0.2428     0.2622 C.3     
   8 C8            -2.6682     1.2495     0.4234 C.2     
   9 O9            -3.6205     1.8275    -0.0561 O.2     
  10 N10           -3.7511    -0.7801    -0.3494 N.pl3   
  11 C11           -4.5786    -1.7151     0.2155 C.ar    
  12 C12           -5.6201    -1.9436    -0.7049 C.ar    
  13 C13           -5.3512    -1.0806    -1.8506 C.2     
  14 N14           -4.2589    -0.4167    -1.6010 N.2     
  15 N15           -1.7307     1.9417     1.1004 N.am    
  16 C16           -4.5680    -2.4093     1.4225 C.ar    
  17 C17           -5.5636    -3.3022     1.7022 C.ar    
  18 C18           -6.5916    -3.5289     0.7958 C.ar    
  19 C19           -6.6287    -2.8622    -0.3948 C.ar    
  20 S20           -7.9380    -3.1590    -1.5359 S.o2    
  21 O21           -7.2774    -3.4257    -2.7655 O.2     
  22 O22           -8.7364    -4.1497    -0.9033 O.2     
  23 C23           -8.8300    -1.5818    -1.6216 C.3     
  24 C24          -10.1133    -1.5403    -2.4537 C.3     
  25 C25          -10.1904    -1.5009    -0.9261 C.3     
  26 C26           -1.9032     3.3018     1.3327 C.2     
  27 S27           -0.7985     4.2990     2.1741 S.3     
  28 C28           -1.8531     5.6894     1.9330 C.2     
  29 C29           -2.9261     5.2816     1.2505 C.2     
  30 N30           -2.9221     3.9984     0.9382 N.2     
  31 Cl31          -1.5505     7.3069     2.4861 Cl      
  32 O32            0.1868    -4.8316     1.1563 O.2     
  33 H33           -0.0638    -1.9011     1.2224 H       
  34 H34           -1.5983    -2.8213     1.3034 H       
  35 H35           -1.9984    -2.5755    -1.0617 H       
  36 H36           -0.1435    -2.4887    -2.5995 H       
  37 H37            0.9130    -1.6667    -1.4073 H       
  38 H38            0.1753    -4.5821    -1.6221 H       
  39 H39            1.6711    -3.8378    -0.9914 H       
  40 H40           -0.4433    -0.0685    -0.2309 H       
  41 H41           -1.5247    -0.1788    -1.6403 H       
  42 H42           -2.3844    -0.7018     1.2396 H       
  43 H43           -5.9530    -1.0031    -2.7440 H       
  44 H44           -0.9356     1.4912     1.4255 H       
  45 H45           -3.7744    -2.2426     2.1358 H       
  46 H46           -5.5510    -3.8386     2.6395 H       
  47 H47           -7.3694    -4.2388     1.0356 H       
  48 H48           -8.2063    -0.6879    -1.6135 H       
  49 H49          -10.3340    -0.6189    -2.9927 H       
  50 H50          -10.4215    -2.4607    -2.9496 H       
  51 H51          -10.5494    -2.3954    -0.4171 H       
  52 H52          -10.4619    -0.5537    -0.4602 H       
  53 H53           -3.7296     5.9477     0.9729 H       
@<TRIPOS>BOND
   1    1    2 1
   2    1    5 1
   3    1   33 1
   4    1   34 1
   5    2    3 1
   6    2    6 1
   7    2   35 1
   8    3    4 1
   9    3   36 1
  10    3   37 1
  11    4    5 1
  12    4   38 1
  13    4   39 1
  14    5   32 2
  15    6    7 1
  16    6   40 1
  17    6   41 1
  18    7    8 1
  19    7   10 1
  20    7   42 1
  21    8    9 2
  22    8   15 am
  23   10   11 1
  24   10   14 1
  25   11   12 ar
  26   11   16 ar
  27   12   13 1
  28   12   19 ar
  29   13   14 2
  30   13   43 1
  31   15   26 1
  32   15   44 1
  33   16   17 ar
  34   16   45 1
  35   17   18 ar
  36   17   46 1
  37   18   19 ar
  38   18   47 1
  39   19   20 1
  40   20   21 2
  41   20   22 2
  42   20   23 1
  43   23   24 1
  44   23   25 1
  45   23   48 1
  46   24   25 1
  47   24   49 1
  48   24   50 1
  49   25   51 1
  50   25   52 1
  51   26   27 1
  52   26   30 2
  53   27   28 1
  54   28   29 2
  55   28   31 1
  56   29   30 1
  57   29   53 1

#	End of record

