#	Name: ASD09116408
#	Creating user name:	WinNT
#	Creation time:	15. 06. 2019 21:21

#	Modifying user name:	WinNT
#	Modification time:	15. 06. 2019 21:21

#	Program:	/corina/corina34_cracker 3.40 0067  02.08.2006

@<TRIPOS>MOLECULE
ASD09116408
  83   90    0    0    0
SMALL
NO_CHARGES


@<TRIPOS>ATOM
   1 N1            -0.0590     1.5277    -0.5291 N.2     
   2 N2            -0.0822     0.2491    -1.1091 N.pl3   
   3 C3             1.1948     1.9114    -0.4984 C.2     
   4 N4             1.9589     0.9475    -1.0255 N.2     
   5 C5             1.2029    -0.0626    -1.3990 C.2     
   6 N6             1.6431    -1.2350    -1.9832 N.pl3   
   7 C7            -1.2077    -0.5436    -1.3410 C.ar    
   8 N8             1.6572     3.1282     0.0026 N.pl3   
   9 C9             3.0333     3.3745     0.0836 C.ar    
  10 C10            3.5138     4.6735    -0.0238 C.ar    
  11 C11            3.9167     2.3211     0.2767 C.ar    
  12 C12            5.2746     2.5633     0.3572 C.ar    
  13 C13            5.7566     3.8595     0.2445 C.ar    
  14 C14            4.8720     4.9162     0.0562 C.ar    
  15 N15           -1.1864    -1.4607    -2.2967 N.ar    
  16 N16           -2.1983    -2.2096    -2.5570 N.ar    
  17 C17           -3.3306    -2.1060    -1.8800 C.ar    
  18 C18           -3.4383    -1.1799    -0.8386 C.ar    
  19 C19           -2.3546    -0.3737    -0.5613 C.ar    
  20 C20           -4.5156    -2.9299    -2.2134 C.ar    
  21 C21           -5.7517    -2.3010    -2.3712 C.ar    
  22 C22           -5.8379    -0.8038    -2.2547 C.3     
  23 C23           -5.7907    -0.3552    -0.7966 C.3     
  24 C24           -4.7035    -1.1078    -0.0341 C.3     
  25 C25           -4.4120    -4.3082    -2.3649 C.ar    
  26 C26           -5.5405    -5.0511    -2.6531 C.ar    
  27 C27           -6.7671    -4.4266    -2.7881 C.ar    
  28 C28           -6.8730    -3.0537    -2.6466 C.ar    
  29 F29            5.3406     6.1785    -0.0540 F       
  30 N30            7.1339     4.1047     0.3266 N.3     
  31 C31            7.6707     3.6639     1.6205 C.3     
  32 C32            9.1399     4.0774     1.7323 C.3     
  33 C33            9.9325     3.4420     0.5866 C.3     
  34 C34            9.3232     3.8785    -0.7486 C.3     
  35 C35            7.8487     3.4707    -0.7885 C.3     
  36 N36           11.3323     3.8822     0.6548 N.3     
  37 C37           12.1577     3.1923    -0.3692 C.3     
  38 C38           13.6070     3.3210     0.1439 C.3     
  39 C39           13.4703     3.5181     1.6778 C.3     
  40 C40           11.9513     3.4900     1.9466 C.3     
  41 C41           14.3152     1.9599    -0.0185 C.3     
  42 N42           15.0467     1.7605     1.2585 N.3     
  43 C43           14.1088     2.2575     2.2972 C.3     
  44 C44           15.3611     0.3410     1.4689 C.3     
  45 H45            2.5891    -1.3674    -2.1521 H       
  46 H46            1.0061    -1.9257    -2.2244 H       
  47 H47            1.0256     3.8039     0.2949 H       
  48 H48            2.8262     5.4935    -0.1700 H       
  49 H49            3.5423     1.3119     0.3645 H       
  50 H50            5.9611     1.7433     0.5082 H       
  51 H51           -2.3935     0.3668     0.2239 H       
  52 H52           -5.0027    -0.3556    -2.7929 H       
  53 H53           -6.7722    -0.4646    -2.7020 H       
  54 H54           -5.5823     0.7140    -0.7567 H       
  55 H55           -6.7563    -0.5496    -0.3299 H       
  56 H56           -5.0502    -2.1187     0.1800 H       
  57 H57           -4.5022    -0.5924     0.9050 H       
  58 H58           -3.4540    -4.7954    -2.2581 H       
  59 H59           -5.4646    -6.1217    -2.7735 H       
  60 H60           -7.6474    -5.0135    -3.0050 H       
  61 H61           -7.8340    -2.5724    -2.7525 H       
  62 H62            7.1009     4.1262     2.4265 H       
  63 H63            7.5918     2.5793     1.6959 H       
  64 H64            9.2181     5.1628     1.6708 H       
  65 H65            9.5423     3.7364     2.6862 H       
  66 H66            9.8866     2.3561     0.6703 H       
  67 H67            9.4044     4.9608    -0.8491 H       
  68 H68            9.8567     3.3954    -1.5672 H       
  69 H69            7.7691     2.3871    -0.7018 H       
  70 H70            7.4083     3.7928    -1.7321 H       
  71 H71           11.8726     2.1428    -0.4426 H       
  72 H72           12.0521     3.6840    -1.3363 H       
  73 H73           14.1459     4.1382    -0.3354 H       
  74 H74           13.9358     4.4413     2.0231 H       
  75 H75           11.6901     4.2061     2.7257 H       
  76 H76           11.6344     2.4864     2.2303 H       
  77 H77           13.5829     1.1659    -0.1647 H       
  78 H78           15.0133     1.9926    -0.8550 H       
  79 H79           14.6512     2.5145     3.2070 H       
  80 H80           13.3446     1.5094     2.5082 H       
  81 H81           15.9837    -0.0185     0.6497 H       
  82 H82           15.8966     0.2233     2.4110 H       
  83 H83           14.4363    -0.2349     1.5023 H       
@<TRIPOS>BOND
   1    1    2 1
   2    1    3 2
   3    2    7 1
   4    2    5 1
   5    3    4 1
   6    3    8 1
   7    4    5 2
   8    5    6 1
   9    6   45 1
  10    6   46 1
  11    7   15 ar
  12    7   19 ar
  13    8    9 1
  14    8   47 1
  15    9   10 ar
  16    9   11 ar
  17   10   14 ar
  18   10   48 1
  19   11   12 ar
  20   11   49 1
  21   12   13 ar
  22   12   50 1
  23   13   14 ar
  24   13   30 1
  25   14   29 1
  26   15   16 ar
  27   16   17 ar
  28   17   18 ar
  29   17   20 1
  30   18   19 ar
  31   18   24 1
  32   19   51 1
  33   20   21 ar
  34   20   25 ar
  35   21   22 1
  36   21   28 ar
  37   22   23 1
  38   22   52 1
  39   22   53 1
  40   23   24 1
  41   23   54 1
  42   23   55 1
  43   24   56 1
  44   24   57 1
  45   25   26 ar
  46   25   58 1
  47   26   27 ar
  48   26   59 1
  49   27   28 ar
  50   27   60 1
  51   28   61 1
  52   30   31 1
  53   30   35 1
  54   31   32 1
  55   31   62 1
  56   31   63 1
  57   32   33 1
  58   32   64 1
  59   32   65 1
  60   33   34 1
  61   33   36 1
  62   33   66 1
  63   34   35 1
  64   34   67 1
  65   34   68 1
  66   35   69 1
  67   35   70 1
  68   36   37 1
  69   36   40 1
  70   37   38 1
  71   37   71 1
  72   37   72 1
  73   38   39 1
  74   38   41 1
  75   38   73 1
  76   39   40 1
  77   39   43 1
  78   39   74 1
  79   40   75 1
  80   40   76 1
  81   41   42 1
  82   41   77 1
  83   41   78 1
  84   42   43 1
  85   42   44 1
  86   43   79 1
  87   43   80 1
  88   44   81 1
  89   44   82 1
  90   44   83 1

#	End of record

