#	Name: ASD06170218
#	Creating user name:	WinNT
#	Creation time:	15. 06. 2019 21:05

#	Modifying user name:	WinNT
#	Modification time:	15. 06. 2019 21:05

#	Program:	/corina/corina34_cracker 3.40 0067  02.08.2006

@<TRIPOS>MOLECULE
ASD06170218
  74   79    0    0    0
SMALL
NO_CHARGES


@<TRIPOS>ATOM
   1 C1            -0.0669     1.4463     0.0120 C.2     
   2 C2            -0.1052     0.1704    -0.5993 C.2     
   3 C3             1.1000    -0.4007    -1.0456 C.2     
   4 C4             2.2960     0.3187    -0.8668 C.2     
   5 C5             2.2713     1.5336    -0.2762 C.2     
   6 N6             1.1082     2.0867     0.1555 N.am    
   7 C7            -1.3758    -0.5418    -0.7635 C.2     
   8 O8            -1.4215    -1.5587    -1.4307 O.2     
   9 N9            -2.4933    -0.0707    -0.1756 N.am    
  10 N10            1.1096    -1.6393    -1.6451 N.pl3   
  11 C11            1.5820    -1.7790    -2.9531 C.ar    
  12 C12            1.5990    -3.0298    -3.5572 C.ar    
  13 C13            2.0665    -3.1643    -4.8497 C.ar    
  14 C14            2.5179    -2.0557    -5.5423 C.ar    
  15 C15            2.5028    -0.8092    -4.9437 C.ar    
  16 C16            2.0304    -0.6666    -3.6538 C.ar    
  17 O17           -1.0975     1.9669     0.4035 O.2     
  18 C18           -3.7197    -0.6922    -0.4101 C.ar    
  19 C19           -3.7493    -2.0105    -0.8513 C.ar    
  20 C20           -4.9708    -2.6173    -1.0803 C.ar    
  21 C21           -6.1306    -1.8787    -0.8583 C.ar    
  22 C22           -6.0242    -0.5691    -0.4183 C.ar    
  23 N23           -4.8424    -0.0226    -0.2050 N.ar    
  24 O24           -7.3524    -2.4358    -1.0712 O.3     
  25 N25           -8.7013    -5.2013     1.6755 N.ar    
  26 C26           -7.5980    -4.5284     1.9037 C.ar    
  27 C27           -7.1128    -3.5894     1.0022 C.ar    
  28 C28           -7.8019    -3.3468    -0.1730 C.ar    
  29 C29           -8.9885    -4.0771    -0.4082 C.ar    
  30 C30           -9.7408    -3.8864    -1.5768 C.ar    
  31 C31          -10.8819    -4.6098    -1.7712 C.ar    
  32 C32          -11.3097    -5.5412    -0.8143 C.ar    
  33 C33          -10.5967    -5.7460     0.3317 C.ar    
  34 C34           -9.4176    -5.0174     0.5600 C.ar    
  35 O35          -12.4493    -6.2491    -1.0304 O.3     
  36 C36          -12.8343    -7.1832    -0.0198 C.3     
  37 O37          -11.6113    -4.4251    -2.9038 O.3     
  38 C38          -11.1234    -3.4617    -3.8398 C.3     
  39 C39            1.1334     3.4069     0.7900 C.3     
  40 C40            1.3213     3.2462     2.2766 C.ar    
  41 C41            2.5949     3.2196     2.8134 C.ar    
  42 C42            2.7672     3.0722     4.1770 C.ar    
  43 C43            1.6660     2.9518     5.0039 C.ar    
  44 C44            0.3924     2.9793     4.4672 C.ar    
  45 C45            0.2199     3.1311     3.1040 C.ar    
  46 H46            3.2335    -0.1002    -1.2014 H       
  47 H47            3.1958     2.0761    -0.1441 H       
  48 H48           -2.4447     0.7006     0.4105 H       
  49 H49            0.7884    -2.4155    -1.1599 H       
  50 H50            1.2473    -3.8961    -3.0166 H       
  51 H51            2.0800    -4.1365    -5.3200 H       
  52 H52            2.8833    -2.1638    -6.5528 H       
  53 H53            2.8564     0.0545    -5.4872 H       
  54 H54            2.0141     0.3080    -3.1887 H       
  55 H55           -2.8299    -2.5536    -1.0135 H       
  56 H56           -5.0241    -3.6399    -1.4236 H       
  57 H57           -6.9192     0.0099    -0.2444 H       
  58 H58           -7.0520    -4.7096     2.8178 H       
  59 H59           -6.2021    -3.0505     1.2180 H       
  60 H60           -9.4190    -3.1705    -2.3187 H       
  61 H61          -10.9377    -6.4666     1.0603 H       
  62 H62          -12.0472    -7.9266     0.1066 H       
  63 H63          -12.9908    -6.6562     0.9214 H       
  64 H64          -13.7584    -7.6792    -0.3165 H       
  65 H65          -11.0726    -2.4837    -3.3613 H       
  66 H66          -10.1286    -3.7537    -4.1764 H       
  67 H67          -11.7968    -3.4131    -4.6955 H       
  68 H68            1.9575     3.9911     0.3807 H       
  69 H69            0.1921     3.9211     0.5963 H       
  70 H70            3.4552     3.3136     2.1674 H       
  71 H71            3.7623     3.0507     4.5963 H       
  72 H72            1.8007     2.8359     6.0692 H       
  73 H73           -0.4680     2.8850     5.1131 H       
  74 H74           -0.7752     3.1563     2.6851 H       
@<TRIPOS>BOND
   1    1    2 1
   2    1    6 am
   3    1   17 2
   4    2    3 2
   5    2    7 1
   6    3    4 1
   7    3   10 1
   8    4    5 2
   9    4   46 1
  10    5    6 1
  11    5   47 1
  12    6   39 1
  13    7    8 2
  14    7    9 am
  15    9   18 1
  16    9   48 1
  17   10   11 1
  18   10   49 1
  19   11   12 ar
  20   11   16 ar
  21   12   13 ar
  22   12   50 1
  23   13   14 ar
  24   13   51 1
  25   14   15 ar
  26   14   52 1
  27   15   16 ar
  28   15   53 1
  29   16   54 1
  30   18   19 ar
  31   18   23 ar
  32   19   20 ar
  33   19   55 1
  34   20   21 ar
  35   20   56 1
  36   21   22 ar
  37   21   24 1
  38   22   23 ar
  39   22   57 1
  40   24   28 1
  41   25   26 ar
  42   25   34 ar
  43   26   27 ar
  44   26   58 1
  45   27   28 ar
  46   27   59 1
  47   28   29 ar
  48   29   30 ar
  49   29   34 ar
  50   30   31 ar
  51   30   60 1
  52   31   32 ar
  53   31   37 1
  54   32   33 ar
  55   32   35 1
  56   33   34 ar
  57   33   61 1
  58   35   36 1
  59   36   62 1
  60   36   63 1
  61   36   64 1
  62   37   38 1
  63   38   65 1
  64   38   66 1
  65   38   67 1
  66   39   40 1
  67   39   68 1
  68   39   69 1
  69   40   41 ar
  70   40   45 ar
  71   41   42 ar
  72   41   70 1
  73   42   43 ar
  74   42   71 1
  75   43   44 ar
  76   43   72 1
  77   44   45 ar
  78   44   73 1
  79   45   74 1

#	End of record

