#	Name: ASD08150589
#	Creating user name:	WinNT
#	Creation time:	15. 06. 2019 21:16

#	Modifying user name:	WinNT
#	Modification time:	15. 06. 2019 21:16

#	Program:	/corina/corina34_cracker 3.40 0067  02.08.2006

@<TRIPOS>MOLECULE
ASD08150589
  51   54    0    0    0
SMALL
NO_CHARGES


@<TRIPOS>ATOM
   1 N1             0.3675     1.7236    -0.7676 N.ar    
   2 C2             0.5028     1.1929     0.4201 C.ar    
   3 C3             1.6074     0.3885     0.7466 C.ar    
   4 C4             2.5913     0.1469    -0.2246 C.ar    
   5 C5             2.4163     0.7350    -1.5009 C.ar    
   6 C6             3.3544     0.5416    -2.5235 C.ar    
   7 C7             3.1545     1.1236    -3.7416 C.ar    
   8 C8             2.0285     1.9075    -3.9793 C.ar    
   9 C9             1.0985     2.1141    -3.0050 C.ar    
  10 C10            1.2714     1.5316    -1.7396 C.ar    
  11 C11            1.7316    -0.1934     2.0915 C.2     
  12 O12            2.6326    -0.9719     2.3361 O.2     
  13 O13            0.8463     0.1365     3.0531 O.3     
  14 Cl14           4.3171     0.8844    -5.0084 Cl      
  15 N15            3.6903    -0.6355     0.0544 N.pl3   
  16 C16            3.6382    -2.0154    -0.1599 C.ar    
  17 C17            4.7645    -2.7976     0.0629 C.ar    
  18 C18            4.7093    -4.1610    -0.1494 C.ar    
  19 C19            3.5347    -4.7479    -0.5833 C.ar    
  20 C20            2.4117    -3.9722    -0.8062 C.ar    
  21 C21            2.4584    -2.6089    -0.5908 C.ar    
  22 C22            3.4785    -6.2360    -0.8144 C.3     
  23 C23            3.0584    -6.9263     0.4576 C.ar    
  24 C24            1.7182    -7.1487     0.7132 C.ar    
  25 C25            1.3329    -7.7819     1.8800 C.ar    
  26 C26            2.2878    -8.1931     2.7910 C.ar    
  27 C27            3.6280    -7.9716     2.5350 C.ar    
  28 C28            4.0136    -7.3423     1.3662 C.ar    
  29 C29            0.9564    -0.5654     4.3194 C.3     
  30 C30           -0.1926    -0.1440     5.2376 C.3     
  31 H31           -0.2534     1.3778     1.1686 H       
  32 H32            4.2311    -0.0644    -2.3486 H       
  33 H33            1.8903     2.3589    -4.9507 H       
  34 H34            0.2309     2.7251    -3.2057 H       
  35 H35            4.5004    -0.2285     0.3995 H       
  36 H36            5.6822    -2.3398     0.4015 H       
  37 H37            5.5846    -4.7696     0.0234 H       
  38 H38            1.4960    -4.4337    -1.1451 H       
  39 H39            1.5799    -2.0043    -0.7611 H       
  40 H40            2.7570    -6.4544    -1.6017 H       
  41 H41            4.4632    -6.5946    -1.1143 H       
  42 H42            0.9722    -6.8274     0.0015 H       
  43 H43            0.2858    -7.9550     2.0800 H       
  44 H44            1.9867    -8.6872     3.7030 H       
  45 H45            4.3741    -8.2926     3.2469 H       
  46 H46            5.0609    -7.1725     1.1644 H       
  47 H47            0.9063    -1.6401     4.1446 H       
  48 H48            1.9076    -0.3178     4.7905 H       
  49 H49           -1.1438    -0.3916     4.7664 H       
  50 H50           -0.1100    -0.6709     6.1882 H       
  51 H51           -0.1426     0.9308     5.4124 H       
@<TRIPOS>BOND
   1    1    2 ar
   2    1   10 ar
   3    2    3 ar
   4    2   31 1
   5    3    4 ar
   6    3   11 1
   7    4    5 ar
   8    4   15 1
   9    5    6 ar
  10    5   10 ar
  11    6    7 ar
  12    6   32 1
  13    7    8 ar
  14    7   14 1
  15    8    9 ar
  16    8   33 1
  17    9   10 ar
  18    9   34 1
  19   11   12 2
  20   11   13 1
  21   13   29 1
  22   15   16 1
  23   15   35 1
  24   16   17 ar
  25   16   21 ar
  26   17   18 ar
  27   17   36 1
  28   18   19 ar
  29   18   37 1
  30   19   20 ar
  31   19   22 1
  32   20   21 ar
  33   20   38 1
  34   21   39 1
  35   22   23 1
  36   22   40 1
  37   22   41 1
  38   23   24 ar
  39   23   28 ar
  40   24   25 ar
  41   24   42 1
  42   25   26 ar
  43   25   43 1
  44   26   27 ar
  45   26   44 1
  46   27   28 ar
  47   27   45 1
  48   28   46 1
  49   29   30 1
  50   29   47 1
  51   29   48 1
  52   30   49 1
  53   30   50 1
  54   30   51 1

#	End of record

