#	Name: ASD03331020
#	Creating user name:	WinNT
#	Creation time:	15. 06. 2019 20:38

#	Modifying user name:	WinNT
#	Modification time:	15. 06. 2019 20:38

#	Program:	/corina/corina34_cracker 3.40 0067  02.08.2006

@<TRIPOS>MOLECULE
ASD03331020
  67   70    0    0    0
SMALL
NO_CHARGES


@<TRIPOS>ATOM
   1 N1            -0.1141     1.2730     0.4295 N.pl3   
   2 C2            -0.0292    -0.0793     0.3150 C.2     
   3 C3             1.2464    -0.8804     0.2988 C.3     
   4 N4             2.1121    -0.4309     1.4003 N.3     
   5 C5             2.9742     0.6751     0.9796 C.3     
   6 C6             2.2646     1.5640    -0.0377 C.3     
   7 C7             1.0189     2.1872     0.5981 C.3     
   8 C8            -1.4361     1.6059     0.3701 C.2     
   9 N9            -2.1399     0.5054     0.2427 N.2     
  10 C10           -1.3011    -0.5534     0.2084 C.2     
  11 C11           -1.6929    -1.9680     0.0787 C.2     
  12 O12           -0.8408    -2.8357     0.0597 O.2     
  13 N13           -2.9954    -2.3004    -0.0188 N.am    
  14 C14            2.9074    -1.5452     1.9330 C.3     
  15 C15           -4.7246    -3.7963    -0.8319 C.2     
  16 C16           -3.3848    -3.7067    -0.1478 C.3     
  17 C17           -3.4786    -4.3394     1.2421 C.3     
  18 C18           -4.0175    -5.7660     1.1178 C.3     
  19 O19           -5.5734    -2.9576    -0.6152 O.2     
  20 C20           -2.0893    -4.3730     1.8821 C.3     
  21 C21           -4.4230    -3.5120     2.1165 C.3     
  22 N22           -4.9794    -4.8084    -1.6847 N.am    
  23 C23           -6.2721    -5.0799    -2.3304 C.3     
  24 C24           -1.9843     2.9777     0.4379 C.ar    
  25 C25           -1.5358     3.8638     1.4182 C.ar    
  26 C26           -2.0501     5.1420     1.4766 C.ar    
  27 C27           -3.0105     5.5486     0.5649 C.ar    
  28 C28           -3.4610     4.6760    -0.4100 C.ar    
  29 C29           -2.9493     3.3940    -0.4829 C.ar    
  30 Cl30          -3.6522     7.1597     0.6462 Cl      
  31 F31           -3.3852     2.5439    -1.4382 F       
  32 C32           -4.0065    -5.8227    -2.1295 C.3     
  33 C33           -4.8670    -7.0413    -2.5471 C.3     
  34 C34           -6.0956    -6.3462    -3.1945 C.3     
  35 F35           -7.2275    -7.1642    -3.1119 F       
  36 F36           -5.8268    -6.0036    -4.5240 F       
  37 H37            1.0143    -1.9377     0.4260 H       
  38 H38            1.7587    -0.7305    -0.6516 H       
  39 H39            3.2421     1.2720     1.8515 H       
  40 H40            3.8817     0.2711     0.5308 H       
  41 H41            2.9407     2.3554    -0.3614 H       
  42 H42            1.9705     0.9650    -0.8995 H       
  43 H43            0.7970     3.1365     0.1104 H       
  44 H44            1.1970     2.3549     1.6603 H       
  45 H45           -3.6749    -1.6083    -0.0037 H       
  46 H46            3.4813    -2.0004     1.1259 H       
  47 H47            3.5887    -1.1722     2.6978 H       
  48 H48            2.2423    -2.2896     2.3707 H       
  49 H49           -2.6387    -4.2376    -0.7390 H       
  50 H50           -3.3041    -6.3769     0.5647 H       
  51 H51           -4.1625    -6.1876     2.1124 H       
  52 H52           -4.9697    -5.7498     0.5876 H       
  53 H53           -1.7054    -3.3567     1.9706 H       
  54 H54           -2.1562    -4.8237     2.8722 H       
  55 H55           -1.4165    -4.9625     1.2592 H       
  56 H56           -5.4128    -3.4880     1.6606 H       
  57 H57           -4.4898    -3.9627     3.1066 H       
  58 H58           -4.0391    -2.4956     2.2050 H       
  59 H59           -7.0362    -5.2519    -1.5723 H       
  60 H60           -6.5557    -4.2373    -2.9610 H       
  61 H61           -0.7874     3.5489     2.1303 H       
  62 H62           -1.7034     5.8279     2.2354 H       
  63 H63           -4.2105     4.9984    -1.1176 H       
  64 H64           -3.4348    -5.4526    -2.9805 H       
  65 H65           -3.3388    -6.0924    -1.3113 H       
  66 H66           -4.3413    -7.6600    -3.2743 H       
  67 H67           -5.1613    -7.6283    -1.6771 H       
@<TRIPOS>BOND
   1    1    2 1
   2    1    7 1
   3    1    8 1
   4    2    3 1
   5    2   10 2
   6    3    4 1
   7    3   37 1
   8    3   38 1
   9    4    5 1
  10    4   14 1
  11    5    6 1
  12    5   39 1
  13    5   40 1
  14    6    7 1
  15    6   41 1
  16    6   42 1
  17    7   43 1
  18    7   44 1
  19    8    9 2
  20    8   24 1
  21    9   10 1
  22   10   11 1
  23   11   12 2
  24   11   13 am
  25   13   16 1
  26   13   45 1
  27   14   46 1
  28   14   47 1
  29   14   48 1
  30   15   19 2
  31   15   22 am
  32   15   16 1
  33   16   17 1
  34   16   49 1
  35   17   18 1
  36   17   20 1
  37   17   21 1
  38   18   50 1
  39   18   51 1
  40   18   52 1
  41   20   53 1
  42   20   54 1
  43   20   55 1
  44   21   56 1
  45   21   57 1
  46   21   58 1
  47   22   23 1
  48   22   32 1
  49   23   34 1
  50   23   59 1
  51   23   60 1
  52   24   25 ar
  53   24   29 ar
  54   25   26 ar
  55   25   61 1
  56   26   27 ar
  57   26   62 1
  58   27   28 ar
  59   27   30 1
  60   28   29 ar
  61   28   63 1
  62   29   31 1
  63   32   33 1
  64   32   64 1
  65   32   65 1
  66   33   34 1
  67   33   66 1
  68   33   67 1
  69   34   35 1
  70   34   36 1

#	End of record

