#	Name: ASD01908098
#	Creating user name:	WinNT
#	Creation time:	15. 06. 2019 19:54

#	Modifying user name:	WinNT
#	Modification time:	15. 06. 2019 19:54

#	Program:	/corina/corina34_cracker 3.40 0067  02.08.2006

@<TRIPOS>MOLECULE
ASD01908098
  46   49    0    0    0
SMALL
NO_CHARGES


@<TRIPOS>ATOM
   1 S1            -0.0242     1.7576    -0.0304 S.3     
   2 C2             0.0013    -0.0032    -0.0100 C.2     
   3 N3             1.2320    -0.4152    -0.0147 N.2     
   4 C4             2.1768     0.5142    -0.0329 C.2     
   5 C5             1.7377     1.7833    -0.0444 C.2     
   6 N6            -1.1185    -0.8216     0.0090 N.pl3   
   7 C7            -2.3869    -0.2623     0.1294 C.ar    
   8 C8            -3.5112    -1.0759     0.0312 C.ar    
   9 C9            -4.7659    -0.5069     0.1532 C.ar    
  10 C10           -4.8546     0.8620     0.3703 C.ar    
  11 C11           -3.6971     1.6092     0.4573 C.ar    
  12 N12           -2.5130     1.0385     0.3420 N.ar    
  13 N13            5.8058     0.3513    -0.0571 N.pl3   
  14 N14            5.4760    -1.0094    -0.0392 N.2     
  15 C15            4.1738    -1.1207    -0.0287 C.2     
  16 C16            3.6232     0.1752    -0.0397 C.2     
  17 C17            4.6585     1.0626    -0.0572 C.2     
  18 C18            3.3966    -2.4117    -0.0089 C.3     
  19 F19            4.2826    -3.4876     0.1122 F       
  20 F20            2.5152    -2.4088     1.0775 F       
  21 F21            2.6705    -2.5372    -1.1981 F       
  22 C22            7.1613     0.9068    -0.0676 C.3     
  23 C23            7.9384     0.3574     1.1009 C.ar    
  24 C24            8.6647    -0.8105     0.9589 C.ar    
  25 C25            9.3778    -1.3162     2.0285 C.ar    
  26 C26            9.3650    -0.6511     3.2459 C.ar    
  27 C27            8.6355     0.5207     3.3858 C.ar    
  28 C28            7.9285     1.0252     2.3116 C.ar    
  29 O29           10.0654    -1.1467     4.2998 O.3     
  30 C30           10.0063    -0.4094     5.5224 C.3     
  31 H31            2.3577     2.6675    -0.0599 H       
  32 H32           -1.0174    -1.7837    -0.0616 H       
  33 H33           -3.4057    -2.1372    -0.1385 H       
  34 H34           -5.6566    -1.1133     0.0810 H       
  35 H35           -5.8194     1.3372     0.4697 H       
  36 H36           -3.7615     2.6740     0.6257 H       
  37 H37            4.5756     2.1394    -0.0686 H       
  38 H38            7.6597     0.6315    -0.9971 H       
  39 H39            7.1095     1.9929     0.0090 H       
  40 H40            8.6741    -1.3281     0.0110 H       
  41 H41            9.9447    -2.2287     1.9172 H       
  42 H42            8.6238     1.0403     4.3325 H       
  43 H43            7.3643     1.9399     2.4186 H       
  44 H44           10.3947     0.5960     5.3595 H       
  45 H45            8.9719    -0.3489     5.8607 H       
  46 H46           10.6074    -0.9127     6.2797 H       
@<TRIPOS>BOND
   1    1    2 1
   2    1    5 1
   3    2    3 2
   4    2    6 1
   5    3    4 1
   6    4    5 2
   7    4   16 1
   8    5   31 1
   9    6    7 1
  10    6   32 1
  11    7    8 ar
  12    7   12 ar
  13    8    9 ar
  14    8   33 1
  15    9   10 ar
  16    9   34 1
  17   10   11 ar
  18   10   35 1
  19   11   12 ar
  20   11   36 1
  21   13   14 1
  22   13   17 1
  23   13   22 1
  24   14   15 2
  25   15   16 1
  26   15   18 1
  27   16   17 2
  28   17   37 1
  29   18   19 1
  30   18   20 1
  31   18   21 1
  32   22   23 1
  33   22   38 1
  34   22   39 1
  35   23   24 ar
  36   23   28 ar
  37   24   25 ar
  38   24   40 1
  39   25   26 ar
  40   25   41 1
  41   26   27 ar
  42   26   29 1
  43   27   28 ar
  44   27   42 1
  45   28   43 1
  46   29   30 1
  47   30   44 1
  48   30   45 1
  49   30   46 1

#	End of record

