#	Name: ASD01816725
#	Creating user name:	WinNT
#	Creation time:	15. 06. 2019 19:35

#	Modifying user name:	WinNT
#	Modification time:	15. 06. 2019 19:35

#	Program:	/corina/corina34_cracker 3.40 0067  02.08.2006

@<TRIPOS>MOLECULE
ASD01816725
  67   71    0    0    0
SMALL
NO_CHARGES


@<TRIPOS>ATOM
   1 C1            -0.0167     1.3960     0.0123 C.2     
   2 C2             0.0025    -0.0052    -0.0044 C.2     
   3 C3             1.1989    -0.6602    -0.0252 C.2     
   4 C4             2.3922     0.0815    -0.0295 C.2     
   5 N5             2.3439     1.4491    -0.0125 N.am    
   6 C6             1.1420     2.0927     0.0078 C.2     
   7 C7             3.6230    -0.5887    -0.0507 C.2     
   8 C8             4.7879     0.1231    -0.0550 C.2     
   9 C9             4.7340     1.5284    -0.0381 C.2     
  10 C10            3.4813     2.1731    -0.0166 C.2     
  11 C11            3.6605    -2.0951    -0.0681 C.3     
  12 O12            3.4256     3.3913    -0.0018 O.2     
  13 C13            5.9710     2.3159    -0.0418 C.2     
  14 N14            7.1647     1.6963     0.0459 N.am    
  15 O15            5.9198     3.5292    -0.1240 O.2     
  16 N16            3.7780    -2.5659    -1.4547 N.3     
  17 C17            4.0549    -4.0074    -1.4992 C.3     
  18 C18            4.3146    -4.4338    -2.9459 C.3     
  19 C19            3.0860    -4.1044    -3.7983 C.3     
  20 C20            2.7904    -2.6055    -3.6960 C.3     
  21 C21            2.5749    -2.2321    -2.2276 C.3     
  22 C22            3.3582    -4.4671    -5.2355 C.ar    
  23 N23            4.5962    -4.6986    -5.6258 N.ar    
  24 C24            1.9276    -4.8688    -3.3077 C.1     
  25 N25            1.0336    -5.4588    -2.9291 N.1     
  26 C26            4.8817    -5.0189    -6.8729 C.ar    
  27 C27            3.8830    -5.1234    -7.8222 C.ar    
  28 C28            2.5685    -4.8872    -7.4490 C.ar    
  29 C29            2.3066    -4.5588    -6.1279 C.ar    
  30 C30            8.4025     2.4710    -0.0711 C.3     
  31 C31            9.5368     1.7366     0.6502 C.3     
  32 C32           10.8418     2.5130     0.4559 C.3     
  33 O33           11.1091     2.6509    -0.9412 O.3     
  34 C34           10.1049     3.3710    -1.6590 C.3     
  35 C35            8.7703     2.6290    -1.5496 C.3     
  36 C36            1.4507    -4.9904    -8.4544 C.3     
  37 H37           -0.9604     1.9212     0.0242 H       
  38 H38           -0.9228    -0.5622    -0.0005 H       
  39 H39            1.2286    -1.7397    -0.0378 H       
  40 H40            1.1153     3.1723     0.0210 H       
  41 H41            5.7398    -0.3870    -0.0710 H       
  42 H42            4.5175    -2.4439     0.5080 H       
  43 H43            2.7433    -2.4865     0.3719 H       
  44 H44            7.2041     0.7373     0.1865 H       
  45 H45            4.9332    -4.2275    -0.8925 H       
  46 H46            3.1970    -4.5542    -1.1079 H       
  47 H47            5.1808    -3.8975    -3.3334 H       
  48 H48            4.5046    -5.5065    -2.9805 H       
  49 H49            3.6326    -2.0405    -4.0953 H       
  50 H50            1.8915    -2.3721    -4.2665 H       
  51 H51            1.7240    -2.7873    -1.8328 H       
  52 H52            2.3784    -1.1628    -2.1498 H       
  53 H53            5.9080    -5.2013    -7.1556 H       
  54 H54            4.1233    -5.3854    -8.8421 H       
  55 H55            1.2947    -4.3686    -5.8020 H       
  56 H56            8.2612     3.4541     0.3779 H       
  57 H57            9.3084     1.6686     1.7138 H       
  58 H58            9.6439     0.7345     0.2349 H       
  59 H59           10.7478     3.5008     0.9071 H       
  60 H60           11.6606     1.9726     0.9310 H       
  61 H61           10.0012     4.3700    -1.2354 H       
  62 H62           10.3928     3.4487    -2.7074 H       
  63 H63            8.8620     1.6449    -2.0094 H       
  64 H64            7.9937     3.1993    -2.0593 H       
  65 H65            1.0673    -6.0107    -8.4680 H       
  66 H66            0.6495    -4.3048    -8.1786 H       
  67 H67            1.8268    -4.7305    -9.4439 H       
@<TRIPOS>BOND
   1    1    2 1
   2    1    6 2
   3    1   37 1
   4    2    3 2
   5    2   38 1
   6    3    4 1
   7    3   39 1
   8    4    5 1
   9    4    7 2
  10    5    6 1
  11    5   10 am
  12    6   40 1
  13    7    8 1
  14    7   11 1
  15    8    9 2
  16    8   41 1
  17    9   10 1
  18    9   13 1
  19   10   12 2
  20   11   16 1
  21   11   42 1
  22   11   43 1
  23   13   15 2
  24   13   14 am
  25   14   30 1
  26   14   44 1
  27   16   17 1
  28   16   21 1
  29   17   18 1
  30   17   45 1
  31   17   46 1
  32   18   19 1
  33   18   47 1
  34   18   48 1
  35   19   20 1
  36   19   22 1
  37   19   24 1
  38   20   21 1
  39   20   49 1
  40   20   50 1
  41   21   51 1
  42   21   52 1
  43   22   23 ar
  44   22   29 ar
  45   23   26 ar
  46   24   25 3
  47   26   27 ar
  48   26   53 1
  49   27   28 ar
  50   27   54 1
  51   28   29 ar
  52   28   36 1
  53   29   55 1
  54   30   31 1
  55   30   35 1
  56   30   56 1
  57   31   32 1
  58   31   57 1
  59   31   58 1
  60   32   33 1
  61   32   59 1
  62   32   60 1
  63   33   34 1
  64   34   35 1
  65   34   61 1
  66   34   62 1
  67   35   63 1
  68   35   64 1
  69   36   65 1
  70   36   66 1
  71   36   67 1

#	End of record

