#	Name: ASD01150299
#	Creating user name:	WinNT
#	Creation time:	15. 06. 2019 19:04

#	Modifying user name:	WinNT
#	Modification time:	15. 06. 2019 19:04

#	Program:	/corina/corina34_cracker 3.40 0067  02.08.2006

@<TRIPOS>MOLECULE
ASD01150299
  72   75    0    0    0
SMALL
NO_CHARGES


@<TRIPOS>ATOM
   1 C1            -0.2506     1.3030    -0.8251 C.2     
   2 N2            -0.1901    -0.0073    -0.7115 N.2     
   3 C3            -1.4049    -0.5017    -0.4578 C.2     
   4 C4            -2.2947     0.5642    -0.4070 C.2     
   5 N5            -1.5338     1.7123    -0.6397 N.pl3   
   6 N6             0.8183     2.1292    -1.0849 N.3     
   7 C7             2.0598     1.3561    -1.2234 C.3     
   8 C8             0.5724     2.9485    -2.2792 C.3     
   9 C9            -2.0039     3.0313    -0.6823 C.ar    
  10 N10           -1.7221    -1.8427    -0.2774 N.am    
  11 C11           -3.6817     0.5004    -0.1651 C.2     
  12 O12           -4.4168     1.6332    -0.1475 O.3     
  13 O13           -4.2172    -0.5761     0.0280 O.2     
  14 C14           -5.8166     1.4943     0.1038 C.3     
  15 C15           -6.0271     0.8462     1.4737 C.3     
  16 C16           -6.4775     2.8741     0.0854 C.3     
  17 C17           -6.4441     0.6138    -0.9788 C.3     
  18 C18           -1.5875     3.9495     0.2725 C.ar    
  19 C19           -2.0525     5.2492     0.2275 C.ar    
  20 C20           -2.9321     5.6364    -0.7667 C.ar    
  21 C21           -3.3490     4.7242    -1.7187 C.ar    
  22 C22           -2.8828     3.4246    -1.6827 C.ar    
  23 C23           -0.7564    -2.7797    -0.3532 C.2     
  24 C24           -1.0927    -4.2017    -0.1619 C.2     
  25 O25            0.3925    -2.4518    -0.5796 O.2     
  26 C26           -2.3754    -4.7318     0.1057 C.2     
  27 N27           -2.2641    -6.0277     0.2092 N.2     
  28 N28           -0.9250    -6.3850     0.0158 N.pl3   
  29 C29           -0.2148    -5.2662    -0.2165 C.2     
  30 C30            1.2674    -5.1881    -0.4775 C.3     
  31 C31           -0.4116    -7.6886     0.0518 C.ar    
  32 C32            0.7676    -7.9532     0.7355 C.ar    
  33 C33            1.2711    -9.2389     0.7692 C.ar    
  34 C34            0.6021   -10.2621     0.1229 C.ar    
  35 C35           -0.5725   -10.0017    -0.5588 C.ar    
  36 C36           -1.0840    -8.7191    -0.5913 C.ar    
  37 C37            1.5322    -5.3714    -1.9732 C.3     
  38 C38            3.0223    -5.1701    -2.2558 C.3     
  39 H39            1.9571     0.6483    -2.0460 H       
  40 H40            2.8887     2.0335    -1.4284 H       
  41 H41            2.2546     0.8128    -0.2988 H       
  42 H42           -0.3141     3.5629    -2.1220 H       
  43 H43            1.4329     3.5922    -2.4617 H       
  44 H44            0.4159     2.2983    -3.1399 H       
  45 H45           -2.6386    -2.1042    -0.0968 H       
  46 H46           -5.5800     1.4734     2.2449 H       
  47 H47           -7.0949     0.7402     1.6653 H       
  48 H48           -5.5563    -0.1368     1.4867 H       
  49 H49           -6.3275     3.3358    -0.8906 H       
  50 H50           -7.5452     2.7681     0.2770 H       
  51 H51           -6.0304     3.5013     0.8566 H       
  52 H52           -5.9733    -0.3692    -0.9657 H       
  53 H53           -7.5119     0.5078    -0.7872 H       
  54 H54           -6.2942     1.0755    -1.9547 H       
  55 H55           -0.9011     3.6475     1.0497 H       
  56 H56           -1.7289     5.9639     0.9699 H       
  57 H57           -3.2946     6.6532    -0.7995 H       
  58 H58           -4.0364     5.0295    -2.4938 H       
  59 H59           -3.2089     2.7126    -2.4265 H       
  60 H60           -3.2881    -4.1635     0.2075 H       
  61 H61            1.6417    -4.2153    -0.1588 H       
  62 H62            1.7765    -5.9739     0.0805 H       
  63 H63            1.2907    -7.1544     1.2402 H       
  64 H64            2.1884    -9.4453     1.3005 H       
  65 H65            0.9979   -11.2665     0.1503 H       
  66 H66           -1.0926   -10.8028    -1.0630 H       
  67 H67           -2.0016    -8.5164    -1.1236 H       
  68 H68            1.2380    -6.3770    -2.2738 H       
  69 H69            0.9534    -4.6398    -2.5370 H       
  70 H70            3.2109    -5.3007    -3.3214 H       
  71 H71            3.3165    -4.1645    -1.9553 H       
  72 H72            3.6011    -5.9017    -1.6921 H       
@<TRIPOS>BOND
   1    1    2 2
   2    1    6 1
   3    1    5 1
   4    2    3 1
   5    3    4 2
   6    3   10 1
   7    4    5 1
   8    4   11 1
   9    5    9 1
  10    6    7 1
  11    6    8 1
  12    7   39 1
  13    7   40 1
  14    7   41 1
  15    8   42 1
  16    8   43 1
  17    8   44 1
  18    9   18 ar
  19    9   22 ar
  20   10   23 am
  21   10   45 1
  22   11   12 1
  23   11   13 2
  24   12   14 1
  25   14   15 1
  26   14   16 1
  27   14   17 1
  28   15   46 1
  29   15   47 1
  30   15   48 1
  31   16   49 1
  32   16   50 1
  33   16   51 1
  34   17   52 1
  35   17   53 1
  36   17   54 1
  37   18   19 ar
  38   18   55 1
  39   19   20 ar
  40   19   56 1
  41   20   21 ar
  42   20   57 1
  43   21   22 ar
  44   21   58 1
  45   22   59 1
  46   23   24 1
  47   23   25 2
  48   24   26 1
  49   24   29 2
  50   26   27 2
  51   26   60 1
  52   27   28 1
  53   28   29 1
  54   28   31 1
  55   29   30 1
  56   30   37 1
  57   30   61 1
  58   30   62 1
  59   31   32 ar
  60   31   36 ar
  61   32   33 ar
  62   32   63 1
  63   33   34 ar
  64   33   64 1
  65   34   35 ar
  66   34   65 1
  67   35   36 ar
  68   35   66 1
  69   36   67 1
  70   37   38 1
  71   37   68 1
  72   37   69 1
  73   38   70 1
  74   38   71 1
  75   38   72 1

#	End of record

