#	Name: ASD02562050
#	Creating user name:	WinNT
#	Creation time:	15. 06. 2019 20:25

#	Modifying user name:	WinNT
#	Modification time:	15. 06. 2019 20:25

#	Program:	/corina/corina34_cracker 3.40 0067  02.08.2006

@<TRIPOS>MOLECULE
ASD02562050
  46   49    0    0    0
SMALL
NO_CHARGES


@<TRIPOS>ATOM
   1 C1             0.1539     1.3719     1.2106 C.2     
   2 C2             0.1690    -0.0336     1.1589 C.2     
   3 C3             1.2931    -0.6903     0.8098 C.2     
   4 N4             2.4353    -0.0014     0.5008 N.pl3   
   5 C5             2.4506     1.3741     0.5422 C.2     
   6 C6             1.2789     2.0713     0.9064 C.2     
   7 C7             3.6842    -0.4112     0.1242 C.2     
   8 C8             4.4401     0.7280    -0.0576 C.2     
   9 N9             3.6593     1.7923     0.2048 N.2     
  10 N10            4.1117    -1.7284    -0.0440 N.3     
  11 C11            5.8628     0.7723    -0.4686 C.ar    
  12 C12            2.9882    -2.6665     0.0809 C.3     
  13 C13            3.3288    -3.9696    -0.6448 C.3     
  14 C14            2.1586    -4.9467    -0.5147 C.3     
  15 C15            1.9005    -5.2392     0.9648 C.3     
  16 C16            1.5599    -3.9361     1.6904 C.3     
  17 C17            2.7301    -2.9590     1.5604 C.3     
  18 C18            6.5110     1.9981    -0.6163 C.ar    
  19 C19            7.8363     2.0328    -0.9995 C.ar    
  20 C20            8.5217     0.8550    -1.2369 C.ar    
  21 C21            7.8839    -0.3644    -1.0921 C.ar    
  22 C22            6.5609    -0.4122    -0.7039 C.ar    
  23 C23            5.7656     3.2822    -0.3585 C.3     
  24 F24            6.6210     4.3686    -0.5708 F       
  25 F25            4.6743     3.3708    -1.2294 F       
  26 F26            5.3095     3.2992     0.9639 F       
  27 H27           -0.7503     1.8939     1.4868 H       
  28 H28           -0.7248    -0.5895     1.4005 H       
  29 H29            1.2930    -1.7697     0.7739 H       
  30 H30            1.2761     3.1507     0.9429 H       
  31 H31            4.5838    -1.8452    -0.9280 H       
  32 H32            2.0957    -2.2258    -0.3634 H       
  33 H33            3.5127    -3.7612    -1.6987 H       
  34 H34            4.2212    -4.4104    -0.2004 H       
  35 H35            1.2662    -4.5060    -0.9590 H       
  36 H36            2.4013    -5.8751    -1.0317 H       
  37 H37            1.0669    -5.9353     1.0574 H       
  38 H38            2.7930    -5.6800     1.4091 H       
  39 H39            0.6674    -3.4954     1.2461 H       
  40 H40            1.3760    -4.1445     2.7444 H       
  41 H41            3.6225    -3.3997     2.0047 H       
  42 H42            2.4874    -2.0306     2.0773 H       
  43 H43            8.3393     2.9816    -1.1145 H       
  44 H44            9.5586     0.8873    -1.5369 H       
  45 H45            8.4241    -1.2807    -1.2792 H       
  46 H46            6.0642    -1.3646    -0.5908 H       
@<TRIPOS>BOND
   1    1    2 1
   2    1    6 2
   3    1   27 1
   4    2    3 2
   5    2   28 1
   6    3    4 1
   7    3   29 1
   8    4    5 1
   9    4    7 1
  10    5    6 1
  11    5    9 2
  12    6   30 1
  13    7    8 2
  14    7   10 1
  15    8    9 1
  16    8   11 1
  17   10   12 1
  18   10   31 1
  19   11   18 ar
  20   11   22 ar
  21   12   13 1
  22   12   17 1
  23   12   32 1
  24   13   14 1
  25   13   33 1
  26   13   34 1
  27   14   15 1
  28   14   35 1
  29   14   36 1
  30   15   16 1
  31   15   37 1
  32   15   38 1
  33   16   17 1
  34   16   39 1
  35   16   40 1
  36   17   41 1
  37   17   42 1
  38   18   19 ar
  39   18   23 1
  40   19   20 ar
  41   19   43 1
  42   20   21 ar
  43   20   44 1
  44   21   22 ar
  45   21   45 1
  46   22   46 1
  47   23   24 1
  48   23   25 1
  49   23   26 1

#	End of record

