#	Name: ASD01810281
#	Creating user name:	WinNT
#	Creation time:	15. 06. 2019 19:24

#	Modifying user name:	WinNT
#	Modification time:	15. 06. 2019 19:24

#	Program:	/corina/corina34_cracker 3.40 0067  02.08.2006

@<TRIPOS>MOLECULE
ASD01810281
  52   56    0    0    0
SMALL
NO_CHARGES


@<TRIPOS>ATOM
   1 C1            -0.0167     1.3794     0.0096 C.ar    
   2 C2             0.0021    -0.0041     0.0020 C.ar    
   3 C3             1.1734     2.0839     0.0020 C.ar    
   4 C4             2.3791     1.4142    -0.0135 C.ar    
   5 C5             2.4071     0.0215    -0.0214 C.ar    
   6 C6             1.2034    -0.6770    -0.0124 C.ar    
   7 N7             3.4825    -0.8694    -0.0381 N.am    
   8 C8             3.0778    -2.1542    -0.0401 C.2     
   9 C9             1.5737    -2.1330    -0.0226 C.3     
  10 O10            3.7882    -3.1372    -0.0537 O.2     
  11 C11            4.8875    -0.4548    -0.0522 C.3     
  12 C12            5.3858    -0.3201     1.3636 C.ar    
  13 C13            6.2205    -1.2856     1.8952 C.ar    
  14 C14            5.0105     0.7740     2.1266 C.ar    
  15 C15            5.4659     0.9013     3.4256 C.ar    
  16 C16            6.3027    -0.0724     3.9656 C.ar    
  17 C17            6.6804    -1.1671     3.1915 C.ar    
  18 F18            4.1992     1.7173     1.6004 F       
  19 C19            6.7954     0.0591     5.3601 C.2     
  20 C20            6.5008     1.1092     6.2513 C.2     
  21 N21            7.1172     0.8699     7.3784 N.2     
  22 N22            7.8238    -0.3322     7.2526 N.pl3   
  23 C23            7.6112    -0.8182     6.0130 C.2     
  24 C24            1.0176    -2.8642     1.2051 C.3     
  25 C25            0.9901    -2.8536    -1.2452 C.3     
  26 N26            0.6520    -4.2137    -0.7458 N.3     
  27 C27            0.1223    -3.9827     0.6237 C.3     
  28 C28            8.6470    -0.9574     8.2907 C.3     
  29 C29           -0.3581    -4.8522    -1.6002 C.3     
  30 H30           -0.9585     1.9079     0.0170 H       
  31 H31           -0.9260    -0.5565     0.0078 H       
  32 H32            1.1586     3.1638     0.0080 H       
  33 H33            3.3043     1.9713    -0.0199 H       
  34 H34            5.4818    -1.2029    -0.5769 H       
  35 H35            4.9782     0.5043    -0.5621 H       
  36 H36            6.5132    -2.1345     1.2951 H       
  37 H37            5.1737     1.7542     4.0203 H       
  38 H38            7.3288    -1.9246     3.6064 H       
  39 H39            5.8748     1.9635     6.0399 H       
  40 H40            8.0188    -1.7325     5.6078 H       
  41 H41            1.8299    -3.2941     1.7913 H       
  42 H42            0.4257    -2.1834     1.8169 H       
  43 H43            0.0933    -2.3429    -1.5962 H       
  44 H44            1.7316    -2.9137    -2.0418 H       
  45 H45            0.2093    -4.8892     1.2227 H       
  46 H46           -0.9160    -3.6538     0.5791 H       
  47 H47            8.0307    -1.6306     8.8867 H       
  48 H48            9.4542    -1.5216     7.8236 H       
  49 H49            9.0685    -0.1852     8.9342 H       
  50 H50            0.0274    -4.9387    -2.6161 H       
  51 H51           -0.5868    -5.8450    -1.2127 H       
  52 H52           -1.2644    -4.2467    -1.6059 H       
@<TRIPOS>BOND
   1    1    2 ar
   2    1    3 ar
   3    1   30 1
   4    2    6 ar
   5    2   31 1
   6    3    4 ar
   7    3   32 1
   8    4    5 ar
   9    4   33 1
  10    5    6 ar
  11    5    7 1
  12    6    9 1
  13    7    8 am
  14    7   11 1
  15    8    9 1
  16    8   10 2
  17    9   24 1
  18    9   25 1
  19   11   12 1
  20   11   34 1
  21   11   35 1
  22   12   13 ar
  23   12   14 ar
  24   13   17 ar
  25   13   36 1
  26   14   15 ar
  27   14   18 1
  28   15   16 ar
  29   15   37 1
  30   16   17 ar
  31   16   19 1
  32   17   38 1
  33   19   20 1
  34   19   23 2
  35   20   21 2
  36   20   39 1
  37   21   22 1
  38   22   23 1
  39   22   28 1
  40   23   40 1
  41   24   27 1
  42   24   41 1
  43   24   42 1
  44   25   26 1
  45   25   43 1
  46   25   44 1
  47   26   27 1
  48   26   29 1
  49   27   45 1
  50   27   46 1
  51   28   47 1
  52   28   48 1
  53   28   49 1
  54   29   50 1
  55   29   51 1
  56   29   52 1

#	End of record

