#	Name: ASD01900006
#	Creating user name:	WinNT
#	Creation time:	15. 06. 2019 19:51

#	Modifying user name:	WinNT
#	Modification time:	15. 06. 2019 19:51

#	Program:	/corina/corina34_cracker 3.40 0067  02.08.2006

@<TRIPOS>MOLECULE
ASD01900006
  58   63    0    0    0
SMALL
NO_CHARGES


@<TRIPOS>ATOM
   1 N1             0.4913     1.7482    -0.5651 N.ar    
   2 C2             0.3669     0.4414    -0.4132 C.ar    
   3 N3             1.4024    -0.3653    -0.3347 N.ar    
   4 C4             2.6433     0.1125    -0.4071 C.ar    
   5 C5             2.8290     1.4992    -0.5695 C.ar    
   6 C6             1.6874     2.3204    -0.6477 C.ar    
   7 N7             1.8085     3.6870    -0.8063 N.3     
   8 N8             3.8900    -0.4438    -0.3612 N.pl3   
   9 N9             4.8328     0.5836    -0.4932 N.2     
  10 C10            4.2215     1.7276    -0.6160 C.2     
  11 C11            4.1761    -1.8062    -0.2078 C.ar    
  12 C12            3.5068    -2.7486    -0.9771 C.ar    
  13 C13            3.7912    -4.0915    -0.8234 C.ar    
  14 C14            4.7409    -4.4978     0.0957 C.ar    
  15 C15            5.4090    -3.5616     0.8638 C.ar    
  16 C16            5.1340    -2.2171     0.7102 C.ar    
  17 C17            5.8624    -1.1977     1.5476 C.3     
  18 C18            0.4891     4.3293    -0.8614 C.3     
  19 C19            0.6571     5.8162    -1.1823 C.3     
  20 C20            1.5201     6.4723    -0.1009 C.3     
  21 C21            2.8704     5.7538    -0.0310 C.3     
  22 C22            2.6382     4.2687     0.2565 C.3     
  23 C23            5.0483    -5.9638     0.2611 C.3     
  24 N24            1.7329     7.8831    -0.4335 N.am    
  25 C25            1.3531     8.9712     0.3487 C.ar    
  26 C26            1.7457    10.1205    -0.3410 C.ar    
  27 N27            2.3516     9.6947    -1.5206 N.am    
  28 C28            2.3340     8.3486    -1.5447 C.2     
  29 O29            2.7855     7.6578    -2.4389 O.2     
  30 C30            0.7152     9.0855     1.5740 C.ar    
  31 C31            0.4704    10.3360     2.1078 C.ar    
  32 C32            0.8594    11.4749     1.4244 C.ar    
  33 C33            1.4960    11.3709     0.2028 C.ar    
  34 H34           -0.6251     0.0190    -0.3507 H       
  35 H35            4.6996     2.6889    -0.7339 H       
  36 H36            2.7643    -2.4319    -1.6947 H       
  37 H37            3.2709    -4.8250    -1.4215 H       
  38 H38            6.1500    -3.8821     1.5812 H       
  39 H39            6.7164    -0.8129     0.9902 H       
  40 H40            5.1871    -0.3771     1.7899 H       
  41 H41            6.2105    -1.6657     2.4684 H       
  42 H42           -0.1131     3.8561    -1.6371 H       
  43 H43           -0.0088     4.2196     0.1020 H       
  44 H44            1.1425     5.9266    -2.1520 H       
  45 H45           -0.3214     6.2958    -1.2077 H       
  46 H46            1.0166     6.3962     0.8628 H       
  47 H47            3.3906     5.8632    -0.9825 H       
  48 H48            3.4732     6.1888     0.7662 H       
  49 H49            2.1303     4.1593     1.2147 H       
  50 H50            3.5970     3.7515     0.2928 H       
  51 H51            5.8510    -6.2458    -0.4202 H       
  52 H52            5.3590    -6.1562     1.2880 H       
  53 H53            4.1573    -6.5496     0.0353 H       
  54 H54            2.7260    10.2698    -2.2062 H       
  55 H55            0.4099     8.1990     2.1101 H       
  56 H56           -0.0269    10.4253     3.0623 H       
  57 H57            0.6646    12.4490     1.8480 H       
  58 H58            1.7990    12.2619    -0.3272 H       
@<TRIPOS>BOND
   1    1    2 ar
   2    1    6 ar
   3    2    3 ar
   4    2   34 1
   5    3    4 ar
   6    4    5 ar
   7    4    8 1
   8    5    6 ar
   9    5   10 1
  10    6    7 1
  11    7   18 1
  12    7   22 1
  13    8    9 1
  14    8   11 1
  15    9   10 2
  16   10   35 1
  17   11   12 ar
  18   11   16 ar
  19   12   13 ar
  20   12   36 1
  21   13   14 ar
  22   13   37 1
  23   14   15 ar
  24   14   23 1
  25   15   16 ar
  26   15   38 1
  27   16   17 1
  28   17   39 1
  29   17   40 1
  30   17   41 1
  31   18   19 1
  32   18   42 1
  33   18   43 1
  34   19   20 1
  35   19   44 1
  36   19   45 1
  37   20   21 1
  38   20   24 1
  39   20   46 1
  40   21   22 1
  41   21   47 1
  42   21   48 1
  43   22   49 1
  44   22   50 1
  45   23   51 1
  46   23   52 1
  47   23   53 1
  48   24   25 1
  49   24   28 am
  50   25   26 ar
  51   25   30 ar
  52   26   27 1
  53   26   33 ar
  54   27   28 am
  55   27   54 1
  56   28   29 2
  57   30   31 ar
  58   30   55 1
  59   31   32 ar
  60   31   56 1
  61   32   33 ar
  62   32   57 1
  63   33   58 1

#	End of record

