#	Name: ASD08170247
#	Creating user name:	WinNT
#	Creation time:	15. 06. 2019 21:17

#	Modifying user name:	WinNT
#	Modification time:	15. 06. 2019 21:17

#	Program:	/corina/corina34_cracker 3.40 0067  02.08.2006

@<TRIPOS>MOLECULE
ASD08170247
  67   72    0    0    0
SMALL
NO_CHARGES


@<TRIPOS>ATOM
   1 N1            -0.0150     1.2583     0.0090 N.2     
   2 N2             0.0021    -0.0041     0.0020 N.2     
   3 C3             1.1271     1.8769     0.0014 C.2     
   4 S4             2.3826     0.7116    -0.0169 S.3     
   5 C5             1.1681    -0.5677    -0.0121 C.2     
   6 C6             1.4387    -2.0502    -0.0217 C.3     
   7 C7             1.5173    -2.5450    -1.4674 C.3     
   8 C8             2.1718    -6.2170    -3.4310 C.3     
   9 C9             2.2195    -6.5434    -4.9015 C.2     
  10 N10            3.2727    -6.5215    -5.6551 N.2     
  11 S11            0.8525    -7.0314    -5.9038 S.3     
  12 C12            1.9042    -7.1394    -7.2517 C.2     
  13 N13            3.1057    -6.8287    -6.8682 N.2     
  14 N14            1.5340    -7.5046    -8.5415 N.am    
  15 C15            2.4593    -7.5523    -9.5203 C.2     
  16 O16            3.6149    -7.2766    -9.2761 O.2     
  17 C17            2.0581    -7.9480   -10.9179 C.3     
  18 N18            1.3017     3.2566     0.0071 N.am    
  19 C19            0.2284     4.0717     0.0222 C.2     
  20 C20            0.4176     5.5667     0.0285 C.3     
  21 O21           -0.8897     3.6019     0.0309 O.2     
  22 C22            1.9004    -4.7224    -3.2489 C.3     
  23 C23            0.0279     6.3229     1.3002 C.3     
  24 C24           -0.8400     6.4379     0.0454 C.3     
  25 C25           -0.7957     7.7386    -0.7144 C.ar    
  26 C26           -1.6858     7.9664    -1.7472 C.ar    
  27 C27            0.1312     8.7062    -0.3748 C.ar    
  28 C28            0.1718     9.8994    -1.0717 C.ar    
  29 C29           -0.7142    10.1247    -2.1085 C.ar    
  30 C30           -1.6452     9.1595    -2.4442 C.ar    
  31 C31            3.1546    -7.9832   -11.9844 C.3     
  32 C32            2.5687    -9.2900   -11.4462 C.3     
  33 C33            2.7763    -7.5757   -13.3851 C.ar    
  34 C34            3.4098    -6.5055   -13.9886 C.ar    
  35 C35            3.0627    -6.1318   -15.2734 C.ar    
  36 C36            2.0824    -6.8286   -15.9549 C.ar    
  37 C37            1.4495    -7.8993   -15.3517 C.ar    
  38 C38            1.7997    -8.2758   -14.0685 C.ar    
  39 S39            1.8430    -4.3295    -1.4789 S.3     
  40 H40            2.3840    -2.2503     0.4827 H       
  41 H41            0.6331    -2.5700     0.4969 H       
  42 H42            0.5720    -2.3449    -1.9718 H       
  43 H43            2.3230    -2.0252    -1.9860 H       
  44 H44            1.3758    -6.7912    -2.9570 H       
  45 H45            3.1267    -6.4716    -2.9712 H       
  46 H46            0.6097    -7.7250    -8.7368 H       
  47 H47            1.0632    -7.6298   -11.2293 H       
  48 H48            2.1959     3.6323     0.0002 H       
  49 H49            1.2773     5.9341    -0.5320 H       
  50 H50            2.6965    -4.1481    -3.7229 H       
  51 H51            0.9455    -4.4678    -3.7088 H       
  52 H52           -0.3654     5.7389     2.1323 H       
  53 H53            0.6309     7.1879     1.5761 H       
  54 H54           -1.8042     5.9297     0.0521 H       
  55 H55           -2.4127     7.2120    -2.0099 H       
  56 H56            0.8235     8.5302     0.4353 H       
  57 H57            0.8956    10.6556    -0.8059 H       
  58 H58           -0.6827    11.0570    -2.6528 H       
  59 H59           -2.3375     9.3355    -3.2542 H       
  60 H60            4.1662    -7.7200   -11.6751 H       
  61 H61            3.1948    -9.8867   -10.7828 H       
  62 H62            1.9096    -9.8552   -12.1052 H       
  63 H63            4.1757    -5.9612   -13.4561 H       
  64 H64            3.5572    -5.2952   -15.7446 H       
  65 H65            1.8107    -6.5361   -16.9584 H       
  66 H66            0.6834    -8.4435   -15.8840 H       
  67 H67            1.3052    -9.1123   -13.5973 H       
@<TRIPOS>BOND
   1    1    2 1
   2    1    3 2
   3    2    5 2
   4    3    4 1
   5    3   18 1
   6    4    5 1
   7    5    6 1
   8    6    7 1
   9    6   40 1
  10    6   41 1
  11    7   39 1
  12    7   42 1
  13    7   43 1
  14    8    9 1
  15    8   22 1
  16    8   44 1
  17    8   45 1
  18    9   10 2
  19    9   11 1
  20   10   13 1
  21   11   12 1
  22   12   13 2
  23   12   14 1
  24   14   15 am
  25   14   46 1
  26   15   16 2
  27   15   17 1
  28   17   31 1
  29   17   32 1
  30   17   47 1
  31   18   19 am
  32   18   48 1
  33   19   21 2
  34   19   20 1
  35   20   23 1
  36   20   24 1
  37   20   49 1
  38   22   39 1
  39   22   50 1
  40   22   51 1
  41   23   24 1
  42   23   52 1
  43   23   53 1
  44   24   25 1
  45   24   54 1
  46   25   26 ar
  47   25   27 ar
  48   26   30 ar
  49   26   55 1
  50   27   28 ar
  51   27   56 1
  52   28   29 ar
  53   28   57 1
  54   29   30 ar
  55   29   58 1
  56   30   59 1
  57   31   32 1
  58   31   33 1
  59   31   60 1
  60   32   61 1
  61   32   62 1
  62   33   34 ar
  63   33   38 ar
  64   34   35 ar
  65   34   63 1
  66   35   36 ar
  67   35   64 1
  68   36   37 ar
  69   36   65 1
  70   37   38 ar
  71   37   66 1
  72   38   67 1

#	End of record

