#	Name: ASD01913983
#	Creating user name:	WinNT
#	Creation time:	15. 06. 2019 20:02

#	Modifying user name:	WinNT
#	Modification time:	15. 06. 2019 20:02

#	Program:	/corina/corina34_cracker 3.40 0067  02.08.2006

@<TRIPOS>MOLECULE
ASD01913983
  38   41    0    0    0
SMALL
NO_CHARGES


@<TRIPOS>ATOM
   1 N1            -0.0540     1.2930     0.0095 N.2     
   2 N2            -0.0587     0.0061     0.0605 N.pl3   
   3 C3             1.1984    -0.4496     0.2956 C.2     
   4 C4             2.0055     0.6512     0.3948 C.2     
   5 C5             1.1677     1.7599     0.2037 C.2     
   6 C6             3.4839     0.6110     0.6602 C.3     
   7 C7             1.6694    -1.8419     0.4252 C.ar    
   8 C8             0.9086    -2.8944    -0.0792 C.ar    
   9 C9             1.3677    -4.1911     0.0334 C.ar    
  10 C10            2.5827    -4.4501     0.6446 C.ar    
  11 C11            3.3434    -3.4165     1.1545 C.ar    
  12 C12            2.8929    -2.1062     1.0577 C.ar    
  13 S13            3.8492    -0.7972     1.7464 S.3     
  14 C14            1.5734     3.1802     0.2173 C.2     
  15 O15            2.7366     3.4783     0.4076 O.2     
  16 N16            0.6541     4.1455     0.0188 N.am    
  17 C17           -1.2430    -0.8392    -0.1098 C.3     
  18 C18            1.0187     5.4923     0.1282 C.ar    
  19 C19            2.2766     5.9082    -0.2882 C.ar    
  20 C20            2.6342     7.2377    -0.1797 C.ar    
  21 C21            1.7396     8.1559     0.3439 C.ar    
  22 C22            0.4850     7.7433     0.7601 C.ar    
  23 C23            0.1212     6.4157     0.6481 C.ar    
  24 F24            2.0915     9.4560     0.4491 F       
  25 H25            4.0207     0.4945    -0.2813 H       
  26 H26            3.7928     1.5365     1.1461 H       
  27 H27           -0.0392    -2.6959    -0.5573 H       
  28 H28            0.7768    -5.0068    -0.3564 H       
  29 H29            2.9377    -5.4670     0.7233 H       
  30 H30            4.2900    -3.6274     1.6296 H       
  31 H31           -0.2603     3.9069    -0.2000 H       
  32 H32           -1.3620    -1.0900    -1.1638 H       
  33 H33           -1.1226    -1.7543     0.4701 H       
  34 H34           -2.1256    -0.3023     0.2378 H       
  35 H35            2.9747     5.1923    -0.6962 H       
  36 H36            3.6125     7.5615    -0.5031 H       
  37 H37           -0.2111     8.4610     1.1685 H       
  38 H38           -0.8590     6.0951     0.9687 H       
@<TRIPOS>BOND
   1    1    2 1
   2    1    5 2
   3    2    3 1
   4    2   17 1
   5    3    4 2
   6    3    7 1
   7    4    5 1
   8    4    6 1
   9    5   14 1
  10    6   13 1
  11    6   25 1
  12    6   26 1
  13    7    8 ar
  14    7   12 ar
  15    8    9 ar
  16    8   27 1
  17    9   10 ar
  18    9   28 1
  19   10   11 ar
  20   10   29 1
  21   11   12 ar
  22   11   30 1
  23   12   13 1
  24   14   15 2
  25   14   16 am
  26   16   18 1
  27   16   31 1
  28   17   32 1
  29   17   33 1
  30   17   34 1
  31   18   19 ar
  32   18   23 ar
  33   19   20 ar
  34   19   35 1
  35   20   21 ar
  36   20   36 1
  37   21   22 ar
  38   21   24 1
  39   22   23 ar
  40   22   37 1
  41   23   38 1

#	End of record

