#	Name: ASD02508367
#	Creating user name:	WinNT
#	Creation time:	15. 06. 2019 20:24

#	Modifying user name:	WinNT
#	Modification time:	15. 06. 2019 20:24

#	Program:	/corina/corina34_cracker 3.40 0067  02.08.2006

@<TRIPOS>MOLECULE
ASD02508367
  33   35    0    0    0
SMALL
NO_CHARGES


@<TRIPOS>ATOM
   1 C1             0.6248     1.5302     0.6609 C.2     
   2 C2             0.4672     0.1289     0.6615 C.2     
   3 C3             1.6094    -0.4076     0.1883 C.2     
   4 N4             2.4703     0.6128    -0.1058 N.pl3   
   5 C5             1.8576     1.7992     0.1875 C.2     
   6 C6             3.7589     0.4676    -0.6194 C.ar    
   7 C7             4.5471     1.5877    -0.8805 C.ar    
   8 N8             4.2560    -0.7399    -0.8621 N.ar    
   9 C9             5.4742    -0.8817    -1.3473 C.ar    
  10 N10            6.2431     0.1575    -1.6093 N.ar    
  11 C11            5.8178     1.3928    -1.3888 C.ar    
  12 S12            1.9368    -2.1269    -0.0150 S.o2    
  13 O13            1.6578    -2.4304    -1.3749 O.2     
  14 O14            3.1982    -2.3698     0.5925 O.2     
  15 N15            0.8174    -2.9491     0.8868 N.am    
  16 C16            0.7733    -2.7762     2.2728 C.ar    
  17 C17           -0.4440    -2.5737     2.9103 C.ar    
  18 C18            1.8995    -2.6414     4.3858 C.ar    
  19 C19            1.9461    -2.8122     3.0161 C.ar    
  20 Cl20           0.6312    -2.2187     6.7393 Cl      
  21 C21           -0.4847    -2.4035     4.2802 C.ar    
  22 C22            0.6859    -2.4341     5.0176 C.ar    
  23 Cl23           6.0824    -2.4795    -1.6489 Cl      
  24 H24           -0.1099     2.2556     0.9777 H       
  25 H25           -0.4087    -0.4151     0.9828 H       
  26 H26            2.2871     2.7820     0.0612 H       
  27 H27            4.1739     2.5833    -0.6907 H       
  28 H28            6.4548     2.2372    -1.6069 H       
  29 H29            0.1924    -3.5508     0.4530 H       
  30 H30           -1.3578    -2.5489     2.3352 H       
  31 H31            2.8110    -2.6697     4.9643 H       
  32 H32            2.8935    -2.9739     2.5235 H       
  33 H33           -1.4309    -2.2460     4.7764 H       
@<TRIPOS>BOND
   1    1    2 1
   2    1    5 2
   3    1   24 1
   4    2    3 2
   5    2   25 1
   6    3    4 1
   7    3   12 1
   8    4    5 1
   9    4    6 1
  10    5   26 1
  11    6    7 ar
  12    6    8 ar
  13    7   11 ar
  14    7   27 1
  15    8    9 ar
  16    9   10 ar
  17    9   23 1
  18   10   11 ar
  19   11   28 1
  20   12   13 2
  21   12   14 2
  22   12   15 am
  23   15   16 1
  24   15   29 1
  25   16   17 ar
  26   16   19 ar
  27   17   21 ar
  28   17   30 1
  29   18   19 ar
  30   18   22 ar
  31   18   31 1
  32   19   32 1
  33   20   22 1
  34   21   22 ar
  35   21   33 1

#	End of record

