#	Name: ASD01815886
#	Creating user name:	WinNT
#	Creation time:	15. 06. 2019 19:34

#	Modifying user name:	WinNT
#	Modification time:	15. 06. 2019 19:34

#	Program:	/corina/corina34_cracker 3.40 0067  02.08.2006

@<TRIPOS>MOLECULE
ASD01815886
  51   56    0    0    0
SMALL
NO_CHARGES


@<TRIPOS>ATOM
   1 C1             0.1064     1.4783     0.3822 C.ar    
   2 C2             0.0862     0.0932     0.3735 C.ar    
   3 C3             1.2565    -0.6271     0.2344 C.ar    
   4 C4             2.4729     0.0370     0.1013 C.ar    
   5 C5             2.4904     1.4412     0.1100 C.ar    
   6 C6             1.3031     2.1568     0.2509 C.ar    
   7 N7             3.6499    -0.6796    -0.0375 N.pl3   
   8 C8             4.8508    -0.0942    -0.1691 C.2     
   9 C9             4.9913     1.2715    -0.1751 C.2     
  10 C10            3.7896     2.1248    -0.0325 C.2     
  11 C11            6.1080     2.2036    -0.2951 C.2     
  12 N12            5.5737     3.4420    -0.2259 N.am    
  13 N13            4.1876     3.3644    -0.0690 N.2     
  14 C14            6.3032     4.6312    -0.3007 C.2     
  15 O15            7.2875     1.9207    -0.4301 O.2     
  16 C16            3.5814    -2.1430    -0.0404 C.3     
  17 C17            3.4356    -2.6363    -1.4569 C.ar    
  18 C18            4.5555    -2.7854    -2.2543 C.ar    
  19 C19            4.4250    -3.2369    -3.5531 C.ar    
  20 C20            3.1679    -3.5415    -4.0577 C.ar    
  21 C21            2.0455    -3.3911    -3.2545 C.ar    
  22 C22            2.1829    -2.9442    -1.9549 C.ar    
  23 N23            3.0322    -3.9995    -5.3756 N.pl3   
  24 C24            1.8727    -4.3298    -5.9880 C.2     
  25 F25            1.3218     3.5076     0.2596 F       
  26 F26            1.2209    -1.9777     0.2282 F       
  27 C27            2.1700    -4.7220    -7.2485 C.2     
  28 C28            3.5564    -4.6287    -7.4130 C.2     
  29 N29            4.0732    -4.1901    -6.2935 N.2     
  30 C30            7.6438     4.7491    -0.4527 C.2     
  31 C31            6.8543     6.7566    -0.3493 C.2     
  32 N32            7.9467     6.0552    -0.4785 N.2     
  33 N33            5.7997     5.9054    -0.2403 N.pl3   
  34 C34            4.3917     6.2789    -0.0845 C.3     
  35 H35           -0.8163     2.0295     0.4875 H       
  36 H36           -0.8538    -0.4285     0.4767 H       
  37 H37            5.7293    -0.7137    -0.2726 H       
  38 H38            4.4943    -2.5504     0.3940 H       
  39 H39            2.7229    -2.4677     0.5475 H       
  40 H40            5.5331    -2.5484    -1.8612 H       
  41 H41            5.2999    -3.3525    -4.1756 H       
  42 H42            1.0663    -3.6269    -3.6444 H       
  43 H43            1.3101    -2.8271    -1.3296 H       
  44 H44            0.8866    -4.2886    -5.5495 H       
  45 H45            1.4621    -5.0493    -7.9956 H       
  46 H46            4.1050    -4.8723    -8.3108 H       
  47 H47            8.3465     3.9333    -0.5377 H       
  48 H48            6.7968     7.8350    -0.3355 H       
  49 H49            4.1546     6.3674     0.9757 H       
  50 H50            4.2125     7.2342    -0.5779 H       
  51 H51            3.7606     5.5130    -0.5353 H       
@<TRIPOS>BOND
   1    1    2 ar
   2    1    6 ar
   3    1   35 1
   4    2    3 ar
   5    2   36 1
   6    3    4 ar
   7    3   26 1
   8    4    5 ar
   9    4    7 1
  10    5    6 ar
  11    5   10 1
  12    6   25 1
  13    7    8 1
  14    7   16 1
  15    8    9 2
  16    8   37 1
  17    9   10 1
  18    9   11 1
  19   10   13 2
  20   11   12 am
  21   11   15 2
  22   12   13 1
  23   12   14 1
  24   14   30 2
  25   14   33 1
  26   16   17 1
  27   16   38 1
  28   16   39 1
  29   17   18 ar
  30   17   22 ar
  31   18   19 ar
  32   18   40 1
  33   19   20 ar
  34   19   41 1
  35   20   21 ar
  36   20   23 1
  37   21   22 ar
  38   21   42 1
  39   22   43 1
  40   23   24 1
  41   23   29 1
  42   24   27 2
  43   24   44 1
  44   27   28 1
  45   27   45 1
  46   28   29 2
  47   28   46 1
  48   30   32 1
  49   30   47 1
  50   31   32 2
  51   31   33 1
  52   31   48 1
  53   33   34 1
  54   34   49 1
  55   34   50 1
  56   34   51 1

#	End of record

