#	Name: ASD01948292
#	Creating user name:	WinNT
#	Creation time:	15. 06. 2019 20:14

#	Modifying user name:	WinNT
#	Modification time:	15. 06. 2019 20:14

#	Program:	/corina/corina34_cracker 3.40 0067  02.08.2006

@<TRIPOS>MOLECULE
ASD01948292
  53   55    0    0    0
SMALL
NO_CHARGES


@<TRIPOS>ATOM
   1 C1             0.8979     5.5114    -0.3191 C.ar    
   2 C2             1.3490     6.4190    -1.2616 C.ar    
   3 C3             2.5521     6.2068    -1.9102 C.ar    
   4 C4             3.3084     5.0875    -1.6193 C.ar    
   5 C5             2.8603     4.1747    -0.6744 C.ar    
   6 C6             1.6498     4.3897    -0.0231 C.ar    
   7 N7             4.7143     1.9997    -2.2116 N.am    
   8 C8             4.7740     2.7772    -1.0930 C.2     
   9 N9             3.6240     3.0403    -0.3783 N.pl3   
  10 C10            5.8237     1.7298    -2.9240 C.2     
  11 C11            7.0616     2.2437    -2.5281 C.2     
  12 C12            7.1428     3.0332    -1.3982 C.2     
  13 C13            5.9817     3.3033    -0.6709 C.2     
  14 N14            6.0399     4.1057     0.4837 N.am    
  15 Br15           0.3178     7.9521    -1.6641 Br      
  16 F16            1.2102     3.5041     0.8975 F       
  17 C17            3.4273     1.4463    -2.6399 C.3     
  18 S18            7.4863     4.7441     0.9764 S.o2    
  19 O19            8.1723     5.0330    -0.2340 O.2     
  20 O20            7.1229     5.7807     1.8779 O.2     
  21 C21            8.3018     3.3872     1.8620 C.3     
  22 C22            8.3006     1.9377    -3.3295 C.3     
  23 C23            7.6587     2.9063     3.1644 C.3     
  24 C24            7.5806     2.0385     1.9067 C.3     
  25 C25            9.8294     3.3695     1.7800 C.3     
  26 C26           10.2597     3.1486     0.3284 C.3     
  27 O27           11.6789     2.9923     0.2708 O.3     
  28 O28            9.4283     2.5734    -2.7244 O.3     
  29 C29           10.6612     2.3454    -3.4100 C.3     
  30 O30            5.7483     1.0304    -3.9232 O.2     
  31 H31           -0.0399     5.6818     0.1886 H       
  32 H32            2.9009     6.9169    -2.6454 H       
  33 H33            4.2472     4.9229    -2.1270 H       
  34 H34            3.3446     2.4388     0.3295 H       
  35 H35            8.0929     3.4366    -1.0806 H       
  36 H36            5.2327     4.2849     0.9910 H       
  37 H37            2.9001     2.1813    -3.2483 H       
  38 H38            3.5971     0.5436    -3.2267 H       
  39 H39            2.8269     1.2024    -1.7635 H       
  40 H40            8.4607     0.8598    -3.3535 H       
  41 H41            8.1765     2.3093    -4.3466 H       
  42 H42            8.3239     2.5770     3.9625 H       
  43 H43            6.7456     3.4053     3.4890 H       
  44 H44            6.6162     1.9666     1.4039 H       
  45 H45            8.1945     1.1383     1.8774 H       
  46 H46           10.2234     4.3219     2.1347 H       
  47 H47           10.2174     2.5620     2.4008 H       
  48 H48            9.7792     2.2508    -0.0603 H       
  49 H49            9.9641     4.0083    -0.2730 H       
  50 H50           12.0228     2.8481    -0.6214 H       
  51 H51           11.4677     2.8609    -2.8885 H       
  52 H52           10.8703     1.2760    -3.4357 H       
  53 H53           10.5860     2.7255    -4.4288 H       
@<TRIPOS>BOND
   1    1    2 ar
   2    1    6 ar
   3    1   31 1
   4    2    3 ar
   5    2   15 1
   6    3    4 ar
   7    3   32 1
   8    4    5 ar
   9    4   33 1
  10    5    6 ar
  11    5    9 1
  12    6   16 1
  13    7    8 1
  14    7   10 am
  15    7   17 1
  16    8    9 1
  17    8   13 2
  18    9   34 1
  19   10   11 1
  20   10   30 2
  21   11   12 2
  22   11   22 1
  23   12   13 1
  24   12   35 1
  25   13   14 1
  26   14   18 am
  27   14   36 1
  28   17   37 1
  29   17   38 1
  30   17   39 1
  31   18   19 2
  32   18   20 2
  33   18   21 1
  34   21   23 1
  35   21   25 1
  36   21   24 1
  37   22   28 1
  38   22   40 1
  39   22   41 1
  40   23   24 1
  41   23   42 1
  42   23   43 1
  43   24   44 1
  44   24   45 1
  45   25   26 1
  46   25   46 1
  47   25   47 1
  48   26   27 1
  49   26   48 1
  50   26   49 1
  51   27   50 1
  52   28   29 1
  53   29   51 1
  54   29   52 1
  55   29   53 1

#	End of record

