#	Name: ASD01200099
#	Creating user name:	WinNT
#	Creation time:	15. 06. 2019 19:08

#	Modifying user name:	WinNT
#	Modification time:	15. 06. 2019 19:08

#	Program:	/corina/corina34_cracker 3.40 0067  02.08.2006

@<TRIPOS>MOLECULE
ASD01200099
  57   60    0    0    0
SMALL
NO_CHARGES


@<TRIPOS>ATOM
   1 C1             0.9573     1.6849    -0.2636 C.2     
   2 C2             0.2493     0.3693    -0.0663 C.3     
   3 O3             2.1683     1.7195    -0.3199 O.2     
   4 N4             0.2444     2.8225    -0.3832 N.am    
   5 C5             0.9326     4.1015    -0.5751 C.3     
   6 C6            -1.2187     2.7800    -0.3213 C.3     
   7 C7             3.9669    -4.1551    -1.2473 C.2     
   8 N8             4.0021    -3.8045     0.0145 N.2     
   9 C9             3.1432    -2.7789     0.2266 C.ar    
  10 C10            2.5369    -2.4825    -1.0077 C.ar    
  11 N11            3.0751    -3.3670    -1.9228 N.pl3   
  12 C12            2.7947    -2.0376     1.3606 C.ar    
  13 C13            1.8616    -1.0256     1.2566 C.ar    
  14 C14            1.2662    -0.7387     0.0309 C.ar    
  15 C15            1.6004    -1.4617    -1.0937 C.ar    
  16 C16            4.7750    -5.2371    -1.8526 C.ar    
  17 C17            5.6567    -5.9691    -1.0581 C.ar    
  18 C18            6.4054    -6.9783    -1.6388 C.ar    
  19 C19            6.2481    -7.2229    -2.9955 C.ar    
  20 C20            5.3548    -6.4576    -3.7242 C.ar    
  21 N21            4.6507    -5.5067    -3.1466 N.ar    
  22 O22            1.5216    -0.3047     2.3579 O.3     
  23 C23            2.2016    -0.5413     3.5103 C.ar    
  24 C24            3.3663     0.1605     3.7867 C.ar    
  25 C25            4.0554    -0.0817     4.9591 C.ar    
  26 C26            3.5858    -1.0228     5.8567 C.ar    
  27 C27            2.4254    -1.7235     5.5837 C.ar    
  28 C28            1.7294    -1.4811     4.4154 C.ar    
  29 S29            4.4678    -1.3301     7.3507 S.o2    
  30 O30            4.1258    -2.6667     7.6911 O.2     
  31 O31            5.8088    -0.9720     7.0460 O.2     
  32 C32            3.7540    -0.1665     8.5453 C.3     
  33 C33            4.4453    -0.3376     9.8995 C.3     
  34 H34           -0.3367     0.4062     0.8521 H       
  35 H35           -0.4122     0.1822    -0.9121 H       
  36 H36            2.0096     3.9351    -0.5951 H       
  37 H37            0.6161     4.5464    -1.5185 H       
  38 H38            0.6841     4.7745     0.2455 H       
  39 H39           -1.5423     2.9011     0.7125 H       
  40 H40           -1.6316     3.5859    -0.9281 H       
  41 H41           -1.5708     1.8213    -0.7023 H       
  42 H42            2.8613    -3.4192    -2.8675 H       
  43 H43            3.2536    -2.2562     2.3134 H       
  44 H44            1.1347    -1.2337    -2.0411 H       
  45 H45            5.7544    -5.7515    -0.0047 H       
  46 H46            7.0968    -7.5620    -1.0491 H       
  47 H47            6.8179    -8.0030    -3.4784 H       
  48 H48            5.2302    -6.6457    -4.7804 H       
  49 H49            3.7339     0.8951     3.0856 H       
  50 H50            4.9620     0.4642     5.1747 H       
  51 H51            2.0610    -2.4583     6.2863 H       
  52 H52            0.8209    -2.0257     4.2046 H       
  53 H53            3.8988     0.8537     8.1898 H       
  54 H54            2.6879    -0.3656     8.6539 H       
  55 H55            4.0164     0.3616    10.6173 H       
  56 H56            4.3006    -1.3578    10.2550 H       
  57 H57            5.5115    -0.1385     9.7909 H       
@<TRIPOS>BOND
   1    1    2 1
   2    1    3 2
   3    1    4 am
   4    2   14 1
   5    2   34 1
   6    2   35 1
   7    4    5 1
   8    4    6 1
   9    5   36 1
  10    5   37 1
  11    5   38 1
  12    6   39 1
  13    6   40 1
  14    6   41 1
  15    7    8 2
  16    7   11 1
  17    7   16 1
  18    8    9 1
  19    9   10 ar
  20    9   12 ar
  21   10   11 1
  22   10   15 ar
  23   11   42 1
  24   12   13 ar
  25   12   43 1
  26   13   14 ar
  27   13   22 1
  28   14   15 ar
  29   15   44 1
  30   16   17 ar
  31   16   21 ar
  32   17   18 ar
  33   17   45 1
  34   18   19 ar
  35   18   46 1
  36   19   20 ar
  37   19   47 1
  38   20   21 ar
  39   20   48 1
  40   22   23 1
  41   23   24 ar
  42   23   28 ar
  43   24   25 ar
  44   24   49 1
  45   25   26 ar
  46   25   50 1
  47   26   27 ar
  48   26   29 1
  49   27   28 ar
  50   27   51 1
  51   28   52 1
  52   29   30 2
  53   29   31 2
  54   29   32 1
  55   32   33 1
  56   32   53 1
  57   32   54 1
  58   33   55 1
  59   33   56 1
  60   33   57 1

#	End of record

