#	Name: ASD01883563
#	Creating user name:	WinNT
#	Creation time:	15. 06. 2019 19:46

#	Modifying user name:	WinNT
#	Modification time:	15. 06. 2019 19:46

#	Program:	/corina/corina34_cracker 3.40 0067  02.08.2006

@<TRIPOS>MOLECULE
ASD01883563
  52   54    0    0    0
SMALL
NO_CHARGES


@<TRIPOS>ATOM
   1 C1            -0.0162     1.3458     0.0094 C.2     
   2 C2             0.0021    -0.0041     0.0020 C.2     
   3 N3             1.1768    -0.6877    -0.0124 N.am    
   4 C4             2.3579    -0.0427    -0.0202 C.2     
   5 C5             2.3947     1.3603    -0.0130 C.2     
   6 C6             1.2004     2.0648     0.0017 C.2     
   7 C7             1.1568    -2.1525    -0.0191 C.3     
   8 O8             3.3997    -0.6794    -0.0332 O.2     
   9 Cl9            3.9133     2.2014    -0.0218 Cl      
  10 C10            1.1998     3.5466     0.0092 C.ar    
  11 C11            0.6797     4.2519    -1.0755 C.ar    
  12 C12            0.6820     5.6317    -1.0629 C.ar    
  13 C13            1.1989     6.3154     0.0231 C.ar    
  14 C14            1.7163     5.6212     1.1021 C.ar    
  15 C15            1.7143     4.2413     1.1034 C.ar    
  16 C16            1.1361    -2.6557    -1.4639 C.3     
  17 C17            1.1152    -4.1855    -1.4709 C.3     
  18 C18            1.0945    -4.6887    -2.9156 C.3     
  19 C19            1.1988     7.8224     0.0305 C.3     
  20 C20            1.8208     8.3284     1.3356 C.3     
  21 C21            1.8885     9.8575     1.3003 C.3     
  22 O22            2.6446    10.2733     0.1612 O.3     
  23 C23            2.0848     9.8691    -1.0900 C.3     
  24 C24            2.0251     8.3406    -1.1507 C.3     
  25 C25           -0.2383     8.3347    -0.0840 C.3     
  26 O26           -0.8157     7.8651    -1.3039 O.3     
  27 H27           -0.9579     1.8746     0.0168 H       
  28 H28           -0.9305    -0.5488     0.0080 H       
  29 H29            2.0466    -2.5304     0.4845 H       
  30 H30            0.2669    -2.5062     0.5016 H       
  31 H31            0.2762     3.7193    -1.9240 H       
  32 H32            0.2797     6.1791    -1.9025 H       
  33 H33            2.1188     6.1603     1.9469 H       
  34 H34            2.1184     3.7004     1.9463 H       
  35 H35            0.2463    -2.2779    -1.9675 H       
  36 H36            2.0260    -2.3021    -1.9846 H       
  37 H37            2.0050    -4.5634    -0.9673 H       
  38 H38            0.2253    -4.5392    -0.9502 H       
  39 H39            1.9844    -4.3351    -3.4363 H       
  40 H40            1.0796    -5.7786    -2.9206 H       
  41 H41            0.2047    -4.3109    -3.4192 H       
  42 H42            1.2076     8.0103     2.1787 H       
  43 H43            2.8265     7.9217     1.4415 H       
  44 H44            0.8794    10.2645     1.2351 H       
  45 H45            2.3694    10.2211     2.2083 H       
  46 H46            1.0784    10.2764    -1.1864 H       
  47 H47            2.7072    10.2412    -1.9038 H       
  48 H48            3.0349     7.9341    -1.0950 H       
  49 H49            1.5579     8.0312    -2.0856 H       
  50 H50           -0.8231     7.9678     0.7596 H       
  51 H51           -0.2370     9.4247    -0.0785 H       
  52 H52           -1.7285     8.1522    -1.4431 H       
@<TRIPOS>BOND
   1    1    2 2
   2    1    6 1
   3    1   27 1
   4    2    3 1
   5    2   28 1
   6    3    4 am
   7    3    7 1
   8    4    5 1
   9    4    8 2
  10    5    6 2
  11    5    9 1
  12    6   10 1
  13    7   16 1
  14    7   29 1
  15    7   30 1
  16   10   11 ar
  17   10   15 ar
  18   11   12 ar
  19   11   31 1
  20   12   13 ar
  21   12   32 1
  22   13   14 ar
  23   13   19 1
  24   14   15 ar
  25   14   33 1
  26   15   34 1
  27   16   17 1
  28   16   35 1
  29   16   36 1
  30   17   18 1
  31   17   37 1
  32   17   38 1
  33   18   39 1
  34   18   40 1
  35   18   41 1
  36   19   20 1
  37   19   25 1
  38   19   24 1
  39   20   21 1
  40   20   42 1
  41   20   43 1
  42   21   22 1
  43   21   44 1
  44   21   45 1
  45   22   23 1
  46   23   24 1
  47   23   46 1
  48   23   47 1
  49   24   48 1
  50   24   49 1
  51   25   26 1
  52   25   50 1
  53   25   51 1
  54   26   52 1

#	End of record

