#	Name: ASD03330751
#	Creating user name:	WinNT
#	Creation time:	15. 06. 2019 20:37

#	Modifying user name:	WinNT
#	Modification time:	15. 06. 2019 20:37

#	Program:	/corina/corina34_cracker 3.40 0067  02.08.2006

@<TRIPOS>MOLECULE
ASD03330751
  66   68    0    0    0
SMALL
NO_CHARGES


@<TRIPOS>ATOM
   1 C1             0.4658     0.8282     0.3519 C.2     
   2 N2             0.6483    -0.5114     0.4214 N.pl3   
   3 C3             1.7003     1.3961     0.2809 C.2     
   4 N4             2.6121     0.3886     0.2913 N.2     
   5 C5             1.9825    -0.7495     0.3693 C.2     
   6 C6             2.6314    -2.1094     0.3968 C.3     
   7 C7             1.9942     2.8378     0.2061 C.2     
   8 O8             1.0841     3.6447     0.2041 O.2     
   9 C9             3.5638     4.6963     0.0656 C.3     
  10 N10            3.2715     3.2626     0.1399 N.am    
  11 C11            4.9231     4.9055    -0.6047 C.3     
  12 C12            3.5951     5.2753     1.4565 C.2     
  13 O13            3.3932     4.5609     2.4155 O.2     
  14 C14           -0.4192    -1.5085     0.5453 C.3     
  15 C15           -1.5212    -1.1950    -0.4712 C.3     
  16 C16           -2.5213    -0.2170     0.1374 C.3     
  17 N17           -1.8553     0.7170     1.0477 N.3     
  18 C18           -0.8631     1.5377     0.3375 C.3     
  19 C19            3.4420    -2.3137    -0.8846 C.3     
  20 C20            3.5601    -2.2070     1.6088 C.3     
  21 C21            4.2188    -3.5876     1.6367 C.3     
  22 C22            5.0295    -3.7919     0.3553 C.3     
  23 C23            4.1008    -3.6943    -0.8567 C.3     
  24 C24           -2.8346     1.5612     1.7450 C.3     
  25 N25            3.8475     6.5872     1.6348 N.am    
  26 C26            3.8780     7.1502     2.9869 C.3     
  27 C27            4.8617     4.4054    -2.0494 C.3     
  28 C28            3.8910     5.2760    -2.8497 C.3     
  29 C29            6.2549     4.4861    -2.6766 C.3     
  30 H30            1.8616    -2.8779     0.4661 H       
  31 H31            2.7901     5.1950    -0.5183 H       
  32 H32            3.9973     2.6191     0.1415 H       
  33 H33            5.1720     5.9667    -0.5979 H       
  34 H34            5.6863     4.3498    -0.0600 H       
  35 H35           -0.0147    -2.5014     0.3492 H       
  36 H36           -0.8333    -1.4754     1.5530 H       
  37 H37           -1.0769    -0.7514    -1.3623 H       
  38 H38           -2.0355    -2.1164    -0.7440 H       
  39 H39           -3.0040     0.3452    -0.6620 H       
  40 H40           -3.2780    -0.7755     0.6884 H       
  41 H41           -0.7661     2.5031     0.8343 H       
  42 H42           -1.1849     1.6878    -0.6930 H       
  43 H43            2.7804    -2.2441    -1.7481 H       
  44 H44            4.2118    -1.5451    -0.9540 H       
  45 H45            4.3299    -1.4384     1.5395 H       
  46 H46            2.9826    -2.0615     2.5217 H       
  47 H47            4.8804    -3.6571     2.5001 H       
  48 H48            3.4490    -4.3562     1.7060 H       
  49 H49            5.7993    -3.0233     0.2859 H       
  50 H50            5.4988    -4.7755     0.3751 H       
  51 H51            3.3309    -4.4629    -0.7874 H       
  52 H52            4.6783    -3.8398    -1.7696 H       
  53 H53           -3.5531     0.9289     2.2668 H       
  54 H54           -2.3192     2.1964     2.4654 H       
  55 H55           -3.3583     2.1845     1.0202 H       
  56 H56            4.0090     7.1586     0.8678 H       
  57 H57            4.0954     8.2168     2.9316 H       
  58 H58            2.9095     7.0011     3.4645 H       
  59 H59            4.6516     6.6515     3.5708 H       
  60 H60            4.5171     3.3714    -2.0616 H       
  61 H61            4.2356     6.3101    -2.8375 H       
  62 H62            3.8472     4.9197    -3.8789 H       
  63 H63            2.8984     5.2186    -2.4029 H       
  64 H64            6.5632     5.5294    -2.7440 H       
  65 H65            6.9644     3.9368    -2.0577 H       
  66 H66            6.2297     4.0495    -3.6750 H       
@<TRIPOS>BOND
   1    1    2 1
   2    1    3 2
   3    1   18 1
   4    2   14 1
   5    2    5 1
   6    3    4 1
   7    3    7 1
   8    4    5 2
   9    5    6 1
  10    6   20 1
  11    6   19 1
  12    6   30 1
  13    7    8 2
  14    7   10 am
  15    9   10 1
  16    9   11 1
  17    9   12 1
  18    9   31 1
  19   10   32 1
  20   11   27 1
  21   11   33 1
  22   11   34 1
  23   12   13 2
  24   12   25 am
  25   14   15 1
  26   14   35 1
  27   14   36 1
  28   15   16 1
  29   15   37 1
  30   15   38 1
  31   16   17 1
  32   16   39 1
  33   16   40 1
  34   17   18 1
  35   17   24 1
  36   18   41 1
  37   18   42 1
  38   19   23 1
  39   19   43 1
  40   19   44 1
  41   20   21 1
  42   20   45 1
  43   20   46 1
  44   21   22 1
  45   21   47 1
  46   21   48 1
  47   22   23 1
  48   22   49 1
  49   22   50 1
  50   23   51 1
  51   23   52 1
  52   24   53 1
  53   24   54 1
  54   24   55 1
  55   25   26 1
  56   25   56 1
  57   26   57 1
  58   26   58 1
  59   26   59 1
  60   27   28 1
  61   27   29 1
  62   27   60 1
  63   28   61 1
  64   28   62 1
  65   28   63 1
  66   29   64 1
  67   29   65 1
  68   29   66 1

#	End of record

