#	Name: ASD01940228
#	Creating user name:	WinNT
#	Creation time:	15. 06. 2019 20:12

#	Modifying user name:	WinNT
#	Modification time:	15. 06. 2019 20:12

#	Program:	/corina/corina34_cracker 3.40 0067  02.08.2006

@<TRIPOS>MOLECULE
ASD01940228
  41   43    0    0    0
SMALL
NO_CHARGES


@<TRIPOS>ATOM
   1 C1             1.0992     3.5123     6.4087 C.3     
   2 C2             5.7192     0.3713     8.5563 C.ar    
   3 F3             0.9649    -2.0911     3.9071 F       
   4 C4             0.4334    -0.8491     3.9167 C.ar    
   5 C5             1.2642     0.2627     3.8713 C.ar    
   6 C6             0.7110     1.5422     3.8809 C.ar    
   7 C7            -0.6658     1.6991     3.9357 C.ar    
   8 C8            -1.4882     0.5883     3.9812 C.ar    
   9 C9            -0.9415    -0.6835     3.9665 C.ar    
  10 N10            2.6550     0.0988     3.8164 N.pl3   
  11 N11            1.5445     2.6676     3.8357 N.am    
  12 C12            3.4124     0.1659     4.9871 C.ar    
  13 C13            2.7988     0.4802     6.1937 C.ar    
  14 C14            3.5448     0.5471     7.3514 C.ar    
  15 C15            4.9160     0.2992     7.3122 C.ar    
  16 C16            5.5318    -0.0163     6.1008 C.ar    
  17 C17            4.7814    -0.0879     4.9454 C.ar    
  18 F18            5.3762    -0.3938     3.7716 F       
  19 F19           -1.7498    -1.7653     4.0050 F       
  20 S20            1.1336     4.0364     4.6724 S.o2    
  21 O21           -0.1772     4.3443     4.2184 O.2     
  22 O22            2.2169     4.9266     4.4416 O.2     
  23 C23            7.0957     0.1261     8.5379 C.ar    
  24 C24            7.8051     0.2043     9.7183 C.ar    
  25 N25            7.2017     0.5053    10.8524 N.ar    
  26 C26            5.9054     0.7437    10.9134 C.ar    
  27 C27            5.1219     0.6921     9.7792 C.ar    
  28 H28            2.0827     3.1400     6.6954 H       
  29 H29            0.8341     4.3610     7.0392 H       
  30 H30            0.3603     2.7211     6.5349 H       
  31 H31           -1.0961     2.6896     3.9433 H       
  32 H32           -2.5600     0.7133     4.0242 H       
  33 H33            3.0913    -0.0612     2.9650 H       
  34 H34            2.3622     2.6450     3.3144 H       
  35 H35            1.7365     0.6727     6.2246 H       
  36 H36            3.0668     0.7918     8.2885 H       
  37 H37            6.5940    -0.2083     6.0682 H       
  38 H38            7.5959    -0.1211     7.6132 H       
  39 H39            8.8686     0.0162     9.7141 H       
  40 H40            5.4524     0.9863    11.8633 H       
  41 H41            4.0615     0.8888     9.8363 H       
@<TRIPOS>BOND
   1    1   20 1
   2    1   28 1
   3    1   29 1
   4    1   30 1
   5    2   23 ar
   6    2   15 1
   7    2   27 ar
   8    3    4 1
   9    4    5 ar
  10    4    9 ar
  11    5    6 ar
  12    5   10 1
  13    6    7 ar
  14    6   11 1
  15    7    8 ar
  16    7   31 1
  17    8    9 ar
  18    8   32 1
  19    9   19 1
  20   10   12 1
  21   10   33 1
  22   11   20 am
  23   11   34 1
  24   12   13 ar
  25   12   17 ar
  26   13   14 ar
  27   13   35 1
  28   14   15 ar
  29   14   36 1
  30   15   16 ar
  31   16   17 ar
  32   16   37 1
  33   17   18 1
  34   20   21 2
  35   20   22 2
  36   23   24 ar
  37   23   38 1
  38   24   25 ar
  39   24   39 1
  40   25   26 ar
  41   26   27 ar
  42   26   40 1
  43   27   41 1

#	End of record

