#	Name: ASD05430120
#	Creating user name:	WinNT
#	Creation time:	15. 06. 2019 20:59

#	Modifying user name:	WinNT
#	Modification time:	15. 06. 2019 20:59

#	Program:	/corina/corina34_cracker 3.40 0067  02.08.2006

@<TRIPOS>MOLECULE
ASD05430120
  63   68    0    0    0
SMALL
NO_CHARGES


@<TRIPOS>ATOM
   1 F1             9.5000     5.1470    -4.7844 F       
   2 C2             0.1425     1.2235    -0.9481 C.ar    
   3 C3             0.0191    -0.0128    -0.3147 C.ar    
   4 C4             1.0825    -0.5343     0.4109 C.ar    
   5 C5             2.2641     0.1676     0.5089 C.ar    
   6 C6             2.3951     1.4081    -0.1237 C.ar    
   7 C7             1.3249     1.9329    -0.8545 C.ar    
   8 C8             4.9377    -0.0067    -0.1065 C.3     
   9 C9             4.8270     1.5011     0.0679 C.2     
  10 C10            3.6566     2.1597    -0.0198 C.2     
  11 C11            6.1149    -0.3032    -1.0323 C.3     
  12 C12            7.4577     0.2452    -0.5648 C.3     
  13 N13            7.3173     1.6052    -0.0635 N.pl3   
  14 C14            6.1116     2.1848     0.3430 C.2     
  15 C15            8.6515     3.3114    -1.1988 C.ar    
  16 C16            9.1580     4.5976    -1.2134 C.ar    
  17 C17            9.4434     5.2148    -2.4166 C.ar    
  18 C18            9.2218     4.5444    -3.6076 C.ar    
  19 C19            8.7144     3.2563    -3.5917 C.ar    
  20 C20            8.4347     2.6391    -2.3872 C.ar    
  21 N21           -1.1808    -0.7305    -0.4103 N.pl3   
  22 C22           -1.3162    -2.0485    -0.7622 C.2     
  23 C23           -2.6330    -2.3286    -0.7262 C.2     
  24 N24           -3.2880    -1.2159    -0.3630 N.2     
  25 C25           -2.4288    -0.2531    -0.1660 C.2     
  26 C26           -3.2619    -3.6616    -1.0402 C.3     
  27 N27            6.3231     3.3030     0.9484 N.2     
  28 C28            8.3411     2.6393     0.1138 C.3     
  29 O29            7.7176     3.5670     1.0263 O.3     
  30 C30            9.6101     2.0435     0.7268 C.3     
  31 O31           10.5892     3.0718     0.8882 O.3     
  32 C32            6.1795    -1.7740    -1.4770 C.3     
  33 C33            6.4670    -1.2164    -2.8843 C.3     
  34 O34            5.8331    -0.0097    -2.4130 O.3     
  35 C35           -0.7022     2.9996    -2.2845 C.3     
  36 O36           -0.8984     1.7283    -1.6622 O.3     
  37 H37            0.9827    -1.4921     0.8999 H       
  38 H38            3.0890    -0.2400     1.0743 H       
  39 H39            1.4220     2.8903    -1.3448 H       
  40 H40            5.1069    -0.4759     0.8627 H       
  41 H41            4.0187    -0.3926    -0.5478 H       
  42 H42            3.6429     3.2396    -0.0141 H       
  43 H43            7.8476    -0.3910     0.2297 H       
  44 H44            8.1568     0.2420    -1.4010 H       
  45 H45            9.3304     5.1205    -0.2843 H       
  46 H46            9.8388     6.2198    -2.4278 H       
  47 H47            8.5412     2.7324    -4.5201 H       
  48 H48            8.0390     1.6343    -2.3746 H       
  49 H49           -0.5198    -2.7312    -1.0192 H       
  50 H50           -2.6703     0.7558     0.1343 H       
  51 H51           -3.3285    -4.2556    -0.1288 H       
  52 H52           -4.2614    -3.5052    -1.4460 H       
  53 H53           -2.6505    -4.1881    -1.7731 H       
  54 H54            9.3750     1.6099     1.6988 H       
  55 H55           10.0023     1.2684     0.0684 H       
  56 H56           11.4218     2.7652     1.2727 H       
  57 H57            7.0123    -2.3286    -1.0445 H       
  58 H58            5.2283    -2.3002    -1.3977 H       
  59 H59            7.5282    -1.1000    -3.1042 H       
  60 H60            5.9181    -1.7213    -3.6792 H       
  61 H61           -1.6073     3.2853    -2.8205 H       
  62 H62           -0.4801     3.7468    -1.5226 H       
  63 H63            0.1304     2.9366    -2.9851 H       
@<TRIPOS>BOND
   1    1   18 1
   2    2    3 ar
   3    2    7 ar
   4    2   36 1
   5    3    4 ar
   6    3   21 1
   7    4    5 ar
   8    4   37 1
   9    5    6 ar
  10    5   38 1
  11    6    7 ar
  12    6   10 1
  13    7   39 1
  14    8    9 1
  15    8   11 1
  16    8   40 1
  17    8   41 1
  18    9   10 2
  19    9   14 1
  20   10   42 1
  21   11   12 1
  22   11   32 1
  23   11   34 1
  24   12   13 1
  25   12   43 1
  26   12   44 1
  27   13   14 1
  28   13   28 1
  29   14   27 2
  30   15   16 ar
  31   15   28 1
  32   15   20 ar
  33   16   17 ar
  34   16   45 1
  35   17   18 ar
  36   17   46 1
  37   18   19 ar
  38   19   20 ar
  39   19   47 1
  40   20   48 1
  41   21   22 1
  42   21   25 1
  43   22   23 2
  44   22   49 1
  45   23   24 1
  46   23   26 1
  47   24   25 2
  48   25   50 1
  49   26   51 1
  50   26   52 1
  51   26   53 1
  52   27   29 1
  53   28   29 1
  54   28   30 1
  55   30   31 1
  56   30   54 1
  57   30   55 1
  58   31   56 1
  59   32   33 1
  60   32   57 1
  61   32   58 1
  62   33   34 1
  63   33   59 1
  64   33   60 1
  65   35   36 1
  66   35   61 1
  67   35   62 1
  68   35   63 1

#	End of record

