#	Name: ASD01917236
#	Creating user name:	WinNT
#	Creation time:	15. 06. 2019 20:08

#	Modifying user name:	WinNT
#	Modification time:	15. 06. 2019 20:08

#	Program:	/corina/corina34_cracker 3.40 0067  02.08.2006

@<TRIPOS>MOLECULE
ASD01917236
  41   44    0    0    0
SMALL
NO_CHARGES


@<TRIPOS>ATOM
   1 C1             0.1522     0.6867    -0.4934 C.ar    
   2 C2             0.3202    -0.6721    -0.3026 C.ar    
   3 C3             1.5844    -1.1891    -0.0902 C.ar    
   4 C4             2.6808    -0.3475    -0.0690 C.ar    
   5 C5             2.5130     1.0112    -0.2606 C.ar    
   6 C6             1.2485     1.5284    -0.4716 C.ar    
   7 C7             3.7082     1.9288    -0.2370 C.3     
   8 O8             4.2412     2.0508    -1.5572 O.3     
   9 C9             5.3311     2.8495    -1.7116 C.2     
  10 N10            5.9350     3.5176    -0.7505 N.2     
  11 N11            6.9989     4.2211    -1.3001 N.pl3   
  12 C12            7.0321     3.9432    -2.6482 C.2     
  13 C13            6.0005     3.0928    -2.9189 C.2     
  14 C14            7.9632     5.1278    -0.6745 C.3     
  15 C15            9.2807     5.0737    -1.4477 C.3     
  16 N16            9.0881     5.1625    -2.8908 N.am    
  17 C17            8.0723     4.5202    -3.5158 C.2     
  18 O18            8.0223     4.4254    -4.7275 O.2     
  19 C19            9.9760     5.9313    -3.6496 C.ar    
  20 C20           11.3000     5.5355    -3.7828 C.ar    
  21 C21           12.1757     6.2987    -4.5343 C.ar    
  22 C22           11.7316     7.4557    -5.1525 C.ar    
  23 C23           10.4133     7.8510    -5.0200 C.ar    
  24 C24            9.5334     7.0897    -4.2762 C.ar    
  25 F25           13.4646     5.9154    -4.6647 F       
  26 H26           -0.8350     1.0901    -0.6638 H       
  27 H27           -0.5364    -1.3297    -0.3192 H       
  28 H28            1.7156    -2.2506     0.0595 H       
  29 H29            3.6685    -0.7513     0.0977 H       
  30 H30            1.1174     2.5899    -0.6217 H       
  31 H31            3.4048     2.9113     0.1246 H       
  32 H32            4.4694     1.5170     0.4256 H       
  33 H33            5.7429     2.6873    -3.8862 H       
  34 H34            7.5717     6.1448    -0.6932 H       
  35 H35            8.1341     4.8217     0.3576 H       
  36 H36            9.9126     5.9012    -1.1251 H       
  37 H37            9.7864     4.1362    -1.2168 H       
  38 H38           11.6460     4.6334    -3.3003 H       
  39 H39           12.4164     8.0505    -5.7388 H       
  40 H40           10.0700     8.7539    -5.5030 H       
  41 H41            8.5040     7.3997    -4.1736 H       
@<TRIPOS>BOND
   1    1    2 ar
   2    1    6 ar
   3    1   26 1
   4    2    3 ar
   5    2   27 1
   6    3    4 ar
   7    3   28 1
   8    4    5 ar
   9    4   29 1
  10    5    6 ar
  11    5    7 1
  12    6   30 1
  13    7    8 1
  14    7   31 1
  15    7   32 1
  16    8    9 1
  17    9   10 2
  18    9   13 1
  19   10   11 1
  20   11   12 1
  21   11   14 1
  22   12   13 2
  23   12   17 1
  24   13   33 1
  25   14   15 1
  26   14   34 1
  27   14   35 1
  28   15   16 1
  29   15   36 1
  30   15   37 1
  31   16   17 am
  32   16   19 1
  33   17   18 2
  34   19   20 ar
  35   19   24 ar
  36   20   21 ar
  37   20   38 1
  38   21   22 ar
  39   21   25 1
  40   22   23 ar
  41   22   39 1
  42   23   24 ar
  43   23   40 1
  44   24   41 1

#	End of record

