#	Name: ASD02560062
#	Creating user name:	WinNT
#	Creation time:	15. 06. 2019 20:24

#	Modifying user name:	WinNT
#	Modification time:	15. 06. 2019 20:24

#	Program:	/corina/corina34_cracker 3.40 0067  02.08.2006

@<TRIPOS>MOLECULE
ASD02560062
  38   40    0    0    0
SMALL
NO_CHARGES


@<TRIPOS>ATOM
   1 C1            -0.0270     1.4247    -0.0129 C.ar    
   2 C2            -0.0246     0.0426    -0.0294 C.ar    
   3 C3             1.1733    -0.6469    -0.0437 C.ar    
   4 C4             2.3708     0.0461    -0.0416 C.ar    
   5 C5             2.3691     1.4293    -0.0251 C.ar    
   6 C6             1.1699     2.1188    -0.0107 C.ar    
   7 Cl7            3.8752    -0.8200    -0.0591 Cl      
   8 N8             3.7052     3.5641    -2.0299 N.ar    
   9 C9             4.1009     2.4536    -1.4420 C.ar    
  10 C10            3.6730     2.1848    -0.0223 C.3     
  11 C11            4.0618     3.8384    -3.2835 C.ar    
  12 C12            4.8633     2.9323    -3.9712 C.ar    
  13 C13            5.2589     1.7713    -3.3139 C.ar    
  14 N14            4.8596     1.5709    -2.0593 N.ar    
  15 N15            6.0579     0.8361    -3.9562 N.pl3   
  16 C16            6.5502    -0.2607    -3.2519 C.ar    
  17 C17            6.8939    -0.1267    -1.9101 C.ar    
  18 C18            7.3811    -1.2081    -1.2114 C.ar    
  19 C19            7.5300    -2.4422    -1.8512 C.ar    
  20 C20            7.1834    -2.5733    -3.1992 C.ar    
  21 C21            6.6919    -1.4890    -3.8905 C.ar    
  22 N22            3.6403     5.0093    -3.8944 N.pl3   
  23 Cl23           1.1667     3.8547     0.0094 Cl      
  24 C24            8.0369    -3.5691    -1.1277 C.1     
  25 N25            8.4390    -4.4632    -0.5537 N.1     
  26 H26           -0.9633     1.9629    -0.0061 H       
  27 H27           -0.9591    -0.4989    -0.0307 H       
  28 H28            1.1745    -1.7269    -0.0563 H       
  29 H29            3.5437     3.1308     0.5035 H       
  30 H30            4.4360     1.5908     0.4809 H       
  31 H31            5.1697     3.1247    -4.9888 H       
  32 H32            6.2736     0.9459    -4.8955 H       
  33 H33            6.7786     0.8269    -1.4164 H       
  34 H34            7.6482    -1.1033    -0.1702 H       
  35 H35            7.2975    -3.5251    -3.6967 H       
  36 H36            6.4239    -1.5896    -4.9319 H       
  37 H37            3.0815     5.6358    -3.4085 H       
  38 H38            3.9042     5.2020    -4.8077 H       
@<TRIPOS>BOND
   1    1    2 ar
   2    1    6 ar
   3    1   26 1
   4    2    3 ar
   5    2   27 1
   6    3    4 ar
   7    3   28 1
   8    4    5 ar
   9    4    7 1
  10    5    6 ar
  11    5   10 1
  12    6   23 1
  13    8    9 ar
  14    8   11 ar
  15    9   10 1
  16    9   14 ar
  17   10   29 1
  18   10   30 1
  19   11   12 ar
  20   11   22 1
  21   12   13 ar
  22   12   31 1
  23   13   14 ar
  24   13   15 1
  25   15   16 1
  26   15   32 1
  27   16   17 ar
  28   16   21 ar
  29   17   18 ar
  30   17   33 1
  31   18   19 ar
  32   18   34 1
  33   19   20 ar
  34   19   24 1
  35   20   21 ar
  36   20   35 1
  37   21   36 1
  38   22   37 1
  39   22   38 1
  40   24   25 3

#	End of record

