#	Name: ASD02408374
#	Creating user name:	WinNT
#	Creation time:	15. 06. 2019 20:21

#	Modifying user name:	WinNT
#	Modification time:	15. 06. 2019 20:21

#	Program:	/corina/corina34_cracker 3.40 0067  02.08.2006

@<TRIPOS>MOLECULE
ASD02408374
  28   29    0    0    0
SMALL
NO_CHARGES


@<TRIPOS>ATOM
   1 C1            -0.0355     0.4723    -0.4678 C.2     
   2 C2             0.0330     1.2666     0.7006 C.2     
   3 C3             1.2737     0.1661    -0.8294 C.2     
   4 N4             2.0845     0.7509     0.0813 N.pl3   
   5 N5             1.2887     1.4239     1.0145 N.2     
   6 C6             3.4846     0.6926     0.0889 C.ar    
   7 C7             4.1294    -0.5354     0.1532 C.ar    
   8 C8             5.5095    -0.5896     0.1606 C.ar    
   9 C9             6.2490     0.5776     0.1044 C.ar    
  10 C10            5.6097     1.8021     0.0403 C.ar    
  11 C11            4.2299     1.8625     0.0263 C.ar    
  12 C12            3.3243    -1.8078     0.2155 C.3     
  13 C13            3.5340     3.1973    -0.0441 C.3     
  14 N14            1.6697    -0.5928    -1.9139 N.pl3   
  15 C15           -1.2259     0.0566    -1.1464 C.1     
  16 N16           -2.1703    -0.2731    -1.6849 N.1     
  17 H17           -0.8098     1.6733     1.2397 H       
  18 H18            6.0116    -1.5444     0.2107 H       
  19 H19            7.3280     0.5327     0.1110 H       
  20 H20            6.1900     2.7119    -0.0035 H       
  21 H21            3.0872    -2.1376    -0.7960 H       
  22 H22            3.9031    -2.5795     0.7229 H       
  23 H23            2.4003    -1.6265     0.7645 H       
  24 H24            3.2856     3.4232    -1.0811 H       
  25 H25            2.6203     3.1624     0.5492 H       
  26 H26            4.1929     3.9717     0.3486 H       
  27 H27            1.0063    -1.0490    -2.4548 H       
  28 H28            2.6112    -0.6694    -2.1343 H       
@<TRIPOS>BOND
   1    1    2 1
   2    1    3 2
   3    1   15 1
   4    2    5 2
   5    2   17 1
   6    3    4 1
   7    3   14 1
   8    4    5 1
   9    4    6 1
  10    6    7 ar
  11    6   11 ar
  12    7    8 ar
  13    7   12 1
  14    8    9 ar
  15    8   18 1
  16    9   10 ar
  17    9   19 1
  18   10   11 ar
  19   10   20 1
  20   11   13 1
  21   12   21 1
  22   12   22 1
  23   12   23 1
  24   13   24 1
  25   13   25 1
  26   13   26 1
  27   14   27 1
  28   14   28 1
  29   15   16 3

#	End of record

