#	Name: ASD03091780
#	Creating user name:	WinNT
#	Creation time:	15. 06. 2019 20:31

#	Modifying user name:	WinNT
#	Modification time:	15. 06. 2019 20:31

#	Program:	/corina/corina34_cracker 3.40 0067  02.08.2006

@<TRIPOS>MOLECULE
ASD03091780
  33   35    0    0    0
SMALL
NO_CHARGES


@<TRIPOS>ATOM
   1 C1            -0.0124     1.4540    -0.0357 C.3     
   2 C2             0.0675    -0.0722    -0.1085 C.3     
   3 N3             0.7669    -0.5843     1.0768 N.3     
   4 C4             0.0403    -0.2476     2.3078 C.3     
   5 C5            -0.0409     1.2732     2.4546 C.3     
   6 C6             1.3762     1.8517     2.5291 C.3     
   7 N7             2.0560     1.6017     1.2509 N.am    
   8 C8             1.4053     2.0344     0.0067 C.3     
   9 C9             3.2546     0.9861     1.2201 C.2     
  10 O10            3.7542     0.6803     0.1537 O.2     
  11 C11            3.9574     0.6846     2.4734 C.2     
  12 C12            5.1167    -0.0701     2.6024 C.2     
  13 C13           -0.7600     1.8622     1.2372 C.3     
  14 O14            3.5979     1.0944     3.7046 O.3     
  15 C15            4.4698     0.6321     4.6097 C.2     
  16 C16            5.4219    -0.0891     3.9856 C.2     
  17 C17            5.8539    -0.7019     1.5498 C.1     
  18 N18            6.4387    -1.2030     0.7147 N.1     
  19 H19           -0.5368     1.8346    -0.9122 H       
  20 H20           -0.9398    -0.4873    -0.1435 H       
  21 H21            0.6121    -0.3650    -1.0062 H       
  22 H22            0.9169    -1.5796     1.0063 H       
  23 H23           -0.9666    -0.6621     2.2600 H       
  24 H24            0.5653    -0.6677     3.1657 H       
  25 H25           -0.5860     1.5237     3.3646 H       
  26 H26            1.3237     2.9251     2.7114 H       
  27 H27            1.9264     1.3682     3.3364 H       
  28 H28            1.9746     1.6712    -0.8489 H       
  29 H29            1.3555     3.1229    -0.0202 H       
  30 H30           -0.7785     2.9492     1.3160 H       
  31 H31           -1.7807     1.4817     1.1979 H       
  32 H32            4.4194     0.8114     5.6735 H       
  33 H33            6.2593    -0.5870     4.4517 H       
@<TRIPOS>BOND
   1    1    2 1
   2    1    8 1
   3    1   13 1
   4    1   19 1
   5    2    3 1
   6    2   20 1
   7    2   21 1
   8    3    4 1
   9    3   22 1
  10    4    5 1
  11    4   23 1
  12    4   24 1
  13    5    6 1
  14    5   13 1
  15    5   25 1
  16    6    7 1
  17    6   26 1
  18    6   27 1
  19    7    8 1
  20    7    9 am
  21    8   28 1
  22    8   29 1
  23    9   10 2
  24    9   11 1
  25   11   12 2
  26   11   14 1
  27   12   17 1
  28   12   16 1
  29   13   30 1
  30   13   31 1
  31   14   15 1
  32   15   16 2
  33   15   32 1
  34   16   33 1
  35   17   18 3

#	End of record

