#	Name: ASD08390027
#	Creating user name:	WinNT
#	Creation time:	15. 06. 2019 21:19

#	Modifying user name:	WinNT
#	Modification time:	15. 06. 2019 21:19

#	Program:	/corina/corina34_cracker 3.40 0067  02.08.2006

@<TRIPOS>MOLECULE
ASD08390027
  64   69    0    0    0
SMALL
NO_CHARGES


@<TRIPOS>ATOM
   1 N1             0.0356     1.3919    -0.3924 N.2     
   2 C2             0.0769    -0.0715    -0.2665 C.3     
   3 C3             1.4835    -0.3593     0.2950 C.3     
   4 N4             2.0778     0.9820     0.4221 N.pl3   
   5 C5             1.1555     1.9038    -0.0012 C.2     
   6 C6             3.4242     1.2803     0.9164 C.3     
   7 C7             1.3916    -1.0298     1.6415 C.ar    
   8 C8             1.4200     3.3608    -0.0093 C.ar    
   9 C9             1.0304     4.1370    -1.1004 C.ar    
  10 C10            1.2797     5.4942    -1.1021 C.ar    
  11 C11            1.9152     6.0850    -0.0246 C.ar    
  12 C12            2.3045     5.3201     1.0604 C.ar    
  13 C13            2.0547     3.9631     1.0767 C.ar    
  14 C14            1.5509    -2.3991     1.7440 C.ar    
  15 C15            1.1535    -0.2749     2.7747 C.ar    
  16 C16            1.0691    -0.8900     4.0098 C.ar    
  17 C17            1.2224    -2.2601     4.1116 C.ar    
  18 C18            1.4665    -3.0142     2.9791 C.ar    
  19 C19            4.4141     1.1496    -0.2123 C.ar    
  20 C20            4.6451     2.2196    -1.0565 C.ar    
  21 C21            5.5531     2.0996    -2.0919 C.ar    
  22 C22            6.2304     0.9098    -2.2828 C.ar    
  23 C23            6.0001    -0.1599    -1.4381 C.ar    
  24 C24            5.0953    -0.0386    -0.4001 C.ar    
  25 C25           -0.9987    -0.5564     0.7076 C.3     
  26 N26           -4.2546     0.9226    -0.1693 N.pl3   
  27 C27           -3.0644     0.9173     0.5058 C.2     
  28 C28           -2.3596    -0.1783     0.1821 C.2     
  29 C29           -3.1641    -0.9367    -0.7789 C.ar    
  30 C30           -2.9774    -2.1370    -1.4674 C.ar    
  31 C31           -3.9461    -2.5884    -2.3186 C.ar    
  32 C32           -5.1152    -1.8631    -2.5048 C.ar    
  33 C33           -5.3197    -0.6763    -1.8361 C.ar    
  34 C34           -4.3468    -0.1980    -0.9640 C.ar    
  35 C35           -0.0970    -0.7227    -1.6143 C.2     
  36 O36            0.5107    -1.7325    -1.8804 O.2     
  37 O37           -0.9272    -0.1809    -2.5193 O.3     
  38 H38            2.0581    -0.9700    -0.4015 H       
  39 H39            3.4507     2.2976     1.3069 H       
  40 H40            3.6835     0.5796     1.7101 H       
  41 H41            0.5349     3.6768    -1.9424 H       
  42 H42            0.9785     6.0964    -1.9465 H       
  43 H43            2.1085     7.1475    -0.0307 H       
  44 H44            2.8006     5.7869     1.8985 H       
  45 H45            2.3544     3.3679     1.9266 H       
  46 H46            1.7410    -2.9884     0.8591 H       
  47 H47            1.0337     0.7955     2.6953 H       
  48 H48            0.8838    -0.3002     4.8953 H       
  49 H49            1.1569    -2.7406     5.0766 H       
  50 H50            1.5863    -4.0846     3.0586 H       
  51 H51            4.1160     3.1492    -0.9073 H       
  52 H52            5.7331     2.9354    -2.7518 H       
  53 H53            6.9393     0.8158    -3.0922 H       
  54 H54            6.5290    -1.0896    -1.5875 H       
  55 H55            4.9153    -0.8743     0.2599 H       
  56 H56           -0.9361    -1.6399     0.8080 H       
  57 H57           -0.8432    -0.0917     1.6813 H       
  58 H58           -4.9339     1.6111    -0.0959 H       
  59 H59           -2.7400     1.6816     1.1964 H       
  60 H60           -2.0704    -2.7064    -1.3278 H       
  61 H61           -3.8011    -3.5167    -2.8512 H       
  62 H62           -5.8717    -2.2329    -3.1810 H       
  63 H63           -6.2323    -0.1192    -1.9879 H       
  64 H64           -1.0060    -0.6344    -3.3697 H       
@<TRIPOS>BOND
   1    1    2 1
   2    1    5 2
   3    2    3 1
   4    2   25 1
   5    2   35 1
   6    3    4 1
   7    3    7 1
   8    3   38 1
   9    4    5 1
  10    4    6 1
  11    5    8 1
  12    6   19 1
  13    6   39 1
  14    6   40 1
  15    7   14 ar
  16    7   15 ar
  17    8    9 ar
  18    8   13 ar
  19    9   10 ar
  20    9   41 1
  21   10   11 ar
  22   10   42 1
  23   11   12 ar
  24   11   43 1
  25   12   13 ar
  26   12   44 1
  27   13   45 1
  28   14   18 ar
  29   14   46 1
  30   15   16 ar
  31   15   47 1
  32   16   17 ar
  33   16   48 1
  34   17   18 ar
  35   17   49 1
  36   18   50 1
  37   19   20 ar
  38   19   24 ar
  39   20   21 ar
  40   20   51 1
  41   21   22 ar
  42   21   52 1
  43   22   23 ar
  44   22   53 1
  45   23   24 ar
  46   23   54 1
  47   24   55 1
  48   25   28 1
  49   25   56 1
  50   25   57 1
  51   26   27 1
  52   26   34 1
  53   26   58 1
  54   27   28 2
  55   27   59 1
  56   28   29 1
  57   29   30 ar
  58   29   34 ar
  59   30   31 ar
  60   30   60 1
  61   31   32 ar
  62   31   61 1
  63   32   33 ar
  64   32   62 1
  65   33   34 ar
  66   33   63 1
  67   35   36 2
  68   35   37 1
  69   37   64 1

#	End of record

