#	Name: ASD06590059
#	Creating user name:	WinNT
#	Creation time:	15. 06. 2019 21:06

#	Modifying user name:	WinNT
#	Modification time:	15. 06. 2019 21:06

#	Program:	/corina/corina34_cracker 3.40 0067  02.08.2006

@<TRIPOS>MOLECULE
ASD06590059
 413  417    0    0    0
SMALL
NO_CHARGES


@<TRIPOS>ATOM
   1 C1            -0.3730    -2.3360     4.7297 C.2     
   2 O2            -0.3699    -3.5289     4.5108 O.2     
   3 N3             2.0450    -2.5380     4.7652 N.am    
   4 C4             0.9296    -1.5985     4.9042 C.3     
   5 C5             1.0451    -0.5081     3.8372 C.3     
   6 C6             2.3062     0.3207     4.0895 C.3     
   7 C7             2.4201     1.3948     3.0386 C.2     
   8 O8             1.5789     1.4878     2.1762 O.2     
   9 O9             3.4560     2.2481     3.0605 O.3     
  10 C10           -3.7618    -1.4062     3.8683 C.2     
  11 O11           -3.4332    -0.2557     3.6702 O.2     
  12 N12           -1.5413    -1.6689     4.8115 N.am    
  13 C13           -2.8013    -2.3610     4.5293 C.3     
  14 C14           -3.4079    -2.8699     5.8385 C.3     
  15 C15           -3.5119    -1.7141     6.8356 C.3     
  16 C16           -4.5506    -0.7056     6.3408 C.3     
  17 C17           -2.5155    -3.9675     6.4213 C.3     
  18 C18           -7.3518    -1.3945     3.1796 C.2     
  19 O19           -7.5216    -2.4504     3.7516 O.2     
  20 N20           -4.9859    -1.8309     3.4973 N.am    
  21 C21           -5.9546    -0.8807     2.9452 C.3     
  22 C22           -5.7147    -0.7230     1.4423 C.3     
  23 C23           -4.3438    -0.0850     1.2089 C.3     
  24 C24           -4.1039     0.0727    -0.2939 C.3     
  25 C25           -2.7330     0.7107    -0.5273 C.3     
  26 N26           -2.5026     0.8621    -1.9702 N.3     
  27 C27          -10.7002    -0.5983     1.9476 C.2     
  28 O28          -10.2702     0.1590     1.1034 O.2     
  29 N29           -8.4127    -0.6806     2.7537 N.am    
  30 C30           -9.7709    -1.1800     2.9816 C.3     
  31 C31          -10.2388    -0.7662     4.3782 C.3     
  32 C32           -9.3713    -1.4570     5.4323 C.3     
  33 C33           -9.8392    -1.0432     6.8290 C.3     
  34 C34           -8.9717    -1.7341     7.8830 C.3     
  35 N35           -9.4210    -1.3367     9.2240 N.3     
  36 C36          -14.3184    -0.3352     1.4978 C.2     
  37 O37          -14.5437    -0.7531     2.6139 O.2     
  38 N38          -12.0090    -0.9195     1.9610 N.am    
  39 C39          -12.9124    -0.3539     0.9558 C.3     
  40 C40          -12.8656    -1.2102    -0.3113 C.3     
  41 O41          -13.3839    -2.5111    -0.0264 O.3     
  42 C42          -17.6723     0.1431     0.1246 C.2     
  43 O43          -17.2687     0.1155    -1.0188 O.2     
  44 N44          -15.3255     0.1460     0.7424 N.am    
  45 C45          -16.6923     0.1642     1.2693 C.3     
  46 C46          -16.9027     1.4334     2.0974 C.3     
  47 C47          -16.0085     1.3960     3.3099 C.2     
  48 C48          -16.3443     0.9670     4.5367 C.2     
  49 N49          -15.2733     1.0820     5.3806 N.pl3   
  50 C50          -14.1947     1.6011     4.7000 C.ar    
  51 C51          -12.8905     1.9141     5.0682 C.ar    
  52 C52          -12.0215     2.4334     4.1335 C.ar    
  53 C53          -12.4339     2.6480     2.8258 C.ar    
  54 C54          -13.7109     2.3480     2.4425 C.ar    
  55 C55          -14.6062     1.8151     3.3716 C.ar    
  56 C56          -21.2519     0.7510    -0.2993 C.2     
  57 O57          -21.3723     1.1667     0.8336 O.2     
  58 N58          -18.9972     0.1549     0.3715 N.am    
  59 C59          -19.9498     0.1343    -0.7413 C.3     
  60 C60          -20.1927    -1.3117    -1.1782 C.3     
  61 O61          -20.8321    -2.0280    -0.1198 O.3     
  62 C62          -24.6726     0.9006    -1.5798 C.2     
  63 O63          -24.4394     0.0949    -2.4557 O.2     
  64 N64          -22.2826     0.8405    -1.1631 N.am    
  65 C65          -23.5484     1.4400    -0.7334 C.3     
  66 C66          -23.4733     2.9597    -0.8935 C.3     
  67 C67          -22.4157     3.5212     0.0589 C.3     
  68 C68          -22.3405     5.0410    -0.1012 C.3     
  69 N69          -21.3278     5.5786     0.8107 N.pl3   
  70 C70          -21.0816     6.9308     0.8444 C.2     
  71 N71          -21.7492     7.7344     0.0650 N.2     
  72 N72          -20.1312     7.4353     1.7001 N.pl3   
  73 C73          -28.1656     1.7799    -2.2035 C.2     
  74 O74          -28.0714     2.8212    -1.5889 O.2     
  75 N75          -25.9371     1.3137    -1.3634 N.am    
  76 C76          -27.0299     0.7894    -2.1863 C.3     
  77 C77          -27.5186    -0.5367    -1.6003 C.3     
  78 C78          -26.4196    -1.5634    -1.6958 C.2     
  79 C79          -26.2533    -2.4663    -2.6751 C.2     
  80 N80          -25.1463    -3.2299    -2.4228 N.pl3   
  81 C81          -24.5581    -2.8267    -1.2449 C.ar    
  82 C82          -23.4366    -3.2511    -0.5402 C.ar    
  83 C83          -23.0954    -2.6300     0.6415 C.ar    
  84 C84          -23.8600    -1.5833     1.1375 C.ar    
  85 C85          -24.9661    -1.1505     0.4616 C.ar    
  86 C86          -25.3266    -1.7613    -0.7408 C.ar    
  87 C87          -31.6819     1.7493    -3.2022 C.2     
  88 O88          -31.6806     0.5487    -3.3735 O.2     
  89 N89          -29.2859     1.5085    -2.9018 N.am    
  90 C90          -30.3899     2.4714    -2.9185 C.3     
  91 C91          -30.1394     3.5157    -4.0082 C.3     
  92 C92          -28.7697     4.1617    -3.7903 C.3     
  93 O93          -30.1695     2.8837    -5.2896 O.3     
  94 C94          -35.0665     2.7657    -4.1705 C.2     
  95 O95          -34.8930     3.9479    -3.9622 O.2     
  96 N96          -32.8388     2.4378    -3.2655 N.am    
  97 C97          -34.0772     1.7556    -3.6490 C.3     
  98 C98          -34.6678     1.0464    -2.4286 C.3     
  99 C99          -35.9627     0.3363    -2.8285 C.3     
 100 C100         -35.6406    -0.8071    -3.7927 C.3     
 101 C101         -36.6425    -0.2266    -1.5787 C.3     
 102 C102         -38.4696     2.6426    -5.4996 C.2     
 103 O103         -38.5729     1.4547    -5.2781 O.2     
 104 N104         -36.1441     2.3555    -4.8683 N.am    
 105 C105         -37.1415     3.3306    -5.3161 C.3     
 106 C106         -36.6958     3.9420    -6.6459 C.3     
 107 C107         -41.6856     3.3749    -7.0483 C.2     
 108 O108         -41.4070     4.4961    -7.4172 O.2     
 109 N109         -39.5427     3.3474    -5.9098 N.am    
 110 C110         -40.8570     2.7044    -5.9830 C.3     
 111 C111         -41.5633     2.8323    -4.6318 C.3     
 112 C112         -42.8773     2.0494    -4.6670 C.3     
 113 C113         -42.5773     0.5551    -4.8011 C.3     
 114 C114         -43.6548     2.2993    -3.3732 C.3     
 115 C115         -44.7404     4.0784    -7.8163 C.2     
 116 O116         -44.8190     3.9847    -6.6097 O.2     
 117 N117         -42.7364     2.7285    -7.5911 N.am    
 118 C118         -43.6033     3.4165    -8.5510 C.3     
 119 C119         -44.1634     2.4024    -9.5504 C.3     
 120 C120         -43.0392     1.8480   -10.3870 C.2     
 121 O121         -41.8972     2.1636   -10.1498 O.2     
 122 O122         -43.3064     1.0036   -11.3956 O.3     
 123 C123         -47.9484     5.5815    -8.7180 C.2     
 124 O124         -47.8687     5.1982    -9.8659 O.2     
 125 N125         -45.6701     4.7745    -8.5001 N.am    
 126 C126         -46.7755     5.4180    -7.7859 C.3     
 127 C127         -46.3274     6.7922    -7.2843 C.3     
 128 C128         -45.2361     6.6214    -6.2591 C.ar    
 129 C129         -43.9126     6.5915    -6.6569 C.ar    
 130 C130         -42.9116     6.4348    -5.7165 C.ar    
 131 C131         -43.2341     6.3084    -4.3783 C.ar    
 132 C132         -44.5576     6.3392    -3.9803 C.ar    
 133 C133         -45.5584     6.5002    -4.9203 C.ar    
 134 C134         -51.0865     7.4563    -8.7110 C.2     
 135 O135         -50.7778     8.0777    -7.7162 O.2     
 136 N136         -49.0858     6.1536    -8.2760 N.am    
 137 C137         -50.2259     6.3124    -9.1822 C.3     
 138 C138         -51.0515     5.0243    -9.1939 C.3     
 139 C139         -50.2165     3.8888    -9.7892 C.3     
 140 C140         -51.0421     2.6007    -9.8008 C.3     
 141 C141         -50.2071     1.4652   -10.3961 C.3     
 142 N142         -50.9997     0.2285   -10.4074 N.3     
 143 C143         -54.4461     8.7049    -9.4303 C.2     
 144 O144         -54.7250     7.7320   -10.0987 O.2     
 145 N145         -52.1991     7.7889    -9.3951 N.am    
 146 C146         -53.0357     8.9009    -8.9370 C.3     
 147 C147         -52.4812    10.2165    -9.4872 C.3     
 148 C148         -51.0978    10.4772    -8.8879 C.3     
 149 C149         -50.5433    11.7928    -9.4381 C.3     
 150 N150         -49.2187    12.0424    -8.8643 N.pl3   
 151 C151         -48.5201    13.1737    -9.2140 C.2     
 152 N152         -49.0363    14.0241   -10.0561 N.2     
 153 N153         -47.2770    13.4079    -8.6756 N.pl3   
 154 C154         -57.4602    10.7560    -9.6964 C.2     
 155 O155         -56.8663    11.7678    -9.3890 O.2     
 156 N156         -55.3975     9.6106    -9.1288 N.am    
 157 C157         -56.7686     9.4200    -9.6083 C.3     
 158 C158         -57.5281     8.5157    -8.6355 C.3     
 159 C159         -56.9001     7.1206    -8.6399 C.3     
 160 C160         -57.6596     6.2163    -7.6671 C.3     
 161 C161         -57.0316     4.8211    -7.6716 C.3     
 162 N162         -57.7608     3.9529    -6.7375 N.3     
 163 C163         -60.9006    11.9285   -10.0860 C.2     
 164 O164         -61.3558    10.8132    -9.9452 O.2     
 165 N165         -58.7388    10.8265   -10.1169 N.am    
 166 C166         -59.4111    12.1253   -10.2026 C.3     
 167 C167         -59.0869    12.7797   -11.5471 C.3     
 168 C168         -63.7461    12.4728   -11.3803 C.2     
 169 O169         -63.0182    12.4058   -12.3424 O.2     
 170 N170         -61.7270    12.9919   -10.1382 N.am    
 171 C171         -63.1750    12.8006   -10.0248 C.3     
 172 C172         -63.8192    14.0841    -9.4968 C.3     
 173 C173         -63.3331    14.3494    -8.0706 C.3     
 174 C174         -63.9773    15.6328    -7.5427 C.3     
 175 N175         -63.5118    15.8868    -6.1770 N.pl3   
 176 C176         -63.9588    16.9924    -5.4928 C.2     
 177 N177         -63.5447    17.2184    -4.2778 N.2     
 178 N178         -64.8427    17.8595    -6.0903 N.pl3   
 179 O179         -65.0633    12.2552   -11.5189 O.3     
 180 C180           3.2286    -2.2703     5.3515 C.2     
 181 O181           3.3703    -1.2516     5.9943 O.2     
 182 C182          21.0497    -6.3395     9.4794 C.3     
 183 C183          19.8848    -5.3583     9.6246 C.3     
 184 C184          18.6678    -5.8962     8.8693 C.3     
 185 C185          17.5028    -4.9151     9.0145 C.3     
 186 C186          16.2858    -5.4530     8.2592 C.3     
 187 C187          15.1209    -4.4718     8.4044 C.3     
 188 C188          13.9039    -5.0097     7.6490 C.3     
 189 C189          12.7389    -4.0286     7.7942 C.3     
 190 C190          11.5219    -4.5665     7.0389 C.3     
 191 C191          10.3570    -3.5853     7.1841 C.3     
 192 C192           9.1400    -4.1232     6.4288 C.3     
 193 C193           7.9750    -3.1420     6.5740 C.3     
 194 C194           6.7580    -3.6799     5.8186 C.3     
 195 C195           5.5931    -2.6988     5.9639 C.3     
 196 C196           4.3761    -3.2367     5.2085 C.3     
 197 H197           1.9318    -3.3527     4.2511 H       
 198 H198           0.9594    -1.1430     5.8940 H       
 199 H199           1.1047    -0.9692     2.8514 H       
 200 H200           0.1696     0.1395     3.8831 H       
 201 H201           2.2467     0.7819     5.0754 H       
 202 H202           3.1818    -0.3268     4.0436 H       
 203 H203           3.4860     2.9200     2.3657 H       
 204 H204          -1.5478    -0.7305     5.0571 H       
 205 H205          -2.6119    -3.2040     3.8648 H       
 206 H206          -4.4017    -3.2738     5.6456 H       
 207 H207          -3.8150    -2.1000     7.8089 H       
 208 H208          -2.5428    -1.2232     6.9252 H       
 209 H209          -5.4685    -1.2300     6.0753 H       
 210 H210          -4.7601     0.0169     7.1297 H       
 211 H211          -4.1633    -0.1851     5.4650 H       
 212 H212          -1.5548    -3.5404     6.7086 H       
 213 H213          -2.9975    -4.4002     7.2980 H       
 214 H214          -2.3587    -4.7440     5.6726 H       
 215 H215          -5.2254    -2.7656     3.5958 H       
 216 H216          -5.8358     0.0856     3.4354 H       
 217 H217          -5.7458    -1.7023     0.9647 H       
 218 H218          -6.4894    -0.0859     1.0156 H       
 219 H219          -4.3128     0.8943     1.6865 H       
 220 H220          -3.5692    -0.7221     1.6356 H       
 221 H221          -4.1350    -0.9066    -0.7715 H       
 222 H222          -4.8786     0.7098    -0.7206 H       
 223 H223          -2.7019     1.6900    -0.0497 H       
 224 H224          -1.9583     0.0736    -0.1006 H       
 225 H225          -1.6029     1.2817    -2.1507 H       
 226 H226          -2.5904    -0.0237    -2.4453 H       
 227 H227          -8.2769     0.1639     2.2962 H       
 228 H228          -9.7760    -2.2672     2.9040 H       
 229 H229         -10.1495     0.3148     4.4859 H       
 230 H230         -11.2795    -1.0601     4.5147 H       
 231 H231          -9.4607    -2.5380     5.3247 H       
 232 H232          -8.3306    -1.1631     5.2958 H       
 233 H233          -9.7499     0.0378     6.9366 H       
 234 H234         -10.8799    -1.3371     6.9654 H       
 235 H235          -9.0611    -2.8151     7.7754 H       
 236 H236          -7.9310    -1.4401     7.7465 H       
 237 H237          -8.8632    -1.7802     9.9384 H       
 238 H238          -9.4088    -0.3331     9.3268 H       
 239 H239         -12.3529    -1.5251     2.6361 H       
 240 H240         -12.6008     0.6633     0.7186 H       
 241 H241         -13.4683    -0.7413    -1.0891 H       
 242 H242         -11.8343    -1.2969    -0.6534 H       
 243 H243         -13.3846    -3.1092    -0.7863 H       
 244 H244         -15.1453     0.4802    -0.1502 H       
 245 H245         -16.8506    -0.7111     1.8992 H       
 246 H246         -16.6584     2.3066     1.4925 H       
 247 H247         -17.9437     1.4913     2.4154 H       
 248 H248         -17.3160     0.5876     4.8165 H       
 249 H249         -15.2738     0.8347     6.3185 H       
 250 H250         -12.5602     1.7511     6.0834 H       
 251 H251         -11.0093     2.6761     4.4214 H       
 252 H252         -11.7402     3.0557     2.1054 H       
 253 H253         -14.0249     2.5180     1.4233 H       
 254 H254         -19.3200     0.1769     1.2859 H       
 255 H255         -19.5438     0.7032    -1.5777 H       
 256 H256         -20.8312    -1.3221    -2.0615 H       
 257 H257         -19.2395    -1.7852    -1.4133 H       
 258 H258         -21.0171    -2.9542    -0.3274 H       
 259 H259         -22.1864     0.5080    -2.0692 H       
 260 H260         -23.7307     1.1934     0.3126 H       
 261 H261         -23.2034     3.2039    -1.9209 H       
 262 H262         -24.4432     3.3982    -0.6586 H       
 263 H263         -22.6856     3.2770     1.0863 H       
 264 H264         -21.4458     3.0827    -0.1760 H       
 265 H265         -22.0706     5.2852    -1.1287 H       
 266 H266         -23.3104     5.4794     0.1337 H       
 267 H267         -20.8310     4.9806     1.3907 H       
 268 H268         -21.5755     8.6884     0.0888 H       
 269 H269         -19.6344     6.8373     2.2801 H       
 270 H270         -19.9575     8.3894     1.7239 H       
 271 H271         -26.1236     1.9582    -0.6629 H       
 272 H272         -26.6734     0.6277    -3.2036 H       
 273 H273         -27.7919    -0.3932    -0.5549 H       
 274 H274         -28.3883    -0.8823    -2.1591 H       
 275 H275         -26.8981    -2.5744    -3.5348 H       
 276 H276         -24.8238    -3.9482    -2.9893 H       
 277 H277         -22.8355    -4.0651    -0.9178 H       
 278 H278         -22.2244    -2.9613     1.1874 H       
 279 H279         -23.5787    -1.1072     2.0652 H       
 280 H280         -25.5565    -0.3357     0.8538 H       
 281 H281         -29.3612     0.6757    -3.3933 H       
 282 H282         -30.4553     2.9660    -1.9494 H       
 283 H283         -30.9138     4.2815    -3.9625 H       
 284 H284         -27.9954     3.3960    -3.8360 H       
 285 H285         -28.5913     4.9057    -4.5667 H       
 286 H286         -28.7468     4.6438    -2.8130 H       
 287 H287         -29.5056     2.1896    -5.4015 H       
 288 H288         -32.8515     3.3851    -3.0571 H       
 289 H289         -33.8624     1.0225    -4.4265 H       
 290 H290         -33.9531     0.3143    -2.0527 H       
 291 H291         -34.8806     1.7792    -1.6503 H       
 292 H292         -36.6304     1.0461    -3.3168 H       
 293 H293         -35.0300    -1.5518    -3.2820 H       
 294 H294         -36.5680    -1.2684    -4.1320 H       
 295 H295         -35.0942    -0.4157    -4.6508 H       
 296 H296         -36.8720     0.5881    -0.8918 H       
 297 H297         -37.5650    -0.7324    -1.8636 H       
 298 H298         -35.9748    -0.9364    -1.0904 H       
 299 H299         -36.2593     1.4146    -5.0740 H       
 300 H300         -37.2405     4.1183    -4.5691 H       
 301 H301         -36.5969     3.1544    -7.3929 H       
 302 H302         -37.4379     4.6675    -6.9791 H       
 303 H303         -35.7352     4.4397    -6.5132 H       
 304 H304         -39.4448     4.2803    -6.1566 H       
 305 H305         -40.7325     1.6500    -6.2295 H       
 306 H306         -40.9220     2.4306    -3.8472 H       
 307 H307         -41.7715     3.8827    -4.4286 H       
 308 H308         -43.4734     2.3781    -5.5183 H       
 309 H309         -42.0413     0.2113    -3.9165 H       
 310 H310         -43.5128     0.0038    -4.8962 H       
 311 H311         -41.9641     0.3856    -5.6862 H       
 312 H312         -43.8686     3.3639    -3.2776 H       
 313 H313         -44.5910     1.7416    -3.3983 H       
 314 H314         -43.0587     1.9706    -2.5219 H       
 315 H315         -42.9186     1.8078    -7.3462 H       
 316 H316         -43.0267     4.1721    -9.0847 H       
 317 H317         -44.6489     1.5898    -9.0099 H       
 318 H318         -44.8900     2.8934   -10.1977 H       
 319 H319         -42.5526     0.6744   -11.9040 H       
 320 H320         -45.6072     4.8495    -9.4652 H       
 321 H321         -47.0690     4.7995    -6.9377 H       
 322 H322         -45.9506     7.3795    -8.1216 H       
 323 H323         -47.1743     7.3075    -6.8310 H       
 324 H324         -43.6606     6.6903    -7.7024 H       
 325 H325         -41.8776     6.4107    -6.0274 H       
 326 H326         -42.4521     6.1852    -3.6436 H       
 327 H327         -44.8096     6.2401    -2.9348 H       
 328 H328         -46.5922     6.5280    -4.6090 H       
 329 H329         -49.1496     6.4601    -7.3580 H       
 330 H330         -49.8637     6.5210   -10.1889 H       
 331 H331         -51.3391     4.7679    -8.1743 H       
 332 H332         -51.9468     5.1721    -9.7977 H       
 333 H333         -49.9289     4.1453   -10.8088 H       
 334 H334         -49.3212     3.7411    -9.1853 H       
 335 H335         -51.3297     2.3442    -8.7812 H       
 336 H336         -51.9374     2.7485   -10.4047 H       
 337 H337         -49.9195     1.7217   -11.4157 H       
 338 H338         -49.3117     1.3175    -9.7923 H       
 339 H339         -50.4699    -0.5371   -10.7963 H       
 340 H340         -51.3330     0.0041    -9.4818 H       
 341 H341         -52.4460     7.2919   -10.1907 H       
 342 H342         -53.0329     8.9328    -7.8475 H       
 343 H343         -52.4008    10.1514   -10.5723 H       
 344 H344         -53.1522    11.0332    -9.2210 H       
 345 H345         -51.1782    10.5423    -7.8029 H       
 346 H346         -50.4268     9.6605    -9.1542 H       
 347 H347         -50.4629    11.7277   -10.5232 H       
 348 H348         -51.2143    12.6095    -9.1719 H       
 349 H349         -48.8345    11.4094    -8.2376 H       
 350 H350         -48.5435    14.8223   -10.3029 H       
 351 H351         -46.8928    12.7750    -8.0489 H       
 352 H352         -46.7841    14.2060    -8.9223 H       
 353 H353         -55.1744    10.3886    -8.5942 H       
 354 H354         -56.7474     8.9561   -10.5944 H       
 355 H355         -57.4733     8.9356    -7.6310 H       
 356 H356         -58.5712     8.4456    -8.9436 H       
 357 H357         -56.9548     6.7007    -9.6443 H       
 358 H358         -55.8569     7.1907    -8.3318 H       
 359 H359         -57.6048     6.6362    -6.6627 H       
 360 H360         -58.7027     6.1462    -7.9752 H       
 361 H361         -57.0863     4.4013    -8.6760 H       
 362 H362         -55.9884     4.8912    -7.3634 H       
 363 H363         -58.7436     3.9231    -6.9639 H       
 364 H364         -57.3649     3.0250    -6.7223 H       
 365 H365         -59.2138    10.0173   -10.3629 H       
 366 H366         -59.0650    12.7677    -9.3930 H       
 367 H367         -59.4330    12.1373   -12.3567 H       
 368 H368         -59.5871    13.7461   -11.6108 H       
 369 H369         -58.0095    12.9221   -11.6314 H       
 370 H370         -61.3630    13.8840   -10.2508 H       
 371 H371         -63.3804    11.9811    -9.3361 H       
 372 H372         -63.5402    14.9207   -10.1373 H       
 373 H373         -64.9035    13.9728    -9.4963 H       
 374 H374         -63.6121    13.5127    -7.4301 H       
 375 H375         -62.2488    14.4607    -8.0711 H       
 376 H376         -63.6982    16.4695    -8.1832 H       
 377 H377         -65.0616    15.5215    -7.5421 H       
 378 H378         -62.8881    15.2750    -5.7555 H       
 379 H379         -63.8601    17.9984    -3.7951 H       
 380 H380         -65.1509    17.6913    -6.9945 H       
 381 H381         -65.1581    18.6395    -5.6076 H       
 382 H382         -65.3830    12.0482   -12.4078 H       
 383 H383          21.2985    -6.4545     8.4244 H       
 384 H384          21.9167    -5.9563    10.0175 H       
 385 H385          20.7638    -7.3067     9.8928 H       
 386 H386          19.6359    -5.2434    10.6796 H       
 387 H387          20.1706    -4.3912     9.2112 H       
 388 H388          18.9166    -6.0112     7.8143 H       
 389 H389          18.3819    -6.8634     9.2827 H       
 390 H390          17.2540    -4.8001    10.0695 H       
 391 H391          17.7887    -3.9479     8.6011 H       
 392 H392          16.5347    -5.5680     7.2042 H       
 393 H393          15.9999    -6.4202     8.6726 H       
 394 H394          14.8720    -4.3568     9.4593 H       
 395 H395          15.4067    -3.5046     7.9910 H       
 396 H396          14.1527    -5.1247     6.5941 H       
 397 H397          13.6180    -5.9769     8.0624 H       
 398 H398          12.4901    -3.9136     8.8492 H       
 399 H399          13.0248    -3.0614     7.3808 H       
 400 H400          11.7708    -4.6815     5.9839 H       
 401 H401          11.2361    -5.5336     7.4523 H       
 402 H402          10.1081    -3.4703     8.2391 H       
 403 H403          10.6429    -2.6181     6.7707 H       
 404 H404           9.3888    -4.2382     5.3738 H       
 405 H405           8.8541    -5.0904     6.8422 H       
 406 H406           7.7262    -3.0270     7.6290 H       
 407 H407           8.2609    -2.1748     6.1606 H       
 408 H408           7.0069    -3.7949     4.7637 H       
 409 H409           6.4722    -4.6471     6.2320 H       
 410 H410           5.3443    -2.5838     7.0188 H       
 411 H411           5.8790    -1.7316     5.5505 H       
 412 H412           4.0902    -4.2039     5.6219 H       
 413 H413           4.6249    -3.3517     4.1536 H       
@<TRIPOS>BOND
   1    1    2 2
   2    1    4 1
   3    1   12 am
   4    3  180 am
   5    3    4 1
   6    3  197 1
   7    4    5 1
   8    4  198 1
   9    5    6 1
  10    5  199 1
  11    5  200 1
  12    6    7 1
  13    6  201 1
  14    6  202 1
  15    7    8 2
  16    7    9 1
  17    9  203 1
  18   10   11 2
  19   10   13 1
  20   10   20 am
  21   12   13 1
  22   12  204 1
  23   13   14 1
  24   13  205 1
  25   14   15 1
  26   14   17 1
  27   14  206 1
  28   15   16 1
  29   15  207 1
  30   15  208 1
  31   16  209 1
  32   16  210 1
  33   16  211 1
  34   17  212 1
  35   17  213 1
  36   17  214 1
  37   18   19 2
  38   18   21 1
  39   18   29 am
  40   20   21 1
  41   20  215 1
  42   21   22 1
  43   21  216 1
  44   22   23 1
  45   22  217 1
  46   22  218 1
  47   23   24 1
  48   23  219 1
  49   23  220 1
  50   24   25 1
  51   24  221 1
  52   24  222 1
  53   25   26 1
  54   25  223 1
  55   25  224 1
  56   26  225 1
  57   26  226 1
  58   27   28 2
  59   27   30 1
  60   27   38 am
  61   29   30 1
  62   29  227 1
  63   30   31 1
  64   30  228 1
  65   31   32 1
  66   31  229 1
  67   31  230 1
  68   32   33 1
  69   32  231 1
  70   32  232 1
  71   33   34 1
  72   33  233 1
  73   33  234 1
  74   34   35 1
  75   34  235 1
  76   34  236 1
  77   35  237 1
  78   35  238 1
  79   36   37 2
  80   36   39 1
  81   36   44 am
  82   38   39 1
  83   38  239 1
  84   39   40 1
  85   39  240 1
  86   40   41 1
  87   40  241 1
  88   40  242 1
  89   41  243 1
  90   42   43 2
  91   42   45 1
  92   42   58 am
  93   44   45 1
  94   44  244 1
  95   45   46 1
  96   45  245 1
  97   46   47 1
  98   46  246 1
  99   46  247 1
 100   47   48 2
 101   47   55 1
 102   48   49 1
 103   48  248 1
 104   49   50 1
 105   49  249 1
 106   50   51 ar
 107   50   55 ar
 108   51   52 ar
 109   51  250 1
 110   52   53 ar
 111   52  251 1
 112   53   54 ar
 113   53  252 1
 114   54   55 ar
 115   54  253 1
 116   56   57 2
 117   56   59 1
 118   56   64 am
 119   58   59 1
 120   58  254 1
 121   59   60 1
 122   59  255 1
 123   60   61 1
 124   60  256 1
 125   60  257 1
 126   61  258 1
 127   62   63 2
 128   62   65 1
 129   62   75 am
 130   64   65 1
 131   64  259 1
 132   65   66 1
 133   65  260 1
 134   66   67 1
 135   66  261 1
 136   66  262 1
 137   67   68 1
 138   67  263 1
 139   67  264 1
 140   68   69 1
 141   68  265 1
 142   68  266 1
 143   69   70 1
 144   69  267 1
 145   70   71 2
 146   70   72 1
 147   71  268 1
 148   72  269 1
 149   72  270 1
 150   73   74 2
 151   73   76 1
 152   73   89 am
 153   75   76 1
 154   75  271 1
 155   76   77 1
 156   76  272 1
 157   77   78 1
 158   77  273 1
 159   77  274 1
 160   78   79 2
 161   78   86 1
 162   79   80 1
 163   79  275 1
 164   80   81 1
 165   80  276 1
 166   81   82 ar
 167   81   86 ar
 168   82   83 ar
 169   82  277 1
 170   83   84 ar
 171   83  278 1
 172   84   85 ar
 173   84  279 1
 174   85   86 ar
 175   85  280 1
 176   87   88 2
 177   87   90 1
 178   87   96 am
 179   89   90 1
 180   89  281 1
 181   90   91 1
 182   90  282 1
 183   91   92 1
 184   91   93 1
 185   91  283 1
 186   92  284 1
 187   92  285 1
 188   92  286 1
 189   93  287 1
 190   94   95 2
 191   94   97 1
 192   94  104 am
 193   96   97 1
 194   96  288 1
 195   97   98 1
 196   97  289 1
 197   98   99 1
 198   98  290 1
 199   98  291 1
 200   99  100 1
 201   99  101 1
 202   99  292 1
 203  100  293 1
 204  100  294 1
 205  100  295 1
 206  101  296 1
 207  101  297 1
 208  101  298 1
 209  102  103 2
 210  102  105 1
 211  102  109 am
 212  104  105 1
 213  104  299 1
 214  105  106 1
 215  105  300 1
 216  106  301 1
 217  106  302 1
 218  106  303 1
 219  107  108 2
 220  107  110 1
 221  107  117 am
 222  109  110 1
 223  109  304 1
 224  110  111 1
 225  110  305 1
 226  111  112 1
 227  111  306 1
 228  111  307 1
 229  112  113 1
 230  112  114 1
 231  112  308 1
 232  113  309 1
 233  113  310 1
 234  113  311 1
 235  114  312 1
 236  114  313 1
 237  114  314 1
 238  115  116 2
 239  115  118 1
 240  115  125 am
 241  117  118 1
 242  117  315 1
 243  118  119 1
 244  118  316 1
 245  119  120 1
 246  119  317 1
 247  119  318 1
 248  120  121 2
 249  120  122 1
 250  122  319 1
 251  123  124 2
 252  123  126 1
 253  123  136 am
 254  125  126 1
 255  125  320 1
 256  126  127 1
 257  126  321 1
 258  127  128 1
 259  127  322 1
 260  127  323 1
 261  128  129 ar
 262  128  133 ar
 263  129  130 ar
 264  129  324 1
 265  130  131 ar
 266  130  325 1
 267  131  132 ar
 268  131  326 1
 269  132  133 ar
 270  132  327 1
 271  133  328 1
 272  134  135 2
 273  134  137 1
 274  134  145 am
 275  136  137 1
 276  136  329 1
 277  137  138 1
 278  137  330 1
 279  138  139 1
 280  138  331 1
 281  138  332 1
 282  139  140 1
 283  139  333 1
 284  139  334 1
 285  140  141 1
 286  140  335 1
 287  140  336 1
 288  141  142 1
 289  141  337 1
 290  141  338 1
 291  142  339 1
 292  142  340 1
 293  143  144 2
 294  143  146 1
 295  143  156 am
 296  145  146 1
 297  145  341 1
 298  146  147 1
 299  146  342 1
 300  147  148 1
 301  147  343 1
 302  147  344 1
 303  148  149 1
 304  148  345 1
 305  148  346 1
 306  149  150 1
 307  149  347 1
 308  149  348 1
 309  150  151 1
 310  150  349 1
 311  151  152 2
 312  151  153 1
 313  152  350 1
 314  153  351 1
 315  153  352 1
 316  154  155 2
 317  154  157 1
 318  154  165 am
 319  156  157 1
 320  156  353 1
 321  157  158 1
 322  157  354 1
 323  158  159 1
 324  158  355 1
 325  158  356 1
 326  159  160 1
 327  159  357 1
 328  159  358 1
 329  160  161 1
 330  160  359 1
 331  160  360 1
 332  161  162 1
 333  161  361 1
 334  161  362 1
 335  162  363 1
 336  162  364 1
 337  163  164 2
 338  163  166 1
 339  163  170 am
 340  165  166 1
 341  165  365 1
 342  166  167 1
 343  166  366 1
 344  167  367 1
 345  167  368 1
 346  167  369 1
 347  168  169 2
 348  168  171 1
 349  168  179 1
 350  170  171 1
 351  170  370 1
 352  171  172 1
 353  171  371 1
 354  172  173 1
 355  172  372 1
 356  172  373 1
 357  173  174 1
 358  173  374 1
 359  173  375 1
 360  174  175 1
 361  174  376 1
 362  174  377 1
 363  175  176 1
 364  175  378 1
 365  176  177 2
 366  176  178 1
 367  177  379 1
 368  178  380 1
 369  178  381 1
 370  179  382 1
 371  180  181 2
 372  180  196 1
 373  182  183 1
 374  182  383 1
 375  182  384 1
 376  182  385 1
 377  183  184 1
 378  183  386 1
 379  183  387 1
 380  184  185 1
 381  184  388 1
 382  184  389 1
 383  185  186 1
 384  185  390 1
 385  185  391 1
 386  186  187 1
 387  186  392 1
 388  186  393 1
 389  187  188 1
 390  187  394 1
 391  187  395 1
 392  188  189 1
 393  188  396 1
 394  188  397 1
 395  189  190 1
 396  189  398 1
 397  189  399 1
 398  190  191 1
 399  190  400 1
 400  190  401 1
 401  191  192 1
 402  191  402 1
 403  191  403 1
 404  192  193 1
 405  192  404 1
 406  192  405 1
 407  193  194 1
 408  193  406 1
 409  193  407 1
 410  194  195 1
 411  194  408 1
 412  194  409 1
 413  195  196 1
 414  195  410 1
 415  195  411 1
 416  196  412 1
 417  196  413 1

#	End of record

