#	Name: ASD00431028
#	Creating user name:	WinNT
#	Creation time:	15. 06. 2019 18:35

#	Modifying user name:	WinNT
#	Modification time:	15. 06. 2019 18:35

#	Program:	/corina/corina34_cracker 3.40 0067  02.08.2006

@<TRIPOS>MOLECULE
ASD00431028
  25   25    0    0    0
SMALL
NO_CHARGES


@<TRIPOS>ATOM
   1 C1            -0.0178     1.4648     0.0101 C.3     
   2 N2             0.0021    -0.0041     0.0020 N.3     
   3 C3             1.3960     1.9864    -0.0006 C.ar    
   4 C4             2.0315     2.2315    -1.2035 C.ar    
   5 C5             3.3315     2.7112    -1.2151 C.ar    
   6 C6             3.9943     2.9450    -0.0141 C.ar    
   7 C7             3.3514     2.6972     1.1881 C.ar    
   8 C8             2.0525     2.2240     1.1927 C.ar    
   9 O9             5.2703     3.4153    -0.0203 O.3     
  10 C10            5.8881     3.6319     1.2499 C.3     
  11 O11            3.9583     2.9524    -2.3976 O.3     
  12 C12            3.2169     2.6891    -3.5905 C.3     
  13 H13           -0.5450     1.8259    -0.8730 H       
  14 H14           -0.5280     1.8163     0.9069 H       
  15 H15           -0.9349    -0.3784     0.0090 H       
  16 H16            0.5256    -0.3543    -0.7863 H       
  17 H17            1.5150     2.0489    -2.1343 H       
  18 H18            3.8636     2.8778     2.1216 H       
  19 H19            1.5526     2.0313     2.1304 H       
  20 H20            6.9010     4.0064     1.1022 H       
  21 H21            5.3095     4.3623     1.8155 H       
  22 H22            5.9249     2.6922     1.8010 H       
  23 H23            3.8317     2.9232    -4.4596 H       
  24 H24            2.9347     1.6366    -3.6180 H       
  25 H25            2.3187     3.3065    -3.6038 H       
@<TRIPOS>BOND
   1    1    2 1
   2    1    3 1
   3    1   13 1
   4    1   14 1
   5    2   15 1
   6    2   16 1
   7    3    4 ar
   8    3    8 ar
   9    4    5 ar
  10    4   17 1
  11    5    6 ar
  12    5   11 1
  13    6    7 ar
  14    6    9 1
  15    7    8 ar
  16    7   18 1
  17    8   19 1
  18    9   10 1
  19   10   20 1
  20   10   21 1
  21   10   22 1
  22   11   12 1
  23   12   23 1
  24   12   24 1
  25   12   25 1

#	End of record

