#	Name: ASD04590232
#	Creating user name:	WinNT
#	Creation time:	15. 06. 2019 20:50

#	Modifying user name:	WinNT
#	Modification time:	15. 06. 2019 20:50

#	Program:	/corina/corina34_cracker 3.40 0067  02.08.2006

@<TRIPOS>MOLECULE
ASD04590232
  52   54    0    0    0
SMALL
NO_CHARGES


@<TRIPOS>ATOM
   1 N1             0.1158     1.1137    -0.5756 N.pl3   
   2 N2             0.1258    -0.2568    -0.2940 N.2     
   3 C3             1.3621    -0.6388    -0.0941 C.2     
   4 C4             2.1978     0.4972    -0.2444 C.2     
   5 C5             1.3781     1.5674    -0.5442 C.2     
   6 N6             1.7832    -1.9350     0.2132 N.am    
   7 C7             3.6633     0.5296    -0.1060 C.2     
   8 O8             4.2713    -0.4887     0.1631 O.2     
   9 N9             4.3309     1.6878    -0.2775 N.am    
  10 C10            5.7891     1.7200    -0.1398 C.3     
  11 C11            6.3538     2.8905    -0.9495 C.3     
  12 C12            7.8700     2.9559    -0.7530 C.3     
  13 N13            8.1729     3.1326     0.6729 N.3     
  14 C14            7.6818     1.9976     1.4647 C.3     
  15 C15            6.1599     1.9036     1.3344 C.3     
  16 C16            0.8791    -2.9279     0.3275 C.2     
  17 O17           -0.3031    -2.6956     0.1631 O.2     
  18 C18            1.3237    -4.2965     0.6519 C.ar    
  19 C19            1.6522    -5.1910    -0.3725 C.ar    
  20 C20            2.0679    -6.4715    -0.0595 C.ar    
  21 C21            2.1590    -6.8696     1.2619 C.ar    
  22 C22            1.8358    -5.9920     2.2809 C.ar    
  23 C23            1.4248    -4.7057     1.9861 C.ar    
  24 F24            1.1099    -3.8499     2.9829 F       
  25 F25            1.5630    -4.8044    -1.6640 F       
  26 C26            9.6121     3.3381     0.8839 C.3     
  27 C27            9.9893     4.7630     0.4739 C.3     
  28 O28            9.3443     5.6955     1.3437 O.3     
  29 C29            9.6317     7.0631     1.0455 C.3     
  30 H30           -0.6722     1.6464    -0.7660 H       
  31 H31            1.6955     2.5844    -0.7218 H       
  32 H32            2.7263    -2.1202     0.3444 H       
  33 H33            3.8459     2.5000    -0.4921 H       
  34 H34            6.2105     0.7849    -0.5087 H       
  35 H35            6.1297     2.7437    -2.0061 H       
  36 H36            5.9019     3.8214    -0.6071 H       
  37 H37            8.3226     2.0301    -1.1084 H       
  38 H38            8.2734     3.7969    -1.3170 H       
  39 H39            8.1352     1.0763     1.0989 H       
  40 H40            7.9484     2.1426     2.5116 H       
  41 H41            5.7050     2.8190     1.7128 H       
  42 H42            5.7973     1.0517     1.9097 H       
  43 H43            2.3219    -7.1633    -0.8490 H       
  44 H44            2.4842    -7.8717     1.4994 H       
  45 H45            1.9091    -6.3114     3.3100 H       
  46 H46            9.8501     3.1880     1.9370 H       
  47 H47           10.1733     2.6255     0.2795 H       
  48 H48           11.0699     4.8875     0.5448 H       
  49 H49            9.6695     4.9425    -0.5526 H       
  50 H50            9.1050     7.7070     1.7498 H       
  51 H51           10.7048     7.2354     1.1283 H       
  52 H52            9.3044     7.2903     0.0309 H       
@<TRIPOS>BOND
   1    1    2 1
   2    1    5 1
   3    1   30 1
   4    2    3 2
   5    3    4 1
   6    3    6 1
   7    4    5 2
   8    4    7 1
   9    5   31 1
  10    6   16 am
  11    6   32 1
  12    7    8 2
  13    7    9 am
  14    9   10 1
  15    9   33 1
  16   10   11 1
  17   10   15 1
  18   10   34 1
  19   11   12 1
  20   11   35 1
  21   11   36 1
  22   12   13 1
  23   12   37 1
  24   12   38 1
  25   13   14 1
  26   13   26 1
  27   14   15 1
  28   14   39 1
  29   14   40 1
  30   15   41 1
  31   15   42 1
  32   16   17 2
  33   16   18 1
  34   18   19 ar
  35   18   23 ar
  36   19   20 ar
  37   19   25 1
  38   20   21 ar
  39   20   43 1
  40   21   22 ar
  41   21   44 1
  42   22   23 ar
  43   22   45 1
  44   23   24 1
  45   26   27 1
  46   26   46 1
  47   26   47 1
  48   27   28 1
  49   27   48 1
  50   27   49 1
  51   28   29 1
  52   29   50 1
  53   29   51 1
  54   29   52 1

#	End of record

