#	Name: ASD02500532
#	Creating user name:	WinNT
#	Creation time:	15. 06. 2019 20:23

#	Modifying user name:	WinNT
#	Modification time:	15. 06. 2019 20:23

#	Program:	/corina/corina34_cracker 3.40 0067  02.08.2006

@<TRIPOS>MOLECULE
ASD02500532
  65   69    0    0    0
SMALL
NO_CHARGES


@<TRIPOS>ATOM
   1 N1             3.9746     3.0592    -1.5813 N.ar    
   2 C2             4.8806     2.6589    -0.7227 C.ar    
   3 C3             5.8501     1.7185    -1.0647 C.ar    
   4 C4             5.8719     1.1887    -2.3233 C.ar    
   5 C5             4.8972     1.6206    -3.2427 C.ar    
   6 C6             4.8569     1.1213    -4.5541 C.ar    
   7 C7             3.8984     1.5646    -5.4138 C.ar    
   8 C8             2.9565     2.5081    -5.0094 C.ar    
   9 C9             2.9663     3.0132    -3.7455 C.ar    
  10 C10            3.9401     2.5804    -2.8290 C.ar    
  11 S11            1.7635     4.2060    -3.2605 S.o2    
  12 O12            2.4756     5.2576    -2.6231 O.2     
  13 O13            0.9222     4.4087    -4.3877 O.2     
  14 N14            0.8208     3.5050    -2.0934 N.am    
  15 C15            0.0311     2.4041    -2.4061 C.ar    
  16 C16            0.0246     1.2931    -1.5672 C.ar    
  17 C17           -0.7559     0.2020    -1.8740 C.ar    
  18 C18           -1.5428     0.2101    -3.0294 C.ar    
  19 C19           -1.5342     1.3272    -3.8697 C.ar    
  20 C20           -0.7559     2.4175    -3.5545 C.ar    
  21 C21           -2.3803    -0.9581    -3.3614 C.2     
  22 O22           -3.5067    -0.7965    -3.7901 O.2     
  23 N23           -1.8970    -2.2044    -3.1895 N.am    
  24 C24           -2.6709    -3.2974    -3.6195 C.3     
  25 C25           -2.9672    -4.2522    -2.4351 C.3     
  26 N26           -1.7478    -4.9566    -2.0955 N.3     
  27 C27           -0.9446    -4.3425    -1.0179 C.3     
  28 C28           -0.8208    -2.8243    -1.1360 C.3     
  29 C29           -0.5707    -2.3740    -2.5618 C.3     
  30 C30           -2.0195    -6.3714    -1.8087 C.3     
  31 C31           -2.4537    -7.0661    -3.0736 C.ar    
  32 C32           -3.7996    -7.2599    -3.3305 C.ar    
  33 C33           -4.1977    -7.8988    -4.4928 C.ar    
  34 C34           -3.2520    -8.3436    -5.3979 C.ar    
  35 C35           -1.9076    -8.1516    -5.1452 C.ar    
  36 C36           -1.5052    -7.5067    -3.9842 C.ar    
  37 O37           -0.1830    -7.3126    -3.7370 O.3     
  38 F38           -4.7252    -6.8263    -2.4471 F       
  39 H39            4.8756     3.0692     0.2763 H       
  40 H40            6.5840     1.4090    -0.3352 H       
  41 H41            6.6165     0.4591    -2.6056 H       
  42 H42            5.5822     0.3902    -4.8795 H       
  43 H43            3.8681     1.1800    -6.4225 H       
  44 H44            2.2066     2.8443    -5.7101 H       
  45 H45            0.8195     3.8623    -1.1917 H       
  46 H46            0.6331     1.2873    -0.6750 H       
  47 H47           -0.7602    -0.6597    -1.2230 H       
  48 H48           -2.1408     1.3363    -4.7632 H       
  49 H49           -0.7524     3.2827    -4.2008 H       
  50 H50           -3.6118    -2.9322    -4.0313 H       
  51 H51           -2.1275    -3.8410    -4.3925 H       
  52 H52           -3.3079    -3.6747    -1.5757 H       
  53 H53           -3.7352    -4.9690    -2.7259 H       
  54 H54           -1.4062    -4.5812    -0.0598 H       
  55 H55            0.0551    -4.7764    -1.0377 H       
  56 H56           -1.7421    -2.3661    -0.7764 H       
  57 H57            0.0059    -2.4880    -0.5103 H       
  58 H58            0.0010    -3.1313    -3.0982 H       
  59 H59           -0.0323    -1.4263    -2.5672 H       
  60 H60           -1.1152    -6.8448    -1.4262 H       
  61 H61           -2.8114    -6.4454    -1.0634 H       
  62 H62           -5.2482    -8.0500    -4.6924 H       
  63 H63           -3.5647    -8.8423    -6.3034 H       
  64 H64           -1.1699    -8.4999    -5.8529 H       
  65 H65            0.2537    -8.0670    -3.3185 H       
@<TRIPOS>BOND
   1    1    2 ar
   2    1   10 ar
   3    2    3 ar
   4    2   39 1
   5    3    4 ar
   6    3   40 1
   7    4    5 ar
   8    4   41 1
   9    5    6 ar
  10    5   10 ar
  11    6    7 ar
  12    6   42 1
  13    7    8 ar
  14    7   43 1
  15    8    9 ar
  16    8   44 1
  17    9   10 ar
  18    9   11 1
  19   11   12 2
  20   11   13 2
  21   11   14 am
  22   14   15 1
  23   14   45 1
  24   15   16 ar
  25   15   20 ar
  26   16   17 ar
  27   16   46 1
  28   17   18 ar
  29   17   47 1
  30   18   19 ar
  31   18   21 1
  32   19   20 ar
  33   19   48 1
  34   20   49 1
  35   21   22 2
  36   21   23 am
  37   23   24 1
  38   23   29 1
  39   24   25 1
  40   24   50 1
  41   24   51 1
  42   25   26 1
  43   25   52 1
  44   25   53 1
  45   26   27 1
  46   26   30 1
  47   27   28 1
  48   27   54 1
  49   27   55 1
  50   28   29 1
  51   28   56 1
  52   28   57 1
  53   29   58 1
  54   29   59 1
  55   30   31 1
  56   30   60 1
  57   30   61 1
  58   31   32 ar
  59   31   36 ar
  60   32   33 ar
  61   32   38 1
  62   33   34 ar
  63   33   62 1
  64   34   35 ar
  65   34   63 1
  66   35   36 ar
  67   35   64 1
  68   36   37 1
  69   37   65 1

#	End of record

