#	Name: ASD01840249
#	Creating user name:	WinNT
#	Creation time:	15. 06. 2019 19:37

#	Modifying user name:	WinNT
#	Modification time:	15. 06. 2019 19:37

#	Program:	/corina/corina34_cracker 3.40 0067  02.08.2006

@<TRIPOS>MOLECULE
ASD01840249
  50   53    0    0    0
SMALL
NO_CHARGES


@<TRIPOS>ATOM
   1 C1             1.0415    -0.0105    -4.9437 C.3     
   2 C2             0.9309    -1.4343    -4.4626 C.ar    
   3 C3            -0.3117    -2.0302    -4.3501 C.ar    
   4 C4            -0.4159    -3.3352    -3.9089 C.ar    
   5 C5             0.7276    -4.0479    -3.5791 C.ar    
   6 O6             0.6278    -5.3323    -3.1451 O.3     
   7 C7             0.7550    -5.5419    -1.8209 C.2     
   8 O8             1.0144    -4.6136    -1.0810 O.2     
   9 N9             0.5945    -6.7813    -1.3163 N.am    
  10 C10            0.2934    -8.1147    -1.8588 C.3     
  11 C11            1.0449    -8.7121    -0.6611 C.3     
  12 C12            0.6498    -7.3966     0.0183 C.3     
  13 N13            0.4113    -9.9018    -0.0871 N.am    
  14 C14            1.1535   -10.8006     0.5894 C.2     
  15 O15            2.3506   -10.6237     0.7236 O.2     
  16 C16            0.5211   -11.9880     1.1623 C.2     
  17 S17           -1.1864   -12.3618     1.0335 S.3     
  18 C18           -1.0089   -13.8512     1.9502 C.ar    
  19 N19           -1.9132   -14.7666     2.3061 N.ar    
  20 N20           -1.6035   -15.8076     2.9848 N.ar    
  21 C21           -0.3682   -16.0563     3.3848 C.ar    
  22 C22           -0.0729   -17.3014     4.1807 C.3     
  23 C23            0.6500   -15.1813     3.0762 C.ar    
  24 C24            2.0643   -15.4482     3.5231 C.3     
  25 C25            0.3293   -14.0259     2.3276 C.ar    
  26 C26            1.1797   -12.9477     1.8581 C.2     
  27 N27            2.5456   -12.9014     2.1024 N.pl3   
  28 C28            1.9732    -3.4480    -3.6932 C.ar    
  29 C29            2.0724    -2.1445    -4.1398 C.ar    
  30 H30            1.1353    -0.0001    -6.0296 H       
  31 H31            0.1490     0.5424    -4.6508 H       
  32 H32            1.9203     0.4562    -4.4986 H       
  33 H33           -1.2017    -1.4749    -4.6070 H       
  34 H34           -1.3867    -3.7999    -3.8205 H       
  35 H35           -0.7708    -8.3506    -1.8650 H       
  36 H36            0.7752    -8.3127    -2.8162 H       
  37 H37            2.1175    -8.8258    -0.8180 H       
  38 H38            1.4342    -6.9854     0.6537 H       
  39 H39           -0.3184    -7.4393     0.5171 H       
  40 H40           -0.5425   -10.0427    -0.1941 H       
  41 H41            0.1768   -18.1163     3.5012 H       
  42 H42            0.7679   -17.1148     4.8488 H       
  43 H43           -0.9500   -17.5739     4.7678 H       
  44 H44            2.6057   -15.9615     2.7285 H       
  45 H45            2.5588   -14.5031     3.7479 H       
  46 H46            2.0513   -16.0729     4.4162 H       
  47 H47            3.0338   -12.0734     1.9718 H       
  48 H48            3.0117   -13.6969     2.4037 H       
  49 H49            2.8649    -4.0009    -3.4370 H       
  50 H50            3.0422    -1.6784    -4.2331 H       
@<TRIPOS>BOND
   1    1    2 1
   2    1   30 1
   3    1   31 1
   4    1   32 1
   5    2   29 ar
   6    2    3 ar
   7    3    4 ar
   8    3   33 1
   9    4    5 ar
  10    4   34 1
  11    5    6 1
  12    5   28 ar
  13    6    7 1
  14    7    8 2
  15    7    9 am
  16    9   12 1
  17    9   10 1
  18   10   11 1
  19   10   35 1
  20   10   36 1
  21   11   12 1
  22   11   13 1
  23   11   37 1
  24   12   38 1
  25   12   39 1
  26   13   14 am
  27   13   40 1
  28   14   15 2
  29   14   16 1
  30   16   26 2
  31   16   17 1
  32   17   18 1
  33   18   25 ar
  34   18   19 ar
  35   19   20 ar
  36   20   21 ar
  37   21   22 1
  38   21   23 ar
  39   22   41 1
  40   22   42 1
  41   22   43 1
  42   23   24 1
  43   23   25 ar
  44   24   44 1
  45   24   45 1
  46   24   46 1
  47   25   26 1
  48   26   27 1
  49   27   47 1
  50   27   48 1
  51   28   29 ar
  52   28   49 1
  53   29   50 1

#	End of record

