#	Name: ASD01811411
#	Creating user name:	WinNT
#	Creation time:	15. 06. 2019 19:26

#	Modifying user name:	WinNT
#	Modification time:	15. 06. 2019 19:26

#	Program:	/corina/corina34_cracker 3.40 0067  02.08.2006

@<TRIPOS>MOLECULE
ASD01811411
  66   71    0    0    0
SMALL
NO_CHARGES


@<TRIPOS>ATOM
   1 C1            -0.0166     1.3784     0.0118 C.ar    
   2 C2             0.0023    -0.0031     0.0671 C.ar    
   3 C3             1.2025    -0.6824     0.1069 C.ar    
   4 C4             2.4053     0.0198     0.0915 C.ar    
   5 C5             2.3735     1.4090     0.0342 C.ar    
   6 C6             1.1742     2.0837    -0.0046 C.ar    
   7 N7             3.7257    -0.4316     0.1246 N.am    
   8 C8             4.6105     0.5810     0.0915 C.2     
   9 C9             3.8112     1.8606     0.0284 C.3     
  10 C10            4.1293     2.6221    -1.2555 C.3     
  11 C11            5.5899     3.0814    -1.2218 C.3     
  12 N12            5.8094     3.9295    -0.0436 N.3     
  13 C13            5.5674     3.1876     1.2004 C.3     
  14 C14            4.1062     2.7314     1.2469 C.3     
  15 C15            7.1590     4.5095    -0.0565 C.3     
  16 C16            8.1898     3.3940    -0.2490 C.3     
  17 S17            9.8564     4.1147    -0.1684 S.3     
  18 C18            9.7593     5.4471    -1.4006 C.3     
  19 C19            8.5518     6.3315    -1.0785 C.3     
  20 C20            7.2655     5.5192    -1.1955 C.3     
  21 O21            5.8194     0.4847     0.1093 O.2     
  22 C22            4.1043    -1.8453     0.1889 C.3     
  23 C23            4.2497    -2.3905    -1.2085 C.ar    
  24 C24            5.4089    -2.1476    -1.9274 C.ar    
  25 C25            5.5462    -2.6463    -3.2093 C.ar    
  26 C26            4.5167    -3.3936    -3.7765 C.ar    
  27 C27            3.3539    -3.6342    -3.0484 C.ar    
  28 C28            3.2282    -3.1364    -1.7668 C.ar    
  29 F29            6.4059    -1.4221    -1.3753 F       
  30 C30            4.6581    -3.9316    -5.1532 C.2     
  31 C31            5.7710    -3.7676    -6.0006 C.2     
  32 N32            5.5198    -4.3848    -7.1246 N.2     
  33 N33            4.2472    -4.9624    -7.0402 N.pl3   
  34 C34            3.7359    -4.6797    -5.8251 C.2     
  35 C35            3.5873    -5.7439    -8.0890 C.3     
  36 H36           -0.9585     1.9057    -0.0231 H       
  37 H37           -0.9271    -0.5531     0.0796 H       
  38 H38            1.2095    -1.7615     0.1505 H       
  39 H39            1.1625     3.1628    -0.0474 H       
  40 H40            3.9727     1.9693    -2.1142 H       
  41 H41            3.4762     3.4913    -1.3344 H       
  42 H42            6.2434     2.2106    -1.1696 H       
  43 H43            5.8130     3.6494    -2.1250 H       
  44 H44            6.2213     2.3164     1.2370 H       
  45 H45            5.7738     3.8329     2.0543 H       
  46 H46            3.4522     3.6034     1.2379 H       
  47 H47            3.9335     2.1555     2.1561 H       
  48 H48            7.3449     5.0145     0.8914 H       
  49 H49            8.0749     2.6505     0.5397 H       
  50 H50            8.0419     2.9238    -1.2211 H       
  51 H51           10.6700     6.0451    -1.3644 H       
  52 H52            9.6420     5.0169    -2.3953 H       
  53 H53            8.6457     6.7163    -0.0631 H       
  54 H54            8.5176     7.1662    -1.7786 H       
  55 H55            7.2616     4.9882    -2.1474 H       
  56 H56            6.4103     6.1939    -1.1581 H       
  57 H57            5.0523    -1.9439     0.7178 H       
  58 H58            3.3329    -2.4043     0.7186 H       
  59 H59            6.4496    -2.4567    -3.7700 H       
  60 H60            2.5530    -4.2129    -3.4845 H       
  61 H61            2.3267    -3.3233    -1.2022 H       
  62 H62            6.6745    -3.2256    -5.7630 H       
  63 H63            2.7688    -4.9846    -5.4533 H       
  64 H64            3.8388    -6.7978    -7.9695 H       
  65 H65            2.5075    -5.6171    -8.0116 H       
  66 H66            3.9246    -5.3984    -9.0662 H       
@<TRIPOS>BOND
   1    1    2 ar
   2    1    6 ar
   3    1   36 1
   4    2    3 ar
   5    2   37 1
   6    3    4 ar
   7    3   38 1
   8    4    5 ar
   9    4    7 1
  10    5    6 ar
  11    5    9 1
  12    6   39 1
  13    7    8 am
  14    7   22 1
  15    8    9 1
  16    8   21 2
  17    9   10 1
  18    9   14 1
  19   10   11 1
  20   10   40 1
  21   10   41 1
  22   11   12 1
  23   11   42 1
  24   11   43 1
  25   12   13 1
  26   12   15 1
  27   13   14 1
  28   13   44 1
  29   13   45 1
  30   14   46 1
  31   14   47 1
  32   15   16 1
  33   15   20 1
  34   15   48 1
  35   16   17 1
  36   16   49 1
  37   16   50 1
  38   17   18 1
  39   18   19 1
  40   18   51 1
  41   18   52 1
  42   19   20 1
  43   19   53 1
  44   19   54 1
  45   20   55 1
  46   20   56 1
  47   22   23 1
  48   22   57 1
  49   22   58 1
  50   23   24 ar
  51   23   28 ar
  52   24   25 ar
  53   24   29 1
  54   25   26 ar
  55   25   59 1
  56   26   27 ar
  57   26   30 1
  58   27   28 ar
  59   27   60 1
  60   28   61 1
  61   30   31 1
  62   30   34 2
  63   31   32 2
  64   31   62 1
  65   32   33 1
  66   33   34 1
  67   33   35 1
  68   34   63 1
  69   35   64 1
  70   35   65 1
  71   35   66 1

#	End of record

