#	Name: ASD01913838
#	Creating user name:	WinNT
#	Creation time:	15. 06. 2019 20:02

#	Modifying user name:	WinNT
#	Modification time:	15. 06. 2019 20:02

#	Program:	/corina/corina34_cracker 3.40 0067  02.08.2006

@<TRIPOS>MOLECULE
ASD01913838
  47   49    0    0    0
SMALL
NO_CHARGES


@<TRIPOS>ATOM
   1 C1            -0.0202     1.4273     0.0513 C.ar    
   2 C2             0.0001    -0.0044     0.0311 C.1     
   3 C3             0.0168    -1.1781     0.0146 C.1     
   4 C4             0.0371    -2.6099    -0.0056 C.ar    
   5 C5            -1.1381    -3.3353    -0.2522 C.ar    
   6 C6             0.1561    -5.3344    -0.0290 C.ar    
   7 N7             1.2498    -4.6216     0.1951 N.ar    
   8 C8             1.2283    -3.3052     0.2141 C.ar    
   9 C9            -1.0676    -4.7139    -0.2620 C.ar    
  10 N10            0.2332    -6.7251    -0.0385 N.am    
  11 C11           -0.8328    -7.5439    -0.0335 C.2     
  12 C12           -0.3804    -8.9872    -0.0570 C.3     
  13 C13            1.1004    -8.9134    -0.4962 C.3     
  14 C14            1.4888    -7.4847    -0.0615 C.3     
  15 O15           -1.9891    -7.1786    -0.0129 O.2     
  16 C16            1.1545     2.1427     0.2976 C.ar    
  17 C17            1.1274     3.5217     0.3151 C.ar    
  18 C18           -1.2257     3.4948    -0.1604 C.ar    
  19 C19           -1.2140     2.1160    -0.1809 C.ar    
  20 C20           -0.0593     4.1965     0.0899 C.ar    
  21 C21            1.9417    -9.9603     0.2366 C.3     
  22 C22            1.2305    -9.0728    -2.0123 C.3     
  23 O23           -0.4876    -9.5662     1.2451 O.3     
  24 C24           -1.7395   -10.2084     1.4943 C.3     
  25 C25           -2.5118     4.2393    -0.4111 C.3     
  26 H26           -2.0748    -2.8278    -0.4296 H       
  27 H27            2.1405    -2.7579     0.4009 H       
  28 H28           -1.9525    -5.3045    -0.4480 H       
  29 H29           -0.9643    -9.5584    -0.7787 H       
  30 H30            2.1855    -7.0488    -0.7775 H       
  31 H31            1.9311    -7.5006     0.9346 H       
  32 H32            2.0814     1.6172     0.4742 H       
  33 H33            2.0345     4.0760     0.5053 H       
  34 H34           -2.1249     1.5697    -0.3760 H       
  35 H35           -0.0747     5.2763     0.1051 H       
  36 H36            1.5594   -10.9560     0.0116 H       
  37 H37            2.9789    -9.8869    -0.0906 H       
  38 H38            1.8863    -9.7841     1.3108 H       
  39 H39            0.6778    -8.2760    -2.5101 H       
  40 H40            2.2818    -9.0170    -2.2946 H       
  41 H41            0.8245   -10.0389    -2.3122 H       
  42 H42           -2.5462    -9.4817     1.3980 H       
  43 H43           -1.8860   -11.0116     0.7721 H       
  44 H44           -1.7414   -10.6218     2.5029 H       
  45 H45           -3.0278     4.4020     0.5352 H       
  46 H46           -2.2906     5.2008    -0.8743 H       
  47 H47           -3.1471     3.6535    -1.0753 H       
@<TRIPOS>BOND
   1    1    2 1
   2    1   16 ar
   3    1   19 ar
   4    2    3 3
   5    3    4 1
   6    4    5 ar
   7    4    8 ar
   8    5    9 ar
   9    5   26 1
  10    6    7 ar
  11    6   10 1
  12    6    9 ar
  13    7    8 ar
  14    8   27 1
  15    9   28 1
  16   10   11 am
  17   10   14 1
  18   11   12 1
  19   11   15 2
  20   12   13 1
  21   12   23 1
  22   12   29 1
  23   13   14 1
  24   13   21 1
  25   13   22 1
  26   14   30 1
  27   14   31 1
  28   16   17 ar
  29   16   32 1
  30   17   20 ar
  31   17   33 1
  32   18   19 ar
  33   18   25 1
  34   18   20 ar
  35   19   34 1
  36   20   35 1
  37   21   36 1
  38   21   37 1
  39   21   38 1
  40   22   39 1
  41   22   40 1
  42   22   41 1
  43   23   24 1
  44   24   42 1
  45   24   43 1
  46   24   44 1
  47   25   45 1
  48   25   46 1
  49   25   47 1

#	End of record

