#	Name: ASD01914338
#	Creating user name:	WinNT
#	Creation time:	15. 06. 2019 20:03

#	Modifying user name:	WinNT
#	Modification time:	15. 06. 2019 20:03

#	Program:	/corina/corina34_cracker 3.40 0067  02.08.2006

@<TRIPOS>MOLECULE
ASD01914338
  42   45    0    0    0
SMALL
NO_CHARGES


@<TRIPOS>ATOM
   1 C1             0.0074     1.2606    -0.0060 C.2     
   2 N2             0.0108    -0.0444     0.0036 N.2     
   3 C3            -1.2577    -0.4752     0.0140 C.2     
   4 C4            -2.0555     0.6099     0.0137 C.2     
   5 O5            -1.2642     1.6906     0.0047 O.3     
   6 C6            -3.5630     0.5508     0.0329 C.3     
   7 N7            -3.9494    -0.8484    -0.2246 N.am    
   8 C8            -4.9488    -1.1433    -1.0794 C.2     
   9 C9             1.2307     2.1406    -0.0202 C.3     
  10 O10            1.6088     2.4089    -1.3720 O.3     
  11 C11            2.6994     3.1931    -1.5624 C.ar    
  12 C12            3.1164     3.4894    -2.8536 C.ar    
  13 C13            4.2306     4.2906    -3.0342 C.ar    
  14 C14            4.8911     4.7689    -1.9112 C.ar    
  15 C15            4.4205     4.4339    -0.6570 C.ar    
  16 N16            3.3523     3.6724    -0.5166 N.ar    
  17 C17           -1.7517    -1.8997     0.0193 C.3     
  18 C18           -3.2162    -1.9142     0.4748 C.3     
  19 C19           -5.7589    -0.0589    -1.6710 C.ar    
  20 C20           -6.2338    -0.1728    -2.9793 C.ar    
  21 O21           -5.1836    -2.3018    -1.3637 O.2     
  22 C22           -6.0573     1.0814    -0.9220 C.ar    
  23 C23           -6.8135     2.0903    -1.4789 C.ar    
  24 C24           -7.2781     1.9744    -2.7801 C.ar    
  25 C25           -6.9892     0.8421    -3.5264 C.ar    
  26 F26           -8.0193     2.9660    -3.3210 F       
  27 H27           -3.9341     0.8646     1.0086 H       
  28 H28           -3.9695     1.1971    -0.7450 H       
  29 H29            1.0091     3.0790     0.4881 H       
  30 H30            2.0486     1.6342     0.4922 H       
  31 H31            2.5787     3.0997    -3.7053 H       
  32 H32            4.5783     4.5375    -4.0265 H       
  33 H33            5.7639     5.3962    -2.0172 H       
  34 H34            4.9310     4.8032     0.2202 H       
  35 H35           -1.6777    -2.3156    -0.9855 H       
  36 H36           -1.1493    -2.4927     0.7074 H       
  37 H37           -3.2649    -1.7445     1.5504 H       
  38 H38           -3.6622    -2.8799     0.2368 H       
  39 H39           -6.0094    -1.0543    -3.5615 H       
  40 H40           -5.6964     1.1724     0.0919 H       
  41 H41           -7.0448     2.9726    -0.9005 H       
  42 H42           -7.3532     0.7570    -4.5397 H       
@<TRIPOS>BOND
   1    1    2 2
   2    1    9 1
   3    1    5 1
   4    2    3 1
   5    3    4 2
   6    3   17 1
   7    4    5 1
   8    4    6 1
   9    6    7 1
  10    6   27 1
  11    6   28 1
  12    7    8 am
  13    7   18 1
  14    8   19 1
  15    8   21 2
  16    9   10 1
  17    9   29 1
  18    9   30 1
  19   10   11 1
  20   11   12 ar
  21   11   16 ar
  22   12   13 ar
  23   12   31 1
  24   13   14 ar
  25   13   32 1
  26   14   15 ar
  27   14   33 1
  28   15   16 ar
  29   15   34 1
  30   17   18 1
  31   17   35 1
  32   17   36 1
  33   18   37 1
  34   18   38 1
  35   19   20 ar
  36   19   22 ar
  37   20   25 ar
  38   20   39 1
  39   22   23 ar
  40   22   40 1
  41   23   24 ar
  42   23   41 1
  43   24   25 ar
  44   24   26 1
  45   25   42 1

#	End of record

