#	Name: ASD00841462
#	Creating user name:	WinNT
#	Creation time:	15. 06. 2019 18:42

#	Modifying user name:	WinNT
#	Modification time:	15. 06. 2019 18:42

#	Program:	/corina/corina34_cracker 3.40 0067  02.08.2006

@<TRIPOS>MOLECULE
ASD00841462
  97  102    0    0    0
SMALL
NO_CHARGES


@<TRIPOS>ATOM
   1 C1            -0.0142     1.3803     0.0276 C.ar    
   2 C2             0.0033    -0.0066     0.0121 C.ar    
   3 C3             1.2149    -0.6826    -0.0058 C.ar    
   4 C4             2.4001     0.0266    -0.0082 C.ar    
   5 C5             2.3800     1.4092     0.0078 C.ar    
   6 C6             1.1742     2.0851     0.0252 C.ar    
   7 C7             1.2376    -2.1893    -0.0222 C.3     
   8 C8             0.4952    -2.7178    -1.2311 C.2     
   9 N9             2.6177    -2.6807    -0.0123 N.am    
  10 C10            3.4635    -2.3343    -1.0027 C.2     
  11 N11            4.7591    -2.7005    -0.9414 N.am    
  12 O12            3.0578    -1.6913    -1.9516 O.2     
  13 C13            5.2904    -3.3764     0.2501 C.3     
  14 C14            6.5168    -2.6055     0.7485 C.3     
  15 C15            7.5241    -2.4629    -0.3948 C.3     
  16 C16            6.8891    -1.6717    -1.5407 C.3     
  17 C17            5.6656    -2.4371    -2.0673 C.3     
  18 N18            8.7158    -1.7530     0.0886 N.3     
  19 C19            9.7550    -1.7011    -0.9492 C.3     
  20 C20           10.9450    -0.8871    -0.4355 C.3     
  21 N21           11.4628    -1.5037     0.7939 N.3     
  22 C22           10.4236    -1.5555     1.8317 C.3     
  23 C23            9.2336    -2.3695     1.3180 C.3     
  24 C24           12.6545    -0.7937     1.2773 C.3     
  25 O25            0.7748    -2.5148    -2.3937 O.2     
  26 N26           -0.5320    -3.4537    -0.7741 N.am    
  27 C27            0.4667    -2.7434     1.1539 C.ar    
  28 C28           -0.5773    -3.4891     0.6206 C.ar    
  29 C29            0.6296    -2.6303     2.5162 C.ar    
  30 C30           -0.2541    -3.2648     3.3729 C.ar    
  31 C31           -1.2997    -4.0117     2.8537 C.ar    
  32 C32           -1.4636    -4.1255     1.4864 C.ar    
  33 Cl33          -0.0526    -3.1257     5.0916 Cl      
  34 F34           -2.1627    -4.6314     3.6883 F       
  35 C35           -0.9829    -5.8428    -2.0638 C.ar    
  36 C36            0.1966    -5.9970    -2.7780 C.ar    
  37 C37           -1.6560    -6.9533    -1.5909 C.ar    
  38 C38           -1.1563    -8.2194    -1.8276 C.ar    
  39 C39            0.0232    -8.3789    -2.5416 C.ar    
  40 C40            0.6999    -7.2666    -3.0173 C.ar    
  41 O41            0.5140    -9.6246    -2.7745 O.3     
  42 O42            0.8578    -4.9046    -3.2431 O.3     
  43 C43           -0.2357   -10.7248    -2.2553 C.3     
  44 C44            2.0655    -5.1381    -3.9703 C.3     
  45 C45            2.6630    -3.7999    -4.4098 C.3     
  46 C46           13.0165    -1.2982     2.6756 C.3     
  47 S47           -1.6194    -4.2294    -1.7531 S.o2    
  48 O48           -2.7996    -4.4053    -0.9815 O.2     
  49 O49           -1.5993    -3.5436    -2.9975 O.2     
  50 O50           -1.1642    -0.7021     0.0149 O.3     
  51 C51           -3.5736    -0.8888     0.0345 C.3     
  52 C52           -2.3731     0.0597     0.0342 C.3     
  53 H53           -0.9560     1.9089     0.0371 H       
  54 H54            3.3434    -0.4991    -0.0221 H       
  55 H55            3.3079     1.9619     0.0066 H       
  56 H56            1.1611     3.1650     0.0376 H       
  57 H57            2.9227    -3.2554     0.7072 H       
  58 H58            4.5288    -3.3950     1.0296 H       
  59 H59            5.5789    -4.3958    -0.0062 H       
  60 H60            6.2109    -1.6164     1.0894 H       
  61 H61            6.9774    -3.1488     1.5736 H       
  62 H62            7.8107    -3.4521    -0.7517 H       
  63 H63            6.5797    -0.6914    -1.1782 H       
  64 H64            7.6147    -1.5504    -2.3449 H       
  65 H65            5.9874    -3.3786    -2.5124 H       
  66 H66            5.1514    -1.8337    -2.8154 H       
  67 H67           10.0823    -2.7132    -1.1870 H       
  68 H68            9.3512    -1.2292    -1.8449 H       
  69 H69           11.7290    -0.8716    -1.1926 H       
  70 H70           10.6236     0.1326    -0.2234 H       
  71 H71           10.8274    -2.0274     2.7274 H       
  72 H72           10.0963    -0.5434     2.0695 H       
  73 H73            8.4496    -2.3850     2.0751 H       
  74 H74            9.5549    -3.3892     1.1059 H       
  75 H75           13.4871    -0.9771     0.5981 H       
  76 H76           12.4484     0.2758     1.3190 H       
  77 H77            1.4461    -2.0475     2.9164 H       
  78 H78           -2.2807    -4.7088     1.0883 H       
  79 H79           -2.5739    -6.8313    -1.0352 H       
  80 H80           -1.6837    -9.0857    -1.4565 H       
  81 H81            1.6177    -7.3887    -3.5733 H       
  82 H82            0.2650   -11.6586    -2.5112 H       
  83 H83           -0.3075   -10.6362    -1.1713 H       
  84 H84           -1.2363   -10.7188    -2.6874 H       
  85 H85            2.7778    -5.6622    -3.3330 H       
  86 H86            1.8488    -5.7454    -4.8491 H       
  87 H87            1.9508    -3.2758    -5.0470 H       
  88 H88            2.8797    -3.1926    -3.5310 H       
  89 H89            3.5843    -3.9780    -4.9645 H       
  90 H90           13.2226    -2.3677     2.6340 H       
  91 H91           13.9008    -0.7714     3.0343 H       
  92 H92           12.1839    -1.1149     3.3548 H       
  93 H93           -4.4957    -0.3078     0.0492 H       
  94 H94           -3.5482    -1.5074    -0.8627 H       
  95 H95           -3.5322    -1.5271     0.9171 H       
  96 H96           -2.3985     0.6782     0.9313 H       
  97 H97           -2.4145     0.6979    -0.8484 H       
@<TRIPOS>BOND
   1    1    2 ar
   2    1    6 ar
   3    1   53 1
   4    2    3 ar
   5    2   50 1
   6    3    4 ar
   7    3    7 1
   8    4    5 ar
   9    4   54 1
  10    5    6 ar
  11    5   55 1
  12    6   56 1
  13    7    8 1
  14    7    9 1
  15    7   27 1
  16    8   25 2
  17    8   26 am
  18    9   10 am
  19    9   57 1
  20   10   11 am
  21   10   12 2
  22   11   13 1
  23   11   17 1
  24   13   14 1
  25   13   58 1
  26   13   59 1
  27   14   15 1
  28   14   60 1
  29   14   61 1
  30   15   16 1
  31   15   18 1
  32   15   62 1
  33   16   17 1
  34   16   63 1
  35   16   64 1
  36   17   65 1
  37   17   66 1
  38   18   19 1
  39   18   23 1
  40   19   20 1
  41   19   67 1
  42   19   68 1
  43   20   21 1
  44   20   69 1
  45   20   70 1
  46   21   22 1
  47   21   24 1
  48   22   23 1
  49   22   71 1
  50   22   72 1
  51   23   73 1
  52   23   74 1
  53   24   46 1
  54   24   75 1
  55   24   76 1
  56   26   47 am
  57   26   28 1
  58   27   28 ar
  59   27   29 ar
  60   28   32 ar
  61   29   30 ar
  62   29   77 1
  63   30   31 ar
  64   30   33 1
  65   31   32 ar
  66   31   34 1
  67   32   78 1
  68   35   36 ar
  69   35   37 ar
  70   35   47 1
  71   36   42 1
  72   36   40 ar
  73   37   38 ar
  74   37   79 1
  75   38   39 ar
  76   38   80 1
  77   39   40 ar
  78   39   41 1
  79   40   81 1
  80   41   43 1
  81   42   44 1
  82   43   82 1
  83   43   83 1
  84   43   84 1
  85   44   45 1
  86   44   85 1
  87   44   86 1
  88   45   87 1
  89   45   88 1
  90   45   89 1
  91   46   90 1
  92   46   91 1
  93   46   92 1
  94   47   48 2
  95   47   49 2
  96   50   52 1
  97   51   52 1
  98   51   93 1
  99   51   94 1
 100   51   95 1
 101   52   96 1
 102   52   97 1

#	End of record

