#	Name: ASD01850062
#	Creating user name:	WinNT
#	Creation time:	15. 06. 2019 19:38

#	Modifying user name:	WinNT
#	Modification time:	15. 06. 2019 19:38

#	Program:	/corina/corina34_cracker 3.40 0067  02.08.2006

@<TRIPOS>MOLECULE
ASD01850062
  56   59    0    0    0
SMALL
NO_CHARGES


@<TRIPOS>ATOM
   1 C1            -6.7813     6.0890     0.8448 C.ar    
   2 C2            -7.6531     6.1396     1.9189 C.ar    
   3 C3            -7.3986     5.3885     3.0509 C.ar    
   4 C4            -6.2738     4.5873     3.1110 C.ar    
   5 C5            -5.4023     4.5359     2.0388 C.ar    
   6 C6            -5.6580     5.2812     0.9036 C.ar    
   7 C7            -4.3851     2.1877     0.0516 C.3     
   8 N8            -4.4711     2.3597     1.5039 N.am    
   9 C9            -5.7746     2.3598    -0.5654 C.3     
  10 C10           -4.8214     1.3197     2.2862 C.2     
  11 C11           -5.0221     1.5236     3.7658 C.3     
  12 O12           -4.9752     0.2195     1.7994 O.2     
  13 C13           -5.8617     0.3750     4.3296 C.3     
  14 C14           -3.6613     1.5543     4.4654 C.3     
  15 C15           -3.8674     1.7964     5.9640 C.3     
  16 N16           -4.7909     0.7791     6.4847 N.am    
  17 C17           -6.0928     0.6037     5.8266 C.3     
  18 S18           -4.3721    -0.1525     7.7882 S.o2    
  19 C19           -4.9162     0.6970     9.2328 C.ar    
  20 C20           -6.1683     0.4639     9.7226 C.ar    
  21 C21           -6.5993     1.1388    10.8703 C.ar    
  22 C22           -5.7362     2.0512    11.5072 C.ar    
  23 C23           -4.4637     2.2683    10.9843 C.ar    
  24 C24           -4.0640     1.5939     9.8658 C.ar    
  25 C25           -7.8354     1.1338    11.6458 C.2     
  26 N26           -7.6880     1.9685    12.6347 N.2     
  27 N27           -6.4173     2.5511    12.5862 N.pl3   
  28 O28           -5.1519    -1.3373     7.7018 O.2     
  29 O29           -2.9519    -0.1586     7.8373 O.2     
  30 C30           -4.1762     3.6624     2.1060 C.3     
  31 F31           -7.0290     6.8227    -0.2622 F       
  32 H32           -8.5317     6.7661     1.8725 H       
  33 H33           -8.0787     5.4279     3.8890 H       
  34 H34           -6.0754     4.0013     3.9962 H       
  35 H35           -4.9773     5.2406     0.0661 H       
  36 H36           -3.7082     2.9345    -0.3633 H       
  37 H37           -4.0083     1.1902    -0.1744 H       
  38 H38           -6.4280     1.5595    -0.2183 H       
  39 H39           -6.1885     3.3226    -0.2657 H       
  40 H40           -5.6970     2.3201    -1.6520 H       
  41 H41           -5.5387     2.4683     3.9353 H       
  42 H42           -6.8217     0.3392     3.8146 H       
  43 H43           -5.3342    -0.5674     4.1827 H       
  44 H44           -3.1545     0.6008     4.3172 H       
  45 H45           -3.0552     2.3579     4.0471 H       
  46 H46           -2.9110     1.7207     6.4813 H       
  47 H47           -4.2916     2.7884     6.1189 H       
  48 H48           -6.6984     1.4985     5.9704 H       
  49 H49           -6.6046    -0.2589     6.2533 H       
  50 H50           -6.8233    -0.2375     9.2271 H       
  51 H51           -3.7932     2.9660    11.4641 H       
  52 H52           -3.0762     1.7652     9.4641 H       
  53 H53           -8.7153     0.5434    11.4370 H       
  54 H54           -6.0732     3.2041    13.2156 H       
  55 H55           -3.3608     4.1382     1.5612 H       
  56 H56           -3.8854     3.5239     3.1473 H       
@<TRIPOS>BOND
   1    1    2 ar
   2    1   31 1
   3    1    6 ar
   4    2    3 ar
   5    2   32 1
   6    3    4 ar
   7    3   33 1
   8    4    5 ar
   9    4   34 1
  10    5    6 ar
  11    5   30 1
  12    6   35 1
  13    7    8 1
  14    7    9 1
  15    7   36 1
  16    7   37 1
  17    8   10 am
  18    8   30 1
  19    9   38 1
  20    9   39 1
  21    9   40 1
  22   10   11 1
  23   10   12 2
  24   11   13 1
  25   11   14 1
  26   11   41 1
  27   13   17 1
  28   13   42 1
  29   13   43 1
  30   14   15 1
  31   14   44 1
  32   14   45 1
  33   15   16 1
  34   15   46 1
  35   15   47 1
  36   16   17 1
  37   16   18 am
  38   17   48 1
  39   17   49 1
  40   18   19 1
  41   18   28 2
  42   18   29 2
  43   19   20 ar
  44   19   24 ar
  45   20   21 ar
  46   20   50 1
  47   21   22 ar
  48   21   25 1
  49   22   23 ar
  50   22   27 1
  51   23   24 ar
  52   23   51 1
  53   24   52 1
  54   25   26 2
  55   25   53 1
  56   26   27 1
  57   27   54 1
  58   30   55 1
  59   30   56 1

#	End of record

