#	Name: ASD01911051
#	Creating user name:	WinNT
#	Creation time:	15. 06. 2019 19:57

#	Modifying user name:	WinNT
#	Modification time:	15. 06. 2019 19:57

#	Program:	/corina/corina34_cracker 3.40 0067  02.08.2006

@<TRIPOS>MOLECULE
ASD01911051
  54   57    0    0    0
SMALL
NO_CHARGES


@<TRIPOS>ATOM
   1 N1             0.1370     1.3769    -0.1916 N.3     
   2 C2             0.0779    -0.0891    -0.1176 C.3     
   3 C3            -1.3678    -0.5263     0.1414 C.3     
   4 N4            -2.2302     0.0799    -0.8843 N.am    
   5 C5            -2.1273     1.5294    -1.1120 C.3     
   6 C6            -0.6517     1.8856    -1.3217 C.3     
   7 C7            -3.0915    -0.6728    -1.5969 C.2     
   8 C8            -4.0365    -0.0282    -2.5339 C.ar    
   9 C9            -4.3110    -0.6204    -3.7687 C.ar    
  10 C10           -5.1929    -0.0201    -4.6460 C.ar    
  11 C11           -5.8093     1.1682    -4.3101 C.ar    
  12 C12           -5.5440     1.7726    -3.0772 C.ar    
  13 C13           -4.6591     1.1680    -2.1845 C.ar    
  14 C14           -6.1833     3.0061    -2.7298 C.1     
  15 O15           -3.0915    -1.8816    -1.4694 O.2     
  16 C16           -6.7075     4.0172    -2.4451 C.1     
  17 C17           -7.3468     5.2506    -2.0978 C.ar    
  18 N18           -7.0898     5.8196    -0.9239 N.ar    
  19 C19           -7.6573     6.9538    -0.5683 C.ar    
  20 C20           -8.5469     7.5978    -1.4088 C.ar    
  21 C21           -8.8445     7.0392    -2.6447 C.ar    
  22 C22           -8.2319     5.8507    -2.9975 C.ar    
  23 C23            1.4470     1.8175    -0.2628 C.ar    
  24 N24            1.6881     3.1179    -0.3355 N.ar    
  25 C25            2.9335     3.5724    -0.4045 C.ar    
  26 C26            3.9883     2.6611    -0.3994 C.ar    
  27 C27            3.6947     1.3124    -0.3222 C.ar    
  28 N28            2.4292     0.9284    -0.2509 N.ar    
  29 O29            3.1760     4.9036    -0.4793 O.3     
  30 C30            2.0402     5.7708    -0.4797 C.3     
  31 C31           -6.7697     1.8159    -5.2740 C.3     
  32 F32           -6.8712     1.0323    -6.4285 F       
  33 F33           -8.0286     1.9274    -4.6740 F       
  34 F34           -6.3009     3.0893    -5.6145 F       
  35 H35            0.4234    -0.5150    -1.0595 H       
  36 H36            0.7146    -0.4382     0.6953 H       
  37 H37           -1.4378    -1.6125     0.0834 H       
  38 H38           -1.6810    -0.1886     1.1294 H       
  39 H39           -2.6994     1.8022    -1.9987 H       
  40 H40           -2.5135     2.0646    -0.2446 H       
  41 H41           -0.5440     2.9686    -1.3821 H       
  42 H42           -0.2960     1.4322    -2.2469 H       
  43 H43           -3.8321    -1.5501    -4.0384 H       
  44 H44           -5.4009    -0.4826    -5.5995 H       
  45 H45           -4.4502     1.6300    -1.2309 H       
  46 H46           -7.4250     7.3867     0.3935 H       
  47 H47           -9.0064     8.5272    -1.1063 H       
  48 H48           -9.5362     7.5244    -3.3174 H       
  49 H49           -8.4403     5.3889    -3.9513 H       
  50 H50            5.0119     3.0010    -0.4547 H       
  51 H51            4.4886     0.5803    -0.3161 H       
  52 H52            1.4734     5.6276     0.4402 H       
  53 H53            2.3740     6.8065    -0.5433 H       
  54 H54            1.4070     5.5399    -1.3363 H       
@<TRIPOS>BOND
   1    1    2 1
   2    1   23 1
   3    1    6 1
   4    2    3 1
   5    2   35 1
   6    2   36 1
   7    3    4 1
   8    3   37 1
   9    3   38 1
  10    4    5 1
  11    4    7 am
  12    5    6 1
  13    5   39 1
  14    5   40 1
  15    6   41 1
  16    6   42 1
  17    7    8 1
  18    7   15 2
  19    8    9 ar
  20    8   13 ar
  21    9   10 ar
  22    9   43 1
  23   10   11 ar
  24   10   44 1
  25   11   12 ar
  26   11   31 1
  27   12   13 ar
  28   12   14 1
  29   13   45 1
  30   14   16 3
  31   16   17 1
  32   17   18 ar
  33   17   22 ar
  34   18   19 ar
  35   19   20 ar
  36   19   46 1
  37   20   21 ar
  38   20   47 1
  39   21   22 ar
  40   21   48 1
  41   22   49 1
  42   23   24 ar
  43   23   28 ar
  44   24   25 ar
  45   25   26 ar
  46   25   29 1
  47   26   27 ar
  48   26   50 1
  49   27   28 ar
  50   27   51 1
  51   29   30 1
  52   30   52 1
  53   30   53 1
  54   30   54 1
  55   31   32 1
  56   31   33 1
  57   31   34 1

#	End of record

