#	Name: ASD01940519
#	Creating user name:	WinNT
#	Creation time:	15. 06. 2019 20:12

#	Modifying user name:	WinNT
#	Modification time:	15. 06. 2019 20:12

#	Program:	/corina/corina34_cracker 3.40 0067  02.08.2006

@<TRIPOS>MOLECULE
ASD01940519
  44   46    0    0    0
SMALL
NO_CHARGES


@<TRIPOS>ATOM
   1 C1             0.7334     1.4149    -1.1448 C.ar    
   2 C2             0.7635     0.0087    -1.1495 C.ar    
   3 C3             1.1738    -0.6729     0.0124 C.ar    
   4 C4             1.5368     0.0977     1.1316 C.ar    
   5 C5             1.4758     1.4942     1.0447 C.ar    
   6 N6             1.0886     2.0941    -0.0561 N.ar    
   7 N7             0.0625     0.6431    -3.1405 N.2     
   8 N8             0.2978     1.7962    -2.3830 N.pl3   
   9 C9             0.3373    -0.4125    -2.4301 C.2     
  10 C10            1.9741    -0.5543     2.3768 C.2     
  11 O11            1.9797    -1.7679     2.4583 O.2     
  12 N12            2.3684     0.1934     3.4265 N.am    
  13 O13            2.7891    -0.4337     4.6243 O.3     
  14 C14            3.1787     0.4790     5.6525 C.3     
  15 C15            3.6118    -0.3049     6.8930 C.3     
  16 C16            4.3454     1.3364     5.1580 C.3     
  17 C17            1.9962     1.3826     6.0073 C.3     
  18 O18            4.0015     0.6078     7.9212 O.3     
  19 N19            1.2178    -2.0518     0.0519 N.pl3   
  20 C20            0.1291    -2.7724     0.5550 C.ar    
  21 C21            0.1213    -4.1620     0.4869 C.ar    
  22 C22           -0.9561    -4.8702     0.9856 C.ar    
  23 C23           -2.0249    -4.1978     1.5517 C.ar    
  24 C24           -2.0190    -2.8166     1.6203 C.ar    
  25 C25           -0.9430    -2.1028     1.1285 C.ar    
  26 I26           -3.6560    -5.2748     2.3057 I       
  27 F27            1.1647    -4.8182    -0.0662 F       
  28 H28            1.7536     2.0898     1.9017 H       
  29 H29            0.1730     2.7095    -2.6849 H       
  30 H30            0.2483    -1.4368    -2.7607 H       
  31 H31            2.3639     1.1612     3.3615 H       
  32 H32            2.7807    -0.9157     7.2453 H       
  33 H33            4.4543    -0.9487     6.6402 H       
  34 H34            4.0369     1.8948     4.2742 H       
  35 H35            4.6427     2.0326     5.9422 H       
  36 H36            5.1879     0.6926     4.9052 H       
  37 H37            1.1650     0.7718     6.3596 H       
  38 H38            2.2934     2.0788     6.7916 H       
  39 H39            1.6877     1.9411     5.1235 H       
  40 H40            4.2888     0.1795     8.7392 H       
  41 H41            2.0035    -2.5214    -0.2693 H       
  42 H42           -0.9638    -5.9489     0.9331 H       
  43 H43           -2.8551    -2.2952     2.0625 H       
  44 H44           -0.9378    -1.0244     1.1869 H       
@<TRIPOS>BOND
   1    1    2 ar
   2    1    6 ar
   3    1    8 1
   4    2    3 ar
   5    2    9 1
   6    3    4 ar
   7    3   19 1
   8    4    5 ar
   9    4   10 1
  10    5    6 ar
  11    5   28 1
  12    7    8 1
  13    7    9 2
  14    8   29 1
  15    9   30 1
  16   10   11 2
  17   10   12 am
  18   12   13 1
  19   12   31 1
  20   13   14 1
  21   14   15 1
  22   14   16 1
  23   14   17 1
  24   15   18 1
  25   15   32 1
  26   15   33 1
  27   16   34 1
  28   16   35 1
  29   16   36 1
  30   17   37 1
  31   17   38 1
  32   17   39 1
  33   18   40 1
  34   19   20 1
  35   19   41 1
  36   20   21 ar
  37   20   25 ar
  38   21   22 ar
  39   21   27 1
  40   22   23 ar
  41   22   42 1
  42   23   24 ar
  43   23   26 1
  44   24   25 ar
  45   24   43 1
  46   25   44 1

#	End of record

