#	Name: ASD00431391
#	Creating user name:	WinNT
#	Creation time:	15. 06. 2019 18:35

#	Modifying user name:	WinNT
#	Modification time:	15. 06. 2019 18:35

#	Program:	/corina/corina34_cracker 3.40 0067  02.08.2006

@<TRIPOS>MOLECULE
ASD00431391
  21   22    0    0    0
SMALL
NO_CHARGES


@<TRIPOS>ATOM
   1 N1             0.5605     1.5877    -0.9423 N.pl3   
   2 C2             0.3967     0.2513    -0.5709 C.ar    
   3 C3             1.5001    -0.5871    -0.4873 C.ar    
   4 C4             1.3334    -1.9125    -0.1180 C.ar    
   5 C5             0.0645    -2.3985     0.1674 C.ar    
   6 C6            -1.0324    -1.5626     0.0837 C.ar    
   7 C7            -0.8699    -0.2394    -0.2790 C.ar    
   8 O8             2.4112    -2.7360    -0.0356 O.3     
   9 S9             4.6905    -3.4653     1.2635 S.3     
  10 C10            3.2249    -2.6134     1.0415 C.2     
  11 N11            3.0051    -1.8338     2.0523 N.2     
  12 C12            3.9054    -1.8391     3.0183 C.2     
  13 C13            4.9344    -2.6628     2.8128 C.2     
  14 H14            1.4456     1.9306    -1.1420 H       
  15 H15           -0.2114     2.1719    -1.0043 H       
  16 H16            2.4863    -0.2074    -0.7100 H       
  17 H17           -0.0653    -3.4314     0.4548 H       
  18 H18           -2.0183    -1.9434     0.3059 H       
  19 H19           -1.7285     0.4130    -0.3394 H       
  20 H20            3.8159    -1.2262     3.9030 H       
  21 H21            5.7709    -2.8115     3.4795 H       
@<TRIPOS>BOND
   1    1    2 1
   2    1   14 1
   3    1   15 1
   4    2    3 ar
   5    2    7 ar
   6    3    4 ar
   7    3   16 1
   8    4    5 ar
   9    4    8 1
  10    5    6 ar
  11    5   17 1
  12    6    7 ar
  13    6   18 1
  14    7   19 1
  15    8   10 1
  16    9   10 1
  17    9   13 1
  18   10   11 2
  19   11   12 1
  20   12   13 2
  21   12   20 1
  22   13   21 1

#	End of record

