#	Name: ASD07930209
#	Creating user name:	WinNT
#	Creation time:	15. 06. 2019 21:11

#	Modifying user name:	WinNT
#	Modification time:	15. 06. 2019 21:11

#	Program:	/corina/corina34_cracker 3.40 0067  02.08.2006

@<TRIPOS>MOLECULE
ASD07930209
  53   56    0    0    0
SMALL
NO_CHARGES


@<TRIPOS>ATOM
   1 C1            -0.0285     1.4028     0.0295 C.2     
   2 C2            -0.0189     0.0348     0.0250 C.2     
   3 C3             1.2693    -0.6626     0.0075 C.2     
   4 N4             2.4061     0.0550    -0.0019 N.am    
   5 C5             2.3701     1.4311     0.0010 C.2     
   6 C6             1.1855     2.1008     0.0169 C.2     
   7 C7             3.7148    -0.6126    -0.0132 C.3     
   8 C8             4.6373     0.1647    -0.9640 C.3     
   9 N9             4.7592     1.5442    -0.4716 N.am    
  10 C10            3.6499     2.1735    -0.0153 C.2     
  11 C11            6.0560     2.2258    -0.4743 C.3     
  12 O12            3.7046     3.3245     0.3728 O.2     
  13 O13            1.3100    -1.8812     0.0019 O.2     
  14 N14           -1.2171    -0.6848     0.0375 N.pl3   
  15 C15           -1.6839    -1.4940    -0.9496 C.2     
  16 N16           -2.8314    -1.9888    -0.5732 N.2     
  17 C17           -3.1374    -1.5236     0.6474 C.2     
  18 C18           -2.1410    -0.7125     1.0505 C.2     
  19 C19           -4.3790    -1.8562     1.4340 C.3     
  20 C20            6.2433     2.9604    -1.8033 C.3     
  21 O21            5.2694     4.0003    -1.9141 O.3     
  22 C22            4.9337     4.4000    -3.1689 C.ar    
  23 C23            7.6465     3.5679    -1.8569 C.3     
  24 C24            5.6083     3.8846    -4.2661 C.ar    
  25 C25            5.2652     4.2925    -5.5406 C.ar    
  26 C26            4.2504     5.2138    -5.7231 C.ar    
  27 C27            3.5769     5.7293    -4.6311 C.ar    
  28 C28            3.9121     5.3199    -3.3550 C.ar    
  29 C29            3.8781     5.6570    -7.1145 C.3     
  30 F30            2.8857     4.8124    -7.6231 F       
  31 F31            3.3966     6.9699    -7.0725 F       
  32 F32            5.0066     5.6004    -7.9395 F       
  33 H33           -0.9652     1.9403     0.0381 H       
  34 H34            1.1815     3.1808     0.0198 H       
  35 H35            4.1370    -0.6123     0.9916 H       
  36 H36            3.6021    -1.6378    -0.3658 H       
  37 H37            5.6208    -0.3048    -0.9851 H       
  38 H38            4.2093     0.1702    -1.9664 H       
  39 H39            6.0911     2.9433     0.3455 H       
  40 H40            6.8523     1.4921    -0.3493 H       
  41 H41           -1.1887    -1.6935    -1.8884 H       
  42 H42           -2.0839    -0.1804     1.9885 H       
  43 H43           -4.1938    -2.7360     2.0503 H       
  44 H44           -4.6406    -1.0132     2.0735 H       
  45 H45           -5.2005    -2.0600     0.7472 H       
  46 H46            6.1199     2.2577    -2.6274 H       
  47 H47            7.7699     4.2706    -1.0328 H       
  48 H48            8.3893     2.7747    -1.7723 H       
  49 H49            7.7799     4.0912    -2.8036 H       
  50 H50            6.4012     3.1652    -4.1240 H       
  51 H51            5.7902     3.8918    -6.3950 H       
  52 H52            2.7851     6.4493    -4.7763 H       
  53 H53            3.3857     5.7229    -2.5024 H       
@<TRIPOS>BOND
   1    1    2 2
   2    1    6 1
   3    1   33 1
   4    2    3 1
   5    2   14 1
   6    3    4 am
   7    3   13 2
   8    4    5 1
   9    4    7 1
  10    5    6 2
  11    5   10 1
  12    6   34 1
  13    7    8 1
  14    7   35 1
  15    7   36 1
  16    8    9 1
  17    8   37 1
  18    8   38 1
  19    9   10 am
  20    9   11 1
  21   10   12 2
  22   11   20 1
  23   11   39 1
  24   11   40 1
  25   14   15 1
  26   14   18 1
  27   15   16 2
  28   15   41 1
  29   16   17 1
  30   17   18 2
  31   17   19 1
  32   18   42 1
  33   19   43 1
  34   19   44 1
  35   19   45 1
  36   20   21 1
  37   20   23 1
  38   20   46 1
  39   21   22 1
  40   22   24 ar
  41   22   28 ar
  42   23   47 1
  43   23   48 1
  44   23   49 1
  45   24   25 ar
  46   24   50 1
  47   25   26 ar
  48   25   51 1
  49   26   27 ar
  50   26   29 1
  51   27   28 ar
  52   27   52 1
  53   28   53 1
  54   29   30 1
  55   29   31 1
  56   29   32 1

#	End of record

