#	Name: ASD01510062
#	Creating user name:	WinNT
#	Creation time:	15. 06. 2019 19:21

#	Modifying user name:	WinNT
#	Modification time:	15. 06. 2019 19:21

#	Program:	/corina/corina34_cracker 3.40 0067  02.08.2006

@<TRIPOS>MOLECULE
ASD01510062
  48   50    0    0    0
SMALL
NO_CHARGES


@<TRIPOS>ATOM
   1 C1            -0.0173     1.4248     0.0099 C.3     
   2 O2             0.0021    -0.0041     0.0020 O.3     
   3 C3            -1.1979    -0.6362     0.0101 C.ar    
   4 N4            -2.3277     0.0631     0.0246 N.ar    
   5 C5            -3.5034    -0.5463     0.0321 C.ar    
   6 N6            -3.6055    -1.8666     0.0260 N.ar    
   7 C7            -2.5206    -2.6337     0.0115 C.ar    
   8 C8            -1.2634    -2.0296    -0.0026 C.ar    
   9 S9             0.2056    -3.0023    -0.0227 S.3     
  10 C10            0.5150    -3.2174    -1.7439 C.ar    
  11 C11           -0.3437    -2.6544    -2.6813 C.ar    
  12 C12           -0.1018    -2.8233    -4.0309 C.ar    
  13 C13            0.9936    -3.5511    -4.4539 C.ar    
  14 C14            1.8565    -4.1169    -3.5223 C.ar    
  15 C15            1.6203    -3.9449    -2.1662 C.ar    
  16 N16            2.9634    -4.8529    -3.9513 N.pl3   
  17 O17           -2.6342    -3.9853     0.0057 O.3     
  18 C18           -3.9572    -4.5252     0.0158 C.3     
  19 N19           -4.6593     0.2192     0.0473 N.3     
  20 C20           -5.8559    -0.6340     0.0536 C.3     
  21 C21           -7.1052     0.2448     0.1506 C.3     
  22 N22           -7.1336     1.1784    -0.9840 N.3     
  23 C23           -5.9370     2.0315    -0.9903 C.3     
  24 C24           -4.6877     1.1528    -1.0873 C.3     
  25 C25           -8.3583     1.9894    -0.9679 C.3     
  26 H26            1.0053     1.8021     0.0021 H       
  27 H27           -0.5445     1.7859    -0.8732 H       
  28 H28           -0.5275     1.7763     0.9067 H       
  29 H29           -1.2010    -2.0849    -2.3540 H       
  30 H30           -0.7708    -2.3855    -4.7570 H       
  31 H31            1.1796    -3.6811    -5.5098 H       
  32 H32            2.2891    -4.3833    -1.4404 H       
  33 H33            3.1303    -4.9695    -4.8997 H       
  34 H34            3.5651    -5.2474    -3.3008 H       
  35 H35           -4.4964    -4.1822    -0.8672 H       
  36 H36           -3.9054    -5.6140     0.0097 H       
  37 H37           -4.4791    -4.1913     0.9126 H       
  38 H38           -5.8918    -1.2168    -0.8668 H       
  39 H39           -5.8177    -1.3076     0.9097 H       
  40 H40           -7.9951    -0.3843     0.1262 H       
  41 H41           -7.0826     0.8073     1.0839 H       
  42 H42           -5.9752     2.7051    -1.8464 H       
  43 H43           -5.9011     2.6144    -0.0699 H       
  44 H44           -3.7978     1.7818    -1.0629 H       
  45 H45           -4.7103     0.5902    -2.0206 H       
  46 H46           -8.4021     2.5630    -0.0421 H       
  47 H47           -8.3536     2.6715    -1.8181 H       
  48 H48           -9.2280     1.3354    -1.0316 H       
@<TRIPOS>BOND
   1    1    2 1
   2    1   26 1
   3    1   27 1
   4    1   28 1
   5    2    3 1
   6    3    4 ar
   7    3    8 ar
   8    4    5 ar
   9    5    6 ar
  10    5   19 1
  11    6    7 ar
  12    7    8 ar
  13    7   17 1
  14    8    9 1
  15    9   10 1
  16   10   11 ar
  17   10   15 ar
  18   11   12 ar
  19   11   29 1
  20   12   13 ar
  21   12   30 1
  22   13   14 ar
  23   13   31 1
  24   14   15 ar
  25   14   16 1
  26   15   32 1
  27   16   33 1
  28   16   34 1
  29   17   18 1
  30   18   35 1
  31   18   36 1
  32   18   37 1
  33   19   20 1
  34   19   24 1
  35   20   21 1
  36   20   38 1
  37   20   39 1
  38   21   22 1
  39   21   40 1
  40   21   41 1
  41   22   23 1
  42   22   25 1
  43   23   24 1
  44   23   42 1
  45   23   43 1
  46   24   44 1
  47   24   45 1
  48   25   46 1
  49   25   47 1
  50   25   48 1

#	End of record

