#	Name: ASD03730640
#	Creating user name:	WinNT
#	Creation time:	15. 06. 2019 20:44

#	Modifying user name:	WinNT
#	Modification time:	15. 06. 2019 20:44

#	Program:	/corina/corina34_cracker 3.40 0067  02.08.2006

@<TRIPOS>MOLECULE
ASD03730640
  57   62    0    0    0
SMALL
NO_CHARGES


@<TRIPOS>ATOM
   1 O1            -0.2822     1.2749     0.6603 O.3     
   2 C2            -0.2395    -0.1639     0.6954 C.3     
   3 O3             0.9273    -0.4906    -0.0823 O.3     
   4 C4             1.7571     0.5879     0.0333 C.ar    
   5 C5             1.0124     1.6736     0.4885 C.ar    
   6 C6             3.1100     0.7330    -0.2160 C.ar    
   7 C7             3.7360     1.9598    -0.0168 C.ar    
   8 C8             2.9799     3.0396     0.4291 C.ar    
   9 C9             1.6319     2.8965     0.6841 C.ar    
  10 O10            5.0443     2.3077    -0.1823 O.3     
  11 C11            3.9184     4.2131     0.5173 C.3     
  12 C12            5.1468     3.7418    -0.2732 C.3     
  13 N13            3.3387     6.3875     0.9142 N.am    
  14 C14            3.3235     5.4624    -0.0662 C.2     
  15 C15            4.2652     4.5624     1.9339 C.ar    
  16 C16            4.8370     3.8570     2.9836 C.ar    
  17 C17            5.0332     4.4826     4.2144 C.ar    
  18 C18            4.6560     5.8006     4.3794 C.ar    
  19 C19            4.0880     6.5020     3.3354 C.ar    
  20 C20            3.8861     5.8898     2.0996 C.ar    
  21 O21            2.9101     5.6099    -1.1969 O.2     
  22 C22            2.8401     7.7558     0.7551 C.3     
  23 C23            1.3562     7.8041     1.1246 C.3     
  24 C24            0.8355     9.2332     0.9585 C.3     
  25 C25           -0.6484     9.2815     1.3280 C.3     
  26 C26           -1.1691    10.7105     1.1619 C.3     
  27 C27            5.2382     2.4407     2.7968 C.ar    
  28 C28            4.4452     1.4149     3.3106 C.ar    
  29 C29            4.8241     0.0985     3.1335 C.ar    
  30 C30            5.9872    -0.2025     2.4481 C.ar    
  31 C31            6.7772     0.8112     1.9371 C.ar    
  32 C32            6.4054     2.1303     2.1027 C.ar    
  33 Cl33           2.9855     1.7917     4.1714 Cl      
  34 H34           -0.1285    -0.5189     1.7200 H       
  35 H35           -1.1348    -0.5850     0.2380 H       
  36 H36            3.6843    -0.1115    -0.5673 H       
  37 H37            1.0581     3.7406     1.0372 H       
  38 H38            6.0664     4.0945     0.1938 H       
  39 H39            5.0882     4.0691    -1.3112 H       
  40 H40            5.4776     3.9387     5.0348 H       
  41 H41            4.8069     6.2862     5.3322 H       
  42 H42            3.7972     7.5324     3.4772 H       
  43 H43            3.3995     8.4247     1.4092 H       
  44 H44            2.9670     8.0706    -0.2807 H       
  45 H45            0.7969     7.1353     0.4705 H       
  46 H46            1.2293     7.4893     2.1605 H       
  47 H47            1.3949     9.9020     1.6126 H       
  48 H48            0.9624     9.5480    -0.0773 H       
  49 H49           -1.2077     8.6126     0.6739 H       
  50 H50           -0.7753     8.9667     2.3639 H       
  51 H51           -1.0422    11.0253     0.1260 H       
  52 H52           -2.2262    10.7450     1.4252 H       
  53 H53           -0.6097    11.3794     1.8160 H       
  54 H54            4.2113    -0.6971     3.5310 H       
  55 H55            6.2799    -1.2331     2.3118 H       
  56 H56            7.6847     0.5701     1.4035 H       
  57 H57            7.0207     2.9205     1.6985 H       
@<TRIPOS>BOND
   1    1    2 1
   2    1    5 1
   3    2    3 1
   4    2   34 1
   5    2   35 1
   6    3    4 1
   7    4    5 ar
   8    4    6 ar
   9    5    9 ar
  10    6    7 ar
  11    6   36 1
  12    7    8 ar
  13    7   10 1
  14    8    9 ar
  15    8   11 1
  16    9   37 1
  17   10   12 1
  18   11   12 1
  19   11   14 1
  20   11   15 1
  21   12   38 1
  22   12   39 1
  23   13   14 am
  24   13   20 1
  25   13   22 1
  26   14   21 2
  27   15   16 ar
  28   15   20 ar
  29   16   17 ar
  30   16   27 1
  31   17   18 ar
  32   17   40 1
  33   18   19 ar
  34   18   41 1
  35   19   20 ar
  36   19   42 1
  37   22   23 1
  38   22   43 1
  39   22   44 1
  40   23   24 1
  41   23   45 1
  42   23   46 1
  43   24   25 1
  44   24   47 1
  45   24   48 1
  46   25   26 1
  47   25   49 1
  48   25   50 1
  49   26   51 1
  50   26   52 1
  51   26   53 1
  52   27   28 ar
  53   27   32 ar
  54   28   29 ar
  55   28   33 1
  56   29   30 ar
  57   29   54 1
  58   30   31 ar
  59   30   55 1
  60   31   32 ar
  61   31   56 1
  62   32   57 1

#	End of record

