#	Name: ASD01940150
#	Creating user name:	WinNT
#	Creation time:	15. 06. 2019 20:11

#	Modifying user name:	WinNT
#	Modification time:	15. 06. 2019 20:11

#	Program:	/corina/corina34_cracker 3.40 0067  02.08.2006

@<TRIPOS>MOLECULE
ASD01940150
  47   49    0    0    0
SMALL
NO_CHARGES


@<TRIPOS>ATOM
   1 C1             3.5247    -0.4092    -2.4469 C.3     
   2 C2             3.2370    -1.9117    -2.4712 C.3     
   3 C3             2.2935    -0.9404    -3.1836 C.3     
   4 S4             3.2510     0.4709    -0.8845 S.o2    
   5 O5             4.2661     1.4430    -0.6753 O.2     
   6 O6             1.8774     0.8017    -0.7326 O.2     
   7 N7             3.5287    -0.6678     0.2853 N.am    
   8 C8             4.6908     0.1006    -3.2963 C.3     
   9 C9             4.3707    -0.1056    -4.7781 C.3     
  10 C10            4.7509    -1.5297    -5.1886 C.3     
  11 O11            4.2026    -1.8166    -6.4766 O.3     
  12 O12            5.1146     0.8303    -5.5609 O.3     
  13 C13            4.0306    -1.9275    -0.0682 C.ar    
  14 C14            3.7359    -3.0420     0.7161 C.ar    
  15 C15            4.2354    -4.2876     0.3609 C.ar    
  16 C16            5.0246    -4.4194    -0.7709 C.ar    
  17 C17            5.3161    -3.3115    -1.5475 C.ar    
  18 C18            4.8164    -2.0689    -1.2016 C.ar    
  19 N19            2.9379    -2.9051     1.8602 N.pl3   
  20 C20            1.5776    -2.6071     1.7324 C.ar    
  21 C21            0.6442    -3.2478     2.5414 C.ar    
  22 C22           -0.6994    -2.9500     2.4121 C.ar    
  23 C23           -1.1154    -2.0163     1.4792 C.ar    
  24 C24           -0.1895    -1.3787     0.6739 C.ar    
  25 C25            1.1558    -1.6670     0.8020 C.ar    
  26 I26           -3.1528    -1.5683     1.2860 I       
  27 F27            1.0505    -4.1600     3.4514 F       
  28 F28            5.5107    -5.6317    -1.1164 F       
  29 F29            3.9528    -5.3702     1.1180 F       
  30 H30            3.8784    -2.5370    -3.0923 H       
  31 H31            2.8832    -2.3713    -1.5484 H       
  32 H32            1.3190    -0.7611    -2.7294 H       
  33 H33            2.3141    -0.9268    -4.2733 H       
  34 H34            3.3439    -0.4629     1.2152 H       
  35 H35            4.8448     1.1621    -3.1021 H       
  36 H36            5.5954    -0.4507    -3.0398 H       
  37 H37            3.3045     0.0480    -4.9444 H       
  38 H38            5.8365    -1.6189    -5.2278 H       
  39 H39            4.3543    -2.2361    -4.4593 H       
  40 H40            4.3389    -2.7285    -6.7679 H       
  41 H41            6.0480     0.6008    -5.6663 H       
  42 H42            5.9320    -3.4181    -2.4282 H       
  43 H43            5.0420    -1.2075    -1.8127 H       
  44 H44            3.3291    -3.0170     2.7407 H       
  45 H45           -1.4250    -3.4465     3.0392 H       
  46 H46           -0.5180    -0.6511    -0.0535 H       
  47 H47            1.8781    -1.1649     0.1755 H       
@<TRIPOS>BOND
   1    1    2 1
   2    1    3 1
   3    1    4 1
   4    1    8 1
   5    2    3 1
   6    2   30 1
   7    2   31 1
   8    3   32 1
   9    3   33 1
  10    4    5 2
  11    4    6 2
  12    4    7 am
  13    7   13 1
  14    7   34 1
  15    8    9 1
  16    8   35 1
  17    8   36 1
  18    9   10 1
  19    9   12 1
  20    9   37 1
  21   10   11 1
  22   10   38 1
  23   10   39 1
  24   11   40 1
  25   12   41 1
  26   13   14 ar
  27   13   18 ar
  28   14   15 ar
  29   14   19 1
  30   15   16 ar
  31   15   29 1
  32   16   17 ar
  33   16   28 1
  34   17   18 ar
  35   17   42 1
  36   18   43 1
  37   19   20 1
  38   19   44 1
  39   20   21 ar
  40   20   25 ar
  41   21   22 ar
  42   21   27 1
  43   22   23 ar
  44   22   45 1
  45   23   24 ar
  46   23   26 1
  47   24   25 ar
  48   24   46 1
  49   25   47 1

#	End of record

