#	Name: ASD01881734
#	Creating user name:	WinNT
#	Creation time:	15. 06. 2019 19:43

#	Modifying user name:	WinNT
#	Modification time:	15. 06. 2019 19:43

#	Program:	/corina/corina34_cracker 3.40 0067  02.08.2006

@<TRIPOS>MOLECULE
ASD01881734
  40   42    0    0    0
SMALL
NO_CHARGES


@<TRIPOS>ATOM
   1 C1             0.1761     1.6252     0.1912 C.2     
   2 C2             0.0514     0.1234     0.1935 C.3     
   3 C3            -0.7914    -0.3203    -1.0038 C.3     
   4 C4            -1.0227    -1.8310    -0.9330 C.3     
   5 O5             1.2565     2.1414     0.0295 O.2     
   6 O6            -0.9139     2.3895     0.3632 O.3     
   7 O7             1.3516    -0.4627     0.1041 O.3     
   8 N8             2.4721    -5.0535     2.8741 N.pl3   
   9 N9             3.8381    -5.0952     2.5580 N.2     
  10 N10            4.1362    -4.0891     1.8140 N.2     
  11 C11            3.0430    -3.3340     1.5869 C.ar    
  12 C12            1.9628    -3.9335     2.2575 C.ar    
  13 C13            2.8277    -2.1559     0.8586 C.ar    
  14 C14            1.5636    -1.6054     0.8102 C.ar    
  15 C15            0.5031    -2.2112     1.4796 C.ar    
  16 C16            0.6982    -3.3592     2.1947 C.ar    
  17 C17            1.7320    -6.0162     3.6938 C.3     
  18 C18            1.7704    -5.5748     5.1583 C.3     
  19 C19            0.9526    -6.3887     6.1631 C.3     
  20 C20            2.4789    -6.4943     6.1549 C.3     
  21 Br21           4.2616    -1.3262    -0.0532 Br      
  22 C22           -0.7190     3.8283     0.3496 C.3     
  23 H23           -0.4301    -0.1998     1.1165 H       
  24 H24           -1.7514     0.1956    -0.9835 H       
  25 H25           -0.2672    -0.0759    -1.9277 H       
  26 H26           -0.0627    -2.3469    -0.9533 H       
  27 H27           -1.5470    -2.0754    -0.0091 H       
  28 H28           -1.6232    -2.1471    -1.7860 H       
  29 H29           -0.4814    -1.7696     1.4338 H       
  30 H30           -0.1306    -3.8212     2.7105 H       
  31 H31            0.6970    -6.0618     3.3551 H       
  32 H32            2.1891    -7.0011     3.5991 H       
  33 H33            1.8453    -4.5000     5.3235 H       
  34 H34            0.4898    -5.8494     6.9896 H       
  35 H35            0.3872    -7.2386     5.7808 H       
  36 H36            2.9177    -7.4137     5.7673 H       
  37 H37            3.0203    -6.0245     6.9761 H       
  38 H38           -0.0346     4.1098     1.1499 H       
  39 H39           -0.2989     4.1290    -0.6102 H       
  40 H40           -1.6771     4.3261     0.4989 H       
@<TRIPOS>BOND
   1    1    2 1
   2    1    5 2
   3    1    6 1
   4    2    3 1
   5    2    7 1
   6    2   23 1
   7    3    4 1
   8    3   24 1
   9    3   25 1
  10    4   26 1
  11    4   27 1
  12    4   28 1
  13    6   22 1
  14    7   14 1
  15    8    9 1
  16    8   12 1
  17    8   17 1
  18    9   10 2
  19   10   11 1
  20   11   12 ar
  21   11   13 ar
  22   12   16 ar
  23   13   14 ar
  24   13   21 1
  25   14   15 ar
  26   15   16 ar
  27   15   29 1
  28   16   30 1
  29   17   18 1
  30   17   31 1
  31   17   32 1
  32   18   19 1
  33   18   20 1
  34   18   33 1
  35   19   20 1
  36   19   34 1
  37   19   35 1
  38   20   36 1
  39   20   37 1
  40   22   38 1
  41   22   39 1
  42   22   40 1

#	End of record

