#	Name: ASD01917137
#	Creating user name:	WinNT
#	Creation time:	15. 06. 2019 20:08

#	Modifying user name:	WinNT
#	Modification time:	15. 06. 2019 20:08

#	Program:	/corina/corina34_cracker 3.40 0067  02.08.2006

@<TRIPOS>MOLECULE
ASD01917137
  50   53    0    0    0
SMALL
NO_CHARGES


@<TRIPOS>ATOM
   1 C1            -0.0538     1.3780     0.0877 C.2     
   2 N2             0.0342     0.0587    -0.1201 N.2     
   3 C3            -1.1743    -0.4582    -0.1452 C.2     
   4 N4            -2.0753     0.5471     0.0510 N.pl3   
   5 C5            -1.3578     1.7043     0.2024 C.2     
   6 C6            -1.5012    -1.8856    -0.3514 C.ar    
   7 C7            -0.5588    -2.7450    -0.9177 C.ar    
   8 C8            -0.8685    -4.0754    -1.1074 C.ar    
   9 C9            -2.1131    -4.5593    -0.7367 C.ar    
  10 C10           -3.0527    -3.7101    -0.1739 C.ar    
  11 C11           -2.7512    -2.3791     0.0250 C.ar    
  12 Br12           1.4021     2.5788     0.2082 Br      
  13 C13           -3.5336     0.4137     0.0958 C.3     
  14 C14           -3.9658     0.0946     1.5038 C.2     
  15 N15           -5.2730    -0.0734     1.7857 N.am    
  16 C16           -5.7163    -0.3854     3.1530 C.3     
  17 C17           -6.2945     0.0564     0.7356 C.3     
  18 C18           -7.3763     1.0247     1.2258 C.3     
  19 N19           -7.8797     0.5721     2.5295 N.3     
  20 C20           -6.8221     0.6012     3.5432 C.3     
  21 O21           -3.1373    -0.0112     2.3832 O.2     
  22 C22           -8.9701     1.3279     2.9306 C.ar    
  23 N23           -9.4269     2.3151     2.1631 N.ar    
  24 C24          -10.4631     3.0374     2.5376 C.ar    
  25 N25          -11.0884     2.8194     3.6765 N.ar    
  26 C26          -10.6929     1.8515     4.4990 C.ar    
  27 C27           -9.6079     1.0623     4.1399 C.ar    
  28 F28           -2.4118    -5.8634    -0.9251 F       
  29 O29          -11.3429     1.6351     5.6686 O.3     
  30 C30          -12.4523     2.4868     5.9614 C.3     
  31 H31           -1.7601     2.6916     0.3752 H       
  32 H32            0.4113    -2.3688    -1.2073 H       
  33 H33           -0.1400    -4.7413    -1.5459 H       
  34 H34           -4.0212    -4.0922     0.1132 H       
  35 H35           -3.4839    -1.7182     0.4640 H       
  36 H36           -3.9939     1.3492    -0.2223 H       
  37 H37           -3.8456    -0.3900    -0.5711 H       
  38 H38           -6.1045    -1.4033     3.1887 H       
  39 H39           -4.8773    -0.2861     3.8416 H       
  40 H40           -5.8375     0.4477    -0.1734 H       
  41 H41           -6.7392    -0.9183     0.5348 H       
  42 H42           -6.9517     2.0236     1.3267 H       
  43 H43           -8.1959     1.0483     0.5076 H       
  44 H44           -7.2363     0.3133     4.5094 H       
  45 H45           -6.4093     1.6078     3.6093 H       
  46 H46          -10.8097     3.8314     1.8926 H       
  47 H47           -9.2626     0.2684     4.7856 H       
  48 H48          -13.2075     2.3805     5.1826 H       
  49 H49          -12.8810     2.2072     6.9238 H       
  50 H50          -12.1147     3.5225     6.0012 H       
@<TRIPOS>BOND
   1    1    2 1
   2    1   12 1
   3    1    5 2
   4    2    3 2
   5    3    4 1
   6    3    6 1
   7    4    5 1
   8    4   13 1
   9    5   31 1
  10    6    7 ar
  11    6   11 ar
  12    7    8 ar
  13    7   32 1
  14    8    9 ar
  15    8   33 1
  16    9   10 ar
  17    9   28 1
  18   10   11 ar
  19   10   34 1
  20   11   35 1
  21   13   14 1
  22   13   36 1
  23   13   37 1
  24   14   15 am
  25   14   21 2
  26   15   16 1
  27   15   17 1
  28   16   20 1
  29   16   38 1
  30   16   39 1
  31   17   18 1
  32   17   40 1
  33   17   41 1
  34   18   19 1
  35   18   42 1
  36   18   43 1
  37   19   20 1
  38   19   22 1
  39   20   44 1
  40   20   45 1
  41   22   23 ar
  42   22   27 ar
  43   23   24 ar
  44   24   25 ar
  45   24   46 1
  46   25   26 ar
  47   26   27 ar
  48   26   29 1
  49   27   47 1
  50   29   30 1
  51   30   48 1
  52   30   49 1
  53   30   50 1

#	End of record

