#	Name: ASD01816566
#	Creating user name:	WinNT
#	Creation time:	15. 06. 2019 19:35

#	Modifying user name:	WinNT
#	Modification time:	15. 06. 2019 19:35

#	Program:	/corina/corina34_cracker 3.40 0067  02.08.2006

@<TRIPOS>MOLECULE
ASD01816566
  54   59    0    0    0
SMALL
NO_CHARGES


@<TRIPOS>ATOM
   1 C1            -0.9769    -4.2129    -0.6178 C.ar    
   2 C2             0.3065    -4.6983    -0.4293 C.ar    
   3 C3             1.3748    -3.8332    -0.3037 C.ar    
   4 C4             1.1704    -2.4585    -0.3657 C.ar    
   5 C5            -0.1316    -1.9680    -0.5573 C.ar    
   6 C6            -1.2022    -2.8507    -0.6828 C.ar    
   7 N7             2.2381    -1.5863    -0.2394 N.pl3   
   8 C8             2.1017    -0.2515    -0.2906 C.2     
   9 C9             0.8779     0.3425    -0.4740 C.2     
  10 C10           -0.3260    -0.5072    -0.6201 C.2     
  11 C11            0.3899     1.7145    -0.5746 C.2     
  12 N12           -0.9454     1.6265    -0.7573 N.am    
  13 N13           -1.3448     0.2878    -0.7803 N.2     
  14 C14           -1.8063     2.7204    -0.9031 C.ar    
  15 O15            1.0546     2.7355    -0.5069 O.2     
  16 C16            3.5776    -2.1451    -0.0404 C.3     
  17 C17            3.7040    -2.6564     1.3716 C.ar    
  18 C18            2.5790    -2.7692     2.1678 C.ar    
  19 C19            2.6917    -3.2371     3.4624 C.ar    
  20 C20            3.9359    -3.5947     3.9640 C.ar    
  21 C21            5.0635    -3.4807     3.1620 C.ar    
  22 C22            4.9438    -3.0170     1.8665 C.ar    
  23 C23           -2.9016     2.8614    -0.0604 C.ar    
  24 N24            4.0536    -4.0694     5.2777 N.pl3   
  25 C25            5.1993    -4.4500     5.8869 C.2     
  26 C26            4.8869    -4.8417     7.1438 C.2     
  27 C27            3.5051    -4.6963     7.3095 C.2     
  28 N28            3.0058    -4.2280     6.1940 N.2     
  29 Br29           3.1187    -4.5177    -0.0464 Br      
  30 F30           -2.4541    -2.3777    -0.8675 F       
  31 C31           -1.5641     3.6702    -1.8870 C.ar    
  32 C32           -2.4153     4.7488    -2.0279 C.ar    
  33 C33           -3.5076     4.8835    -1.1909 C.ar    
  34 C34           -3.7487     3.9420    -0.2066 C.ar    
  35 C35           -3.1653     1.8360     1.0120 C.3     
  36 H36           -1.8034    -4.9009    -0.7187 H       
  37 H37            0.4731    -5.7642    -0.3797 H       
  38 H38            2.9778     0.3710    -0.1843 H       
  39 H39            3.7364    -2.9660    -0.7397 H       
  40 H40            4.3241    -1.3701    -0.2143 H       
  41 H41            1.6114    -2.4909     1.7770 H       
  42 H42            1.8129    -3.3244     4.0840 H       
  43 H43            6.0328    -3.7577     3.5496 H       
  44 H44            5.8205    -2.9281     1.2421 H       
  45 H45            6.1864    -4.4430     5.4486 H       
  46 H46            5.5814    -5.2029     7.8879 H       
  47 H47            2.9473    -4.9265     8.2051 H       
  48 H48           -0.7109     3.5658    -2.5409 H       
  49 H49           -2.2274     5.4880    -2.7926 H       
  50 H50           -4.1715     5.7279    -1.3029 H       
  51 H51           -4.6029     4.0499     0.4454 H       
  52 H52           -2.6530     2.1287     1.9285 H       
  53 H53           -4.2373     1.7733     1.1990 H       
  54 H54           -2.7962     0.8642     0.6840 H       
@<TRIPOS>BOND
   1    1    2 ar
   2    1    6 ar
   3    1   36 1
   4    2    3 ar
   5    2   37 1
   6    3    4 ar
   7    3   29 1
   8    4    5 ar
   9    4    7 1
  10    5    6 ar
  11    5   10 1
  12    6   30 1
  13    7    8 1
  14    7   16 1
  15    8    9 2
  16    8   38 1
  17    9   10 1
  18    9   11 1
  19   10   13 2
  20   11   12 am
  21   11   15 2
  22   12   13 1
  23   12   14 1
  24   14   31 ar
  25   14   23 ar
  26   16   17 1
  27   16   39 1
  28   16   40 1
  29   17   18 ar
  30   17   22 ar
  31   18   19 ar
  32   18   41 1
  33   19   20 ar
  34   19   42 1
  35   20   21 ar
  36   20   24 1
  37   21   22 ar
  38   21   43 1
  39   22   44 1
  40   23   35 1
  41   23   34 ar
  42   24   25 1
  43   24   28 1
  44   25   26 2
  45   25   45 1
  46   26   27 1
  47   26   46 1
  48   27   28 2
  49   27   47 1
  50   31   32 ar
  51   31   48 1
  52   32   33 ar
  53   32   49 1
  54   33   34 ar
  55   33   50 1
  56   34   51 1
  57   35   52 1
  58   35   53 1
  59   35   54 1

#	End of record

