#	Name: ASD03090970
#	Creating user name:	WinNT
#	Creation time:	15. 06. 2019 20:29

#	Modifying user name:	WinNT
#	Modification time:	15. 06. 2019 20:29

#	Program:	/corina/corina34_cracker 3.40 0067  02.08.2006

@<TRIPOS>MOLECULE
ASD03090970
  61   64    0    0    0
SMALL
NO_CHARGES


@<TRIPOS>ATOM
   1 N1             0.8886     2.1312    -0.0628 N.am    
   2 C2             0.6397     0.8221     0.1394 C.2     
   3 O3            -0.4751     0.4579     0.4715 O.2     
   4 N4             1.6149    -0.0763    -0.0241 N.2     
   5 S5             3.3209    -1.4399    -1.6772 S.3     
   6 C6             1.9837    -0.4426    -1.2494 C.2     
   7 N7             1.3835    -0.1077    -2.4194 N.pl3   
   8 C8             1.9389    -0.6017    -3.5603 C.2     
   9 C9             3.0151    -1.3643    -3.4210 C.2     
  10 O10           -3.1312     3.0956    -2.5463 O.3     
  11 C11           -2.9323     4.5065    -2.6857 C.3     
  12 C12           -1.9088     4.7390    -3.8055 C.3     
  13 O13           -0.6883     4.0862    -3.4394 O.3     
  14 C14           -0.7926     2.8142    -2.9663 C.ar    
  15 C15           -2.0124     2.3195    -2.5182 C.ar    
  16 C16            0.3337     2.0073    -2.9338 C.ar    
  17 C17            0.2440     0.7086    -2.4520 C.ar    
  18 C18           -0.9744     0.2185    -2.0028 C.ar    
  19 C19           -2.0979     1.0219    -2.0363 C.ar    
  20 F20           -2.3904     4.2014    -5.0039 F       
  21 F21           -1.6822     6.1108    -3.9602 F       
  22 F22           -4.1434     5.1231    -3.0180 F       
  23 F23           -2.4465     5.0354    -1.4852 F       
  24 C24            3.8105    -2.0276    -4.5157 C.3     
  25 C25            2.2538     2.5824    -0.3433 C.3     
  26 C26           -0.2071     3.1021    -0.0082 C.3     
  27 C27           -0.3953     3.5677     1.4127 C.ar    
  28 C28            0.3736     4.6042     1.9080 C.ar    
  29 C29            0.2011     5.0312     3.2113 C.ar    
  30 C30           -0.7408     4.4221     4.0193 C.ar    
  31 C31           -1.5104     3.3862     3.5237 C.ar    
  32 C32           -1.3408     2.9621     2.2190 C.ar    
  33 C33           -0.9282     4.8870     5.4404 C.3     
  34 C34           -1.3356     6.3618     5.4451 C.3     
  35 C35           -2.0230     4.0535     6.1095 C.3     
  36 C36            0.3835     4.7178     6.2096 C.3     
  37 H37            1.5227    -0.3829    -4.5326 H       
  38 H38            1.2817     2.3893    -3.2828 H       
  39 H39           -1.0443    -0.7916    -1.6269 H       
  40 H40           -3.0449     0.6387    -1.6860 H       
  41 H41            4.6369    -2.5866    -4.0768 H       
  42 H42            3.1659    -2.7084    -5.0716 H       
  43 H43            4.2039    -1.2674    -5.1906 H       
  44 H44            2.4266     2.5703    -1.4195 H       
  45 H45            2.3862     3.5962     0.0346 H       
  46 H46            2.9644     1.9165     0.1462 H       
  47 H47            0.0323     3.9562    -0.6417 H       
  48 H48           -1.1257     2.6337    -0.3617 H       
  49 H49            1.1095     5.0801     1.2767 H       
  50 H50            0.8023     5.8406     3.5985 H       
  51 H51           -2.2460     2.9101     4.1550 H       
  52 H52           -1.9446     2.1552     1.8307 H       
  53 H53           -2.2701     6.4823     4.8971 H       
  54 H54           -1.4712     6.6980     6.4730 H       
  55 H55           -0.5557     6.9556     4.9684 H       
  56 H56           -1.7328     3.0028     6.1062 H       
  57 H57           -2.1585     4.3897     7.1375 H       
  58 H58           -2.9575     4.1740     5.5616 H       
  59 H59            1.1634     5.3116     5.7329 H       
  60 H60            0.2479     5.0541     7.2375 H       
  61 H61            0.6737     3.6671     6.2063 H       
@<TRIPOS>BOND
   1    1    2 am
   2    1   25 1
   3    1   26 1
   4    2    3 2
   5    2    4 1
   6    4    6 2
   7    5    6 1
   8    5    9 1
   9    6    7 1
  10    7    8 1
  11    7   17 1
  12    8    9 2
  13    8   37 1
  14    9   24 1
  15   10   11 1
  16   10   15 1
  17   11   12 1
  18   11   22 1
  19   11   23 1
  20   12   13 1
  21   12   20 1
  22   12   21 1
  23   13   14 1
  24   14   15 ar
  25   14   16 ar
  26   15   19 ar
  27   16   17 ar
  28   16   38 1
  29   17   18 ar
  30   18   19 ar
  31   18   39 1
  32   19   40 1
  33   24   41 1
  34   24   42 1
  35   24   43 1
  36   25   44 1
  37   25   45 1
  38   25   46 1
  39   26   27 1
  40   26   47 1
  41   26   48 1
  42   27   28 ar
  43   27   32 ar
  44   28   29 ar
  45   28   49 1
  46   29   30 ar
  47   29   50 1
  48   30   31 ar
  49   30   33 1
  50   31   32 ar
  51   31   51 1
  52   32   52 1
  53   33   34 1
  54   33   36 1
  55   33   35 1
  56   34   53 1
  57   34   54 1
  58   34   55 1
  59   35   56 1
  60   35   57 1
  61   35   58 1
  62   36   59 1
  63   36   60 1
  64   36   61 1

#	End of record

