#	Name: ASD03090838
#	Creating user name:	WinNT
#	Creation time:	15. 06. 2019 20:29

#	Modifying user name:	WinNT
#	Modification time:	15. 06. 2019 20:29

#	Program:	/corina/corina34_cracker 3.40 0067  02.08.2006

@<TRIPOS>MOLECULE
ASD03090838
  38   41    0    0    0
SMALL
NO_CHARGES


@<TRIPOS>ATOM
   1 C1             0.0741     1.5279    -0.0205 C.3     
   2 C2             0.1170    -0.0014    -0.0362 C.3     
   3 C3             1.4197     0.8007    -0.0584 C.3     
   4 C4            -0.3761     2.2244    -1.2787 C.2     
   5 O5            -0.6884     1.5718    -2.2568 O.2     
   6 N6            -0.4319     3.5494    -1.3199 N.2     
   7 S7            -1.3116     3.4289    -3.9142 S.3     
   8 C8            -0.8306     4.1662    -2.4342 C.2     
   9 N9            -0.9408     5.5021    -2.6343 N.pl3   
  10 C10           -1.3709     5.9091    -3.8589 C.2     
  11 C11           -1.6428     4.9589    -4.7448 C.2     
  12 O12            0.3061     9.1556     1.3349 O.3     
  13 C13            0.2503     8.6982     2.6904 C.3     
  14 C14            0.9684     7.3442     2.7704 C.3     
  15 O15            0.2986     6.4295     1.8961 O.3     
  16 C16           -0.0030     6.8844     0.6491 C.ar    
  17 C17           -0.0013     8.2463     0.3688 C.ar    
  18 C18           -0.3142     5.9743    -0.3488 C.ar    
  19 C19           -0.6263     6.4227    -1.6248 C.ar    
  20 C20           -0.6264     7.7830    -1.9010 C.ar    
  21 C21           -0.3149     8.6906    -0.9069 C.ar    
  22 F22            2.3002     7.4920     2.3682 F       
  23 F23            0.9219     6.8623     4.0830 F       
  24 F24            0.8883     9.6208     3.5264 F       
  25 F25           -1.0841     8.5484     3.0833 F       
  26 C26           -2.1304     5.1424    -6.1588 C.3     
  27 H27           -0.2092     2.0139     0.9132 H       
  28 H28           -0.1381    -0.5216     0.8870 H       
  29 H29           -0.1804    -0.5037    -0.9567 H       
  30 H30            1.9793     0.8260    -0.9934 H       
  31 H31            2.0216     0.8082     0.8503 H       
  32 H32           -1.4860     6.9558    -4.0989 H       
  33 H33           -0.3138     4.9160    -0.1335 H       
  34 H34           -0.8699     8.1322    -2.8935 H       
  35 H35           -0.3159     9.7485    -1.1238 H       
  36 H36           -2.2600     4.1671    -6.6279 H       
  37 H37           -3.0840     5.6703    -6.1487 H       
  38 H38           -1.3999     5.7226    -6.7226 H       
@<TRIPOS>BOND
   1    1    2 1
   2    1    3 1
   3    1    4 1
   4    1   27 1
   5    2    3 1
   6    2   28 1
   7    2   29 1
   8    3   30 1
   9    3   31 1
  10    4    5 2
  11    4    6 1
  12    6    8 2
  13    7    8 1
  14    7   11 1
  15    8    9 1
  16    9   10 1
  17    9   19 1
  18   10   11 2
  19   10   32 1
  20   11   26 1
  21   12   13 1
  22   12   17 1
  23   13   14 1
  24   13   24 1
  25   13   25 1
  26   14   15 1
  27   14   22 1
  28   14   23 1
  29   15   16 1
  30   16   17 ar
  31   16   18 ar
  32   17   21 ar
  33   18   19 ar
  34   18   33 1
  35   19   20 ar
  36   20   21 ar
  37   20   34 1
  38   21   35 1
  39   26   36 1
  40   26   37 1
  41   26   38 1

#	End of record

