#	Name: ASD03092733
#	Creating user name:	WinNT
#	Creation time:	15. 06. 2019 20:33

#	Modifying user name:	WinNT
#	Modification time:	15. 06. 2019 20:33

#	Program:	/corina/corina34_cracker 3.40 0067  02.08.2006

@<TRIPOS>MOLECULE
ASD03092733
  51   53    0    0    0
SMALL
NO_CHARGES


@<TRIPOS>ATOM
   1 C1             0.0000     1.2017     0.0078 C.2     
   2 O2            -0.6965     1.1939     1.0046 O.2     
   3 C3             2.4987     1.2938     0.1003 C.ar    
   4 C4             1.2633     1.9601    -0.0023 C.ar    
   5 C5             1.2550     3.3540    -0.1146 C.ar    
   6 C6             2.4784     4.0232    -0.1196 C.ar    
   7 C7             3.6587     3.2875    -0.0136 C.ar    
   8 N8             3.6345     1.9746     0.0908 N.ar    
   9 N9             2.5266    -0.0828     0.2177 N.pl3   
  10 C10            3.8082    -0.7925     0.2137 C.3     
  11 C11            3.5593    -2.2954     0.3561 C.3     
  12 C12            4.8977    -3.0366     0.3519 C.3     
  13 C13            2.5241     5.5016    -0.2369 C.ar    
  14 C14            3.7503     6.1641    -0.2413 C.ar    
  15 C15            3.7896     7.5384    -0.3505 C.ar    
  16 C16            2.6095     8.2618    -0.4559 C.ar    
  17 C17            1.3866     7.6047    -0.4514 C.ar    
  18 C18            1.3412     6.2301    -0.3487 C.ar    
  19 O19            2.6513     9.6158    -0.5634 O.3     
  20 C20            1.3997    10.2973    -0.6683 C.3     
  21 C21            1.6467    11.8031    -0.7797 C.3     
  22 C22           -0.4174     0.4459    -1.1909 C.ar    
  23 C23           -1.5554    -0.3652    -1.1489 C.ar    
  24 C24           -1.9392    -1.0681    -2.2738 C.ar    
  25 C25           -1.2004    -0.9709    -3.4392 C.ar    
  26 C26           -0.0726    -0.1700    -3.4870 C.ar    
  27 C27            0.3194     0.5428    -2.3733 C.ar    
  28 Cl28          -2.4828    -0.4888     0.3134 Cl      
  29 H29            0.3255     3.8979    -0.1956 H       
  30 H30            4.6079     3.8027    -0.0172 H       
  31 H31            1.6975    -0.5791     0.3028 H       
  32 H32            4.3285    -0.5977    -0.7241 H       
  33 H33            4.4187    -0.4448     1.0470 H       
  34 H34            3.0390    -2.4903     1.2939 H       
  35 H35            2.9488    -2.6432    -0.4772 H       
  36 H36            4.7205    -4.1073     0.4534 H       
  37 H37            5.4181    -2.8418    -0.5859 H       
  38 H38            5.5083    -2.6889     1.1852 H       
  39 H39            4.6687     5.6019    -0.1590 H       
  40 H40            4.7395     8.0524    -0.3536 H       
  41 H41            0.4701     8.1702    -0.5332 H       
  42 H42            0.3898     5.7190    -0.3501 H       
  43 H43            0.8698     9.9494    -1.5550 H       
  44 H44            0.7990    10.0922     0.2178 H       
  45 H45            2.2474    12.0081    -1.6658 H       
  46 H46            0.6919    12.3229    -0.8598 H       
  47 H47            2.1766    12.1510     0.1070 H       
  48 H48           -2.8179    -1.6953    -2.2436 H       
  49 H49           -1.5048    -1.5231    -4.3161 H       
  50 H50            0.4994    -0.0994    -4.4004 H       
  51 H51            1.1970     1.1710    -2.4142 H       
@<TRIPOS>BOND
   1    1    2 2
   2    1    4 1
   3    1   22 1
   4    3    4 ar
   5    3    8 ar
   6    3    9 1
   7    4    5 ar
   8    5    6 ar
   9    5   29 1
  10    6    7 ar
  11    6   13 1
  12    7    8 ar
  13    7   30 1
  14    9   10 1
  15    9   31 1
  16   10   11 1
  17   10   32 1
  18   10   33 1
  19   11   12 1
  20   11   34 1
  21   11   35 1
  22   12   36 1
  23   12   37 1
  24   12   38 1
  25   13   14 ar
  26   13   18 ar
  27   14   15 ar
  28   14   39 1
  29   15   16 ar
  30   15   40 1
  31   16   17 ar
  32   16   19 1
  33   17   18 ar
  34   17   41 1
  35   18   42 1
  36   19   20 1
  37   20   21 1
  38   20   43 1
  39   20   44 1
  40   21   45 1
  41   21   46 1
  42   21   47 1
  43   22   23 ar
  44   22   27 ar
  45   23   24 ar
  46   23   28 1
  47   24   25 ar
  48   24   48 1
  49   25   26 ar
  50   25   49 1
  51   26   27 ar
  52   26   50 1
  53   27   51 1

#	End of record

