#	Name: ASD01915053
#	Creating user name:	WinNT
#	Creation time:	15. 06. 2019 20:04

#	Modifying user name:	WinNT
#	Modification time:	15. 06. 2019 20:04

#	Program:	/corina/corina34_cracker 3.40 0067  02.08.2006

@<TRIPOS>MOLECULE
ASD01915053
  28   30    0    0    0
SMALL
NO_CHARGES


@<TRIPOS>ATOM
   1 C1            -0.0168     1.3892     0.0097 C.ar    
   2 C2             0.0021    -0.0041     0.0020 C.ar    
   3 C3             1.2224    -0.6606    -0.0132 C.ar    
   4 C4             2.3820     0.0992    -0.0202 C.ar    
   5 C5             2.2884     1.4816    -0.0119 C.ar    
   6 N6             1.1170     2.0793     0.0026 N.ar    
   7 C7            -1.3128     2.1060     0.0197 C.2     
   8 O8            -2.3538     1.4792     0.0212 O.2     
   9 N9            -1.3376     3.4535     0.0271 N.am    
  10 C10           -2.5482     4.1231     0.0365 C.2     
  11 N11           -3.7752     3.5246     0.0391 N.pl3   
  12 C12           -4.7237     4.5328     0.0495 C.ar    
  13 C13           -4.0080     5.7420     0.0530 C.ar    
  14 N14           -2.6873     5.4244     0.0499 N.2     
  15 C15           -4.7044     6.9531     0.0630 C.ar    
  16 C16           -6.0813     6.9501     0.0693 C.ar    
  17 C17           -6.7828     5.7537     0.0658 C.ar    
  18 C18           -6.1101     4.5490     0.0564 C.ar    
  19 H19           -0.9212    -0.5644     0.0082 H       
  20 H20            1.2691    -1.7395    -0.0191 H       
  21 H21            3.3489    -0.3818    -0.0317 H       
  22 H22            3.1898     2.0765    -0.0170 H       
  23 H23           -0.5066     3.9539     0.0259 H       
  24 H24           -3.9498     2.5705     0.0341 H       
  25 H25           -4.1645     7.8885     0.0661 H       
  26 H26           -6.6192     7.8866     0.0774 H       
  27 H27           -7.8627     5.7650     0.0712 H       
  28 H28           -6.6623     3.6208     0.0540 H       
@<TRIPOS>BOND
   1    1    2 ar
   2    1    6 ar
   3    1    7 1
   4    2    3 ar
   5    2   19 1
   6    3    4 ar
   7    3   20 1
   8    4    5 ar
   9    4   21 1
  10    5    6 ar
  11    5   22 1
  12    7    8 2
  13    7    9 am
  14    9   10 1
  15    9   23 1
  16   10   11 1
  17   10   14 2
  18   11   12 1
  19   11   24 1
  20   12   13 ar
  21   12   18 ar
  22   13   14 1
  23   13   15 ar
  24   15   16 ar
  25   15   25 1
  26   16   17 ar
  27   16   26 1
  28   17   18 ar
  29   17   27 1
  30   18   28 1

#	End of record

