#	Name: ASD01910180
#	Creating user name:	WinNT
#	Creation time:	15. 06. 2019 19:55

#	Modifying user name:	WinNT
#	Modification time:	15. 06. 2019 19:55

#	Program:	/corina/corina34_cracker 3.40 0067  02.08.2006

@<TRIPOS>MOLECULE
ASD01910180
  43   45    0    0    0
SMALL
NO_CHARGES


@<TRIPOS>ATOM
   1 C1            -1.6957    -4.0774     3.2704 C.3     
   2 C2            -0.3682    -5.1653    -6.2456 C.ar    
   3 C3            -0.2945    -4.4064    -5.0938 C.ar    
   4 C4            -0.1160    -5.0251    -3.8624 C.ar    
   5 C5            -0.0112    -6.4067    -3.7906 C.ar    
   6 C6            -0.0852    -7.1663    -4.9498 C.ar    
   7 C7            -0.2638    -6.5415    -6.1777 C.ar    
   8 N8             0.0204    -8.5591    -4.8819 N.am    
   9 C9            -0.6899    -9.3308    -5.7283 C.2     
  10 C10           -0.4903   -10.7954    -5.7373 C.ar    
  11 N11           -0.0415    -4.2560    -2.6967 N.am    
  12 C12           -0.5586    -4.7268    -1.5446 C.2     
  13 C13           -1.2243   -11.5974    -6.6126 C.ar    
  14 C14           -1.0333   -12.9639    -6.6168 C.ar    
  15 C15           -0.1170   -13.5402    -5.7557 C.ar    
  16 C16            0.6150   -12.7508    -4.8844 C.ar    
  17 C17            0.4374   -11.3817    -4.8745 C.ar    
  18 O18           -1.0133    -5.8532    -1.4979 O.2     
  19 O19           -1.4947    -8.8224    -6.4843 O.2     
  20 C20           -0.5728    -3.8734    -0.3378 C.ar    
  21 Cl21           1.7627   -13.4834    -3.8075 Cl      
  22 C22           -0.0516    -2.5797    -0.3880 C.ar    
  23 C23           -0.0684    -1.7882     0.7421 C.ar    
  24 C24           -0.6003    -2.2743     1.9230 C.ar    
  25 C25           -1.1187    -3.5561     1.9795 C.ar    
  26 C26           -1.1129    -4.3559     0.8558 C.ar    
  27 H27           -2.7589    -3.8411     3.3148 H       
  28 H28           -1.5614    -5.1580     3.3182 H       
  29 H29           -1.1842    -3.6101     4.1119 H       
  30 H30           -0.5115    -4.6823    -7.2009 H       
  31 H31           -0.3761    -3.3309    -5.1503 H       
  32 H32            0.1280    -6.8900    -2.8349 H       
  33 H33           -0.3214    -7.1320    -7.0801 H       
  34 H34            0.6049    -8.9698    -4.2257 H       
  35 H35            0.3823    -3.3838    -2.7175 H       
  36 H36           -1.9407   -11.1492    -7.2851 H       
  37 H37           -1.6009   -13.5851    -7.2938 H       
  38 H38            0.0281   -14.6104    -5.7626 H       
  39 H39            1.0087   -10.7667    -4.1950 H       
  40 H40            0.3643    -2.1991    -1.3092 H       
  41 H41            0.3349    -0.7870     0.7047 H       
  42 H42           -0.6110    -1.6506     2.8046 H       
  43 H43           -1.5181    -5.3560     0.9012 H       
@<TRIPOS>BOND
   1    1   25 1
   2    1   27 1
   3    1   28 1
   4    1   29 1
   5    2    3 ar
   6    2    7 ar
   7    2   30 1
   8    3    4 ar
   9    3   31 1
  10    4    5 ar
  11    4   11 1
  12    5    6 ar
  13    5   32 1
  14    6    7 ar
  15    6    8 1
  16    7   33 1
  17    8    9 am
  18    8   34 1
  19    9   10 1
  20    9   19 2
  21   10   13 ar
  22   10   17 ar
  23   11   12 am
  24   11   35 1
  25   12   18 2
  26   12   20 1
  27   13   14 ar
  28   13   36 1
  29   14   15 ar
  30   14   37 1
  31   15   16 ar
  32   15   38 1
  33   16   17 ar
  34   16   21 1
  35   17   39 1
  36   20   22 ar
  37   20   26 ar
  38   22   23 ar
  39   22   40 1
  40   23   24 ar
  41   23   41 1
  42   24   25 ar
  43   24   42 1
  44   25   26 ar
  45   26   43 1

#	End of record

