#	Name: ASD05730166
#	Creating user name:	WinNT
#	Creation time:	15. 06. 2019 21:02

#	Modifying user name:	WinNT
#	Modification time:	15. 06. 2019 21:02

#	Program:	/corina/corina34_cracker 3.40 0067  02.08.2006

@<TRIPOS>MOLECULE
ASD05730166
  42   45    0    0    0
SMALL
NO_CHARGES


@<TRIPOS>ATOM
   1 N1             0.2137     1.5719    -0.1282 N.pl3   
   2 C2             0.3751    -0.5505     1.0624 C.ar    
   3 C3             2.3488     1.7112     1.0102 C.ar    
   4 N4             0.9350     0.0485     2.1507 N.2     
   5 C5             1.7896     1.0102     2.1756 C.2     
   6 N6             2.2233     1.4230     3.4149 N.pl3   
   7 C7             3.0793     2.6105     3.5582 C.3     
   8 C8             2.4595     3.5328     4.6135 C.3     
   9 N9             2.2367     2.7746     5.8518 N.3     
  10 C10            1.2720     1.6864     5.6441 C.3     
  11 C11            1.8381     0.6920     4.6316 C.3     
  12 C12           -0.0326     0.1916    -0.0510 C.ar    
  13 C13           -0.6770    -0.4392    -1.1020 C.ar    
  14 C14           -0.8776    -1.8093    -1.0765 C.ar    
  15 C15           -0.4323    -2.5564    -0.0003 C.ar    
  16 C16            0.1903    -1.9348     1.0672 C.ar    
  17 C17            1.5389     2.0113    -0.0931 C.ar    
  18 C18            3.6910     2.0927     1.0008 C.ar    
  19 C19            4.2021     2.7940    -0.0753 C.ar    
  20 C20            3.3860     3.1234    -1.1451 C.ar    
  21 C21            2.0589     2.7335    -1.1552 C.ar    
  22 C22            1.8046     3.6605     6.9410 C.3     
  23 F23            5.5027     3.1594    -0.0838 F       
  24 F24           -0.6064    -3.8961     0.0081 F       
  25 H25           -0.5178     2.2038    -0.2080 H       
  26 H26            4.0762     2.3068     3.8774 H       
  27 H27            3.1409     3.1347     2.6045 H       
  28 H28            3.1361     4.3639     4.8126 H       
  29 H29            1.5081     3.9177     4.2465 H       
  30 H30            1.0874     1.1784     6.5906 H       
  31 H31            0.3371     2.0970     5.2627 H       
  32 H32            1.0795    -0.0516     4.3873 H       
  33 H33            2.7135     0.2004     5.0560 H       
  34 H34           -1.0247     0.1397    -1.9448 H       
  35 H35           -1.3829    -2.2955    -1.8979 H       
  36 H36            0.5346    -2.5215     1.9061 H       
  37 H37            4.3302     1.8404     1.8340 H       
  38 H38            3.7872     3.6876    -1.9740 H       
  39 H39            1.4272     2.9921    -1.9922 H       
  40 H40            0.8736     4.1534     6.6607 H       
  41 H41            1.6468     3.0736     7.8458 H       
  42 H42            2.5725     4.4119     7.1246 H       
@<TRIPOS>BOND
   1    1   12 1
   2    1   17 1
   3    1   25 1
   4    2    4 1
   5    2   12 ar
   6    2   16 ar
   7    3    5 1
   8    3   18 ar
   9    3   17 ar
  10    4    5 2
  11    5    6 1
  12    6    7 1
  13    6   11 1
  14    7    8 1
  15    7   26 1
  16    7   27 1
  17    8    9 1
  18    8   28 1
  19    8   29 1
  20    9   10 1
  21    9   22 1
  22   10   11 1
  23   10   30 1
  24   10   31 1
  25   11   32 1
  26   11   33 1
  27   12   13 ar
  28   13   14 ar
  29   13   34 1
  30   14   15 ar
  31   14   35 1
  32   15   16 ar
  33   15   24 1
  34   16   36 1
  35   17   21 ar
  36   18   19 ar
  37   18   37 1
  38   19   20 ar
  39   19   23 1
  40   20   21 ar
  41   20   38 1
  42   21   39 1
  43   22   40 1
  44   22   41 1
  45   22   42 1

#	End of record

