#	Name: ASD03090540
#	Creating user name:	WinNT
#	Creation time:	15. 06. 2019 20:29

#	Modifying user name:	WinNT
#	Modification time:	15. 06. 2019 20:29

#	Program:	/corina/corina34_cracker 3.40 0067  02.08.2006

@<TRIPOS>MOLECULE
ASD03090540
  43   46    0    0    0
SMALL
NO_CHARGES


@<TRIPOS>ATOM
   1 C1            -0.0036     1.5245    -0.1886 C.2     
   2 C2             0.0461     0.0183    -0.1819 C.3     
   3 O3             1.0070     2.1637    -0.3910 O.2     
   4 N4            -1.1723     2.1611     0.0246 N.am    
   5 N5             5.3641    -1.6880    -0.9129 N.pl3   
   6 C6             5.7797    -1.7245     0.3902 C.2     
   7 C7             4.7761    -1.3540     1.2011 C.2     
   8 C8             3.6236    -1.0558     0.3474 C.ar    
   9 C9             2.3165    -0.6318     0.5947 C.ar    
  10 C10            1.4569    -0.4389    -0.4496 C.ar    
  11 C11            1.8727    -0.6611    -1.7554 C.ar    
  12 C12            3.1575    -1.0800    -2.0220 C.ar    
  13 C13            4.0496    -1.2828    -0.9739 C.ar    
  14 C14           -1.1989     3.5520     0.1377 C.ar    
  15 C15           -0.0241     4.2417     0.4151 C.ar    
  16 C16           -0.0616     5.6200     0.5250 C.ar    
  17 C17           -1.2832     6.2663     0.3522 C.ar    
  18 C18           -2.4135     5.5132     0.0776 C.ar    
  19 N19           -2.3408     4.1999    -0.0258 N.ar    
  20 O20           -1.3657     7.6197     0.4521 O.3     
  21 C21           -0.7637     8.3683    -0.5093 C.ar    
  22 C22           -0.7212     9.7513    -0.3891 C.ar    
  23 C23           -0.1081    10.5104    -1.3679 C.ar    
  24 C24            0.4628     9.8941    -2.4662 C.ar    
  25 C25            0.4218     8.5165    -2.5884 C.ar    
  26 C26           -0.1859     7.7521    -1.6091 C.ar    
  27 Cl27           1.1396     7.7465    -3.9688 Cl      
  28 Cl28          -1.4381    10.5260     0.9892 Cl      
  29 H29           -0.2772    -0.3515     0.7912 H       
  30 H30           -0.6150    -0.3706    -0.9564 H       
  31 H31           -1.9949     1.6526     0.0996 H       
  32 H32            5.9148    -1.9105    -1.6799 H       
  33 H33            6.7685    -2.0096     0.7179 H       
  34 H34            4.8116    -1.2882     2.2785 H       
  35 H35            1.9858    -0.4577     1.6080 H       
  36 H36            1.1816    -0.5043    -2.5705 H       
  37 H37            3.4713    -1.2505    -3.0413 H       
  38 H38            0.9060     3.7080     0.5435 H       
  39 H39            0.8353     6.1818     0.7402 H       
  40 H40           -3.3642     6.0074    -0.0576 H       
  41 H41           -0.0751    11.5859    -1.2750 H       
  42 H42            0.9411    10.4890    -3.2302 H       
  43 H43           -0.2138     6.6766    -1.7027 H       
@<TRIPOS>BOND
   1    1    2 1
   2    1    3 2
   3    1    4 am
   4    2   10 1
   5    2   29 1
   6    2   30 1
   7    4   14 1
   8    4   31 1
   9    5    6 1
  10    5   13 1
  11    5   32 1
  12    6    7 2
  13    6   33 1
  14    7    8 1
  15    7   34 1
  16    8    9 ar
  17    8   13 ar
  18    9   10 ar
  19    9   35 1
  20   10   11 ar
  21   11   12 ar
  22   11   36 1
  23   12   13 ar
  24   12   37 1
  25   14   15 ar
  26   14   19 ar
  27   15   16 ar
  28   15   38 1
  29   16   17 ar
  30   16   39 1
  31   17   18 ar
  32   17   20 1
  33   18   19 ar
  34   18   40 1
  35   20   21 1
  36   21   22 ar
  37   21   26 ar
  38   22   23 ar
  39   22   28 1
  40   23   24 ar
  41   23   41 1
  42   24   25 ar
  43   24   42 1
  44   25   26 ar
  45   25   27 1
  46   26   43 1

#	End of record

