#	Name: ASD01150496
#	Creating user name:	WinNT
#	Creation time:	15. 06. 2019 19:04

#	Modifying user name:	WinNT
#	Modification time:	15. 06. 2019 19:04

#	Program:	/corina/corina34_cracker 3.40 0067  02.08.2006

@<TRIPOS>MOLECULE
ASD01150496
  50   53    0    0    0
SMALL
NO_CHARGES


@<TRIPOS>ATOM
   1 C1             0.6571    -0.4126     0.1024 C.ar    
   2 C2             0.2098    -1.7191     0.1048 C.ar    
   3 C3            -1.6401    -1.0898     1.4933 C.ar    
   4 C4            -1.1980     0.2185     1.4954 C.ar    
   5 C5            -0.0463     0.5620     0.7988 C.ar    
   6 N6             0.4044     1.8866     0.7989 N.am    
   7 C7            -0.4598     2.8807     0.5290 C.2     
   8 N8            -0.0603     4.1661     0.5202 N.am    
   9 C9             1.2258     4.4759     0.7853 C.2     
  10 C10            2.1760     3.3931     1.0818 C.2     
  11 N11            1.7474     2.1584     1.0857 N.2     
  12 O12            1.5947     5.6355     0.7788 O.2     
  13 C13           -1.0228     5.2295     0.2219 C.3     
  14 O14           -1.6217     2.6140     0.2885 O.2     
  15 C15           -1.6638     5.7004     1.5019 C.ar    
  16 O16            3.4775     3.6724     1.3527 O.3     
  17 C17            4.3349     2.5634     1.6304 C.3     
  18 C18           -0.9374    -2.0576     0.7989 C.ar    
  19 C19           -1.0908     6.7362     2.2187 C.ar    
  20 C20           -1.6721     7.1722     3.3910 C.ar    
  21 C21           -2.8419     6.5657     3.8543 C.ar    
  22 C22           -3.4149     5.5207     3.1257 C.ar    
  23 C23           -2.8259     5.0986     1.9521 C.ar    
  24 C24           -3.4702     7.0269     5.1094 C.2     
  25 O25           -4.6508     6.8193     5.3102 O.2     
  26 C26           -2.6632     7.7406     6.1206 C.ar    
  27 C27           -3.2843     8.5771     7.0510 C.ar    
  28 C28           -2.5248     9.2403     7.9921 C.ar    
  29 C29           -1.1506     9.0785     8.0159 C.ar    
  30 C30           -0.5287     8.2518     7.0968 C.ar    
  31 C31           -1.2764     7.5776     6.1541 C.ar    
  32 H32            1.5554    -0.1497    -0.4365 H       
  33 H33            0.7562    -2.4773    -0.4365 H       
  34 H34           -2.5354    -1.3575     2.0347 H       
  35 H35           -1.7472     0.9738     2.0379 H       
  36 H36           -0.5069     6.0634    -0.2542 H       
  37 H37           -1.7911     4.8464    -0.4497 H       
  38 H38            3.9629     2.0261     2.5027 H       
  39 H39            4.3519     1.8933     0.7709 H       
  40 H40            5.3437     2.9250     1.8293 H       
  41 H41           -1.2855    -3.0800     0.7986 H       
  42 H42           -0.1861     7.2041     1.8594 H       
  43 H43           -1.2237     7.9805     3.9495 H       
  44 H44           -4.3191     5.0470     3.4784 H       
  45 H45           -3.2677     4.2907     1.3877 H       
  46 H46           -4.3566     8.7044     7.0334 H       
  47 H47           -3.0037     9.8876     8.7119 H       
  48 H48           -0.5608     9.6003     8.7550 H       
  49 H49            0.5442     8.1304     7.1209 H       
  50 H50           -0.7898     6.9324     5.4376 H       
@<TRIPOS>BOND
   1    1    2 ar
   2    1    5 ar
   3    1   32 1
   4    2   18 ar
   5    2   33 1
   6    3    4 ar
   7    3   18 ar
   8    3   34 1
   9    4    5 ar
  10    4   35 1
  11    5    6 1
  12    6    7 am
  13    6   11 1
  14    7    8 am
  15    7   14 2
  16    8    9 am
  17    8   13 1
  18    9   10 1
  19    9   12 2
  20   10   11 2
  21   10   16 1
  22   13   15 1
  23   13   36 1
  24   13   37 1
  25   15   19 ar
  26   15   23 ar
  27   16   17 1
  28   17   38 1
  29   17   39 1
  30   17   40 1
  31   18   41 1
  32   19   20 ar
  33   19   42 1
  34   20   21 ar
  35   20   43 1
  36   21   22 ar
  37   21   24 1
  38   22   23 ar
  39   22   44 1
  40   23   45 1
  41   24   25 2
  42   24   26 1
  43   26   27 ar
  44   26   31 ar
  45   27   28 ar
  46   27   46 1
  47   28   29 ar
  48   28   47 1
  49   29   30 ar
  50   29   48 1
  51   30   31 ar
  52   30   49 1
  53   31   50 1

#	End of record

