#	Name: ASD04590471
#	Creating user name:	WinNT
#	Creation time:	15. 06. 2019 20:50

#	Modifying user name:	WinNT
#	Modification time:	15. 06. 2019 20:50

#	Program:	/corina/corina34_cracker 3.40 0067  02.08.2006

@<TRIPOS>MOLECULE
ASD04590471
  53   57    0    0    0
SMALL
NO_CHARGES


@<TRIPOS>ATOM
   1 C1            -0.0169     1.3923     0.0097 C.ar    
   2 C2             0.0021    -0.0041     0.0020 C.ar    
   3 C3            -2.4013    -0.0379     0.0252 C.ar    
   4 C4            -2.4140     1.3672     0.0440 C.ar    
   5 C5            -1.2191     2.0735     0.0306 C.ar    
   6 N6            -3.6929    -0.4513     0.0444 N.2     
   7 C7            -4.4887     0.5899     0.0732 C.2     
   8 N8            -3.7458     1.7406     0.0743 N.pl3   
   9 C9            -5.9649     0.5312     0.1010 C.2     
  10 C10           -6.7501    -0.6449     0.1014 C.2     
  11 C11           -8.0530    -0.2718     0.1312 C.2     
  12 N12           -8.0971     1.0863     0.1490 N.pl3   
  13 N13           -6.7813     1.5660     0.1354 N.2     
  14 N14           -6.2668    -1.9631     0.0751 N.am    
  15 C15           -7.1306    -2.9977     0.0789 C.2     
  16 O16           -8.3282    -2.7897     0.1050 O.2     
  17 C17           -1.1778    -0.7174     0.0095 C.ar    
  18 O18            1.1915    -0.6643    -0.0133 O.3     
  19 C19            1.1408    -2.0924    -0.0205 C.3     
  20 C20           -6.6218    -4.3853     0.0513 C.ar    
  21 O21            1.1536     2.0851     0.0022 O.3     
  22 C22            1.0634     3.5113     0.0108 C.3     
  23 C23           -7.5107    -5.4585     0.0550 C.ar    
  24 C24           -5.2477    -4.6294     0.0154 C.ar    
  25 C25           -4.7861    -5.9267    -0.0128 C.ar    
  26 C26           -5.6756    -6.9928    -0.0061 C.ar    
  27 C27           -7.0352    -6.7587     0.0283 C.ar    
  28 C28           -5.1161    -8.3921    -0.0492 C.3     
  29 C29           -6.1857    -9.3960     0.3813 C.3     
  30 N30           -7.4103    -9.1346    -0.3916 N.3     
  31 C31           -8.0352    -7.8854     0.0490 C.3     
  32 H32           -1.2289     3.1534     0.0368 H       
  33 H33           -4.0892     2.6476     0.0925 H       
  34 H34           -8.9046    -0.9359     0.1390 H       
  35 H35           -8.9005     1.6293     0.1713 H       
  36 H36           -5.3114    -2.1290     0.0543 H       
  37 H37           -1.1579    -1.7972     0.0027 H       
  38 H38            0.6056    -2.4325    -0.9070 H       
  39 H39            2.1548    -2.4919    -0.0327 H       
  40 H40            0.6232    -2.4420     0.8728 H       
  41 H41            2.0660     3.9388     0.0035 H       
  42 H42            0.5192     3.8462    -0.8723 H       
  43 H43            0.5362     3.8366     0.9076 H       
  44 H44           -8.5748    -5.2754     0.0792 H       
  45 H45           -4.5500    -3.8050     0.0094 H       
  46 H46           -3.7232    -6.1164    -0.0406 H       
  47 H47           -4.7926    -8.6213    -1.0646 H       
  48 H48           -4.2625    -8.4614     0.6251 H       
  49 H49           -5.8372   -10.4097     0.1835 H       
  50 H50           -6.3919    -9.2777     1.4450 H       
  51 H51           -7.2146    -9.1078    -1.3811 H       
  52 H52           -8.4121    -8.0101     1.0641 H       
  53 H53           -8.8651    -7.6444    -0.6153 H       
@<TRIPOS>BOND
   1    1    2 ar
   2    1   21 1
   3    1    5 ar
   4    2   17 ar
   5    2   18 1
   6    3    4 ar
   7    3    6 1
   8    3   17 ar
   9    4    5 ar
  10    4    8 1
  11    5   32 1
  12    6    7 2
  13    7    8 1
  14    7    9 1
  15    8   33 1
  16    9   10 1
  17    9   13 2
  18   10   11 2
  19   10   14 1
  20   11   12 1
  21   11   34 1
  22   12   13 1
  23   12   35 1
  24   14   15 am
  25   14   36 1
  26   15   16 2
  27   15   20 1
  28   17   37 1
  29   18   19 1
  30   19   38 1
  31   19   39 1
  32   19   40 1
  33   20   23 ar
  34   20   24 ar
  35   21   22 1
  36   22   41 1
  37   22   42 1
  38   22   43 1
  39   23   27 ar
  40   23   44 1
  41   24   25 ar
  42   24   45 1
  43   25   26 ar
  44   25   46 1
  45   26   27 ar
  46   26   28 1
  47   27   31 1
  48   28   29 1
  49   28   47 1
  50   28   48 1
  51   29   30 1
  52   29   49 1
  53   29   50 1
  54   30   31 1
  55   30   51 1
  56   31   52 1
  57   31   53 1

#	End of record

