#	Name: ASD03540458
#	Creating user name:	WinNT
#	Creation time:	15. 06. 2019 20:43

#	Modifying user name:	WinNT
#	Modification time:	15. 06. 2019 20:43

#	Program:	/corina/corina34_cracker 3.40 0067  02.08.2006

@<TRIPOS>MOLECULE
ASD03540458
  45   47    0    0    0
SMALL
NO_CHARGES


@<TRIPOS>ATOM
   1 N1             0.0435     1.3854    -0.0266 N.am    
   2 C2             0.0385     0.0416    -0.0264 C.2     
   3 N3             1.1629    -0.6912    -0.0299 N.am    
   4 C4             2.3802    -0.1056    -0.0338 C.2     
   5 C5             2.4454     1.3675    -0.0342 C.ar    
   6 C6             3.6586     2.0437    -0.0377 C.ar    
   7 C7             3.6615     3.4386    -0.0374 C.ar    
   8 C8             2.4507     4.1431    -0.0332 C.ar    
   9 C9             1.2579     3.4772    -0.0298 C.ar    
  10 C10            1.2355     2.0881    -0.0305 C.ar    
  11 C11            4.9410     4.1727    -0.0411 C.2     
  12 O12            5.9916     3.5623    -0.0443 O.2     
  13 O13            4.9447     5.5201    -0.0408 O.3     
  14 O14            3.3950    -0.7753    -0.0366 O.2     
  15 O15           -1.0314    -0.5356    -0.0225 O.2     
  16 C16           -1.2272     2.1145    -0.0288 C.3     
  17 C17            1.0683    -2.1532    -0.0290 C.3     
  18 C18            1.0311    -2.6551    -1.4494 C.ar    
  19 C19            2.2100    -2.9622    -2.1037 C.ar    
  20 C20            2.1795    -3.4224    -3.4055 C.ar    
  21 C21            0.9627    -3.5766    -4.0576 C.ar    
  22 C22           -0.2197    -3.2671    -3.3974 C.ar    
  23 C23           -0.1823    -2.8128    -2.0938 C.ar    
  24 N24            0.9282    -4.0413    -5.3743 N.pl3   
  25 C25            2.1772    -4.2438    -6.1126 C.3     
  26 C26           -0.3571    -4.3263    -6.0171 C.3     
  27 H27            4.5892     1.4957    -0.0402 H       
  28 H28            2.4603     5.2231    -0.0323 H       
  29 H29            0.3309     4.0314    -0.0266 H       
  30 H30            5.8075     5.9568    -0.0433 H       
  31 H31           -2.0537     1.4039    -0.0300 H       
  32 H32           -1.2880     2.7411     0.8610 H       
  33 H33           -1.2851     2.7408    -0.9189 H       
  34 H34            1.9347    -2.5730     0.4821 H       
  35 H35            0.1585    -2.4581     0.4881 H       
  36 H36            3.1557    -2.8418    -1.5962 H       
  37 H37            3.1006    -3.6618    -3.9160 H       
  38 H38           -1.1674    -3.3859    -3.9015 H       
  39 H39           -1.1015    -2.5765    -1.5783 H       
  40 H40            2.5314    -5.2625    -5.9550 H       
  41 H41            2.0014    -4.0807    -7.1759 H       
  42 H42            2.9283    -3.5388    -5.7562 H       
  43 H43           -1.1608    -4.2089    -5.2902 H       
  44 H44           -0.5112    -3.6334    -6.8442 H       
  45 H45           -0.3555    -5.3487    -6.3950 H       
@<TRIPOS>BOND
   1    1    2 am
   2    1   10 1
   3    1   16 1
   4    2    3 am
   5    2   15 2
   6    3    4 am
   7    3   17 1
   8    4    5 1
   9    4   14 2
  10    5    6 ar
  11    5   10 ar
  12    6    7 ar
  13    6   27 1
  14    7    8 ar
  15    7   11 1
  16    8    9 ar
  17    8   28 1
  18    9   10 ar
  19    9   29 1
  20   11   12 2
  21   11   13 1
  22   13   30 1
  23   16   31 1
  24   16   32 1
  25   16   33 1
  26   17   18 1
  27   17   34 1
  28   17   35 1
  29   18   19 ar
  30   18   23 ar
  31   19   20 ar
  32   19   36 1
  33   20   21 ar
  34   20   37 1
  35   21   22 ar
  36   21   24 1
  37   22   23 ar
  38   22   38 1
  39   23   39 1
  40   24   25 1
  41   24   26 1
  42   25   40 1
  43   25   41 1
  44   25   42 1
  45   26   43 1
  46   26   44 1
  47   26   45 1

#	End of record

