#	Name: ASD08830068
#	Creating user name:	WinNT
#	Creation time:	15. 06. 2019 21:19

#	Modifying user name:	WinNT
#	Modification time:	15. 06. 2019 21:19

#	Program:	/corina/corina34_cracker 3.40 0067  02.08.2006

@<TRIPOS>MOLECULE
ASD08830068
  36   38    0    0    0
SMALL
NO_CHARGES


@<TRIPOS>ATOM
   1 C1            -0.0172     1.4139     0.0098 C.2     
   2 C2             0.0021    -0.0041     0.0020 C.2     
   3 C3             1.3172    -0.7397    -0.0139 C.3     
   4 C4             1.0581    -2.2476    -0.0197 C.3     
   5 N5             2.3401    -2.9647    -0.0352 N.3     
   6 O6            -1.0408    -0.6252     0.0082 O.2     
   7 C7             2.1422    -4.4028     0.1972 C.3     
   8 C8             3.4930    -5.1184     0.1136 C.3     
   9 O9             4.3945    -4.5362     1.0589 O.3     
  10 C10            4.6108    -3.1364     0.8616 C.3     
  11 C11            3.2713    -2.4007     0.9527 C.3     
  12 S12            1.4121     2.4321     0.0016 S.3     
  13 C13            0.4324     3.8940     0.0182 C.ar    
  14 C14           -0.9258     3.5495     0.0291 C.ar    
  15 C15           -1.1305     2.1622     0.0186 C.2     
  16 C16            0.8090     5.2414     0.0215 C.ar    
  17 C17           -0.1486     6.2264     0.0358 C.ar    
  18 C18           -1.4973     5.8904     0.0467 C.ar    
  19 C19           -1.8882     4.5889     0.0425 C.ar    
  20 H20            1.8770    -0.4639    -0.9076 H       
  21 H21            1.8933    -0.4734     0.8723 H       
  22 H22            0.4983    -2.5235     0.8740 H       
  23 H23            0.4820    -2.5139    -0.9059 H       
  24 H24            1.7099    -4.5556     1.1861 H       
  25 H25            1.4698    -4.8048    -0.5607 H       
  26 H26            3.3594    -6.1759     0.3416 H       
  27 H27            3.9003    -5.0108    -0.8917 H       
  28 H28            5.2856    -2.7603     1.6305 H       
  29 H29            5.0506    -2.9711    -0.1220 H       
  30 H30            3.4231    -1.3412     0.7463 H       
  31 H31            2.8571    -2.5214     1.9537 H       
  32 H32           -2.1182     1.7255     0.0249 H       
  33 H33            1.8556     5.5079     0.0131 H       
  34 H34            0.1475     7.2650     0.0390 H       
  35 H35           -2.2426     6.6719     0.0583 H       
  36 H36           -2.9403     4.3452     0.0506 H       
@<TRIPOS>BOND
   1    1    2 1
   2    1   12 1
   3    1   15 2
   4    2    3 1
   5    2    6 2
   6    3    4 1
   7    3   20 1
   8    3   21 1
   9    4    5 1
  10    4   22 1
  11    4   23 1
  12    5    7 1
  13    5   11 1
  14    7    8 1
  15    7   24 1
  16    7   25 1
  17    8    9 1
  18    8   26 1
  19    8   27 1
  20    9   10 1
  21   10   11 1
  22   10   28 1
  23   10   29 1
  24   11   30 1
  25   11   31 1
  26   12   13 1
  27   13   14 ar
  28   13   16 ar
  29   14   15 1
  30   14   19 ar
  31   15   32 1
  32   16   17 ar
  33   16   33 1
  34   17   18 ar
  35   17   34 1
  36   18   19 ar
  37   18   35 1
  38   19   36 1

#	End of record

