#	Name: ASD01814509
#	Creating user name:	WinNT
#	Creation time:	15. 06. 2019 19:32

#	Modifying user name:	WinNT
#	Modification time:	15. 06. 2019 19:32

#	Program:	/corina/corina34_cracker 3.40 0067  02.08.2006

@<TRIPOS>MOLECULE
ASD01814509
  47   52    0    0    0
SMALL
NO_CHARGES


@<TRIPOS>ATOM
   1 C1            -0.0167     1.3810     0.0096 C.2     
   2 C2             0.0021    -0.0041     0.0020 C.2     
   3 N3             1.1951     2.0645     0.0017 N.pl3   
   4 N4             2.3425     1.5023    -0.0122 N.2     
   5 C5             2.5064     0.2041    -0.0208 C.2     
   6 C6             1.3103    -0.6708    -0.0148 C.2     
   7 C7             1.1527     3.5289     0.0095 C.3     
   8 C8             1.1515     4.0239     1.4329 C.ar    
   9 C9             2.3487     4.2853     2.0736 C.ar    
  10 C10            2.3508     4.7386     3.3782 C.ar    
  11 C11            1.1492     4.9322     4.0463 C.ar    
  12 C12           -0.0513     4.6693     3.4002 C.ar    
  13 C13           -0.0471     4.2212     2.0937 C.ar    
  14 N14            1.1480     5.3918     5.3707 N.pl3   
  15 C15            3.6454    -0.7129    -0.0364 C.2     
  16 N16            3.1268    -1.9599    -0.0381 N.am    
  17 N17            1.7303    -1.9064    -0.0252 N.2     
  18 O18            4.8281    -0.4116    -0.0467 O.2     
  19 C19            3.8814    -3.1393    -0.0510 C.ar    
  20 C20            4.3554    -3.6751     1.1386 C.ar    
  21 C21            5.0993    -4.8393     1.1228 C.ar    
  22 C22            5.3729    -5.4714    -0.0759 C.ar    
  23 C23            4.9030    -4.9418    -1.2641 C.ar    
  24 C24            4.1531    -3.7802    -1.2556 C.ar    
  25 F25            3.6937    -3.2630    -2.4160 F       
  26 S26           -1.6405    -0.6241     0.0154 S.3     
  27 C27           -2.2971     1.0048     0.0308 C.2     
  28 C28           -1.3154     1.8978     0.0305 C.2     
  29 C29            0.0546     5.6214     6.1325 C.2     
  30 C30            0.4792     6.0546     7.3421 C.2     
  31 C31            1.8778     6.0914     7.3199 C.2     
  32 N32            2.2796     5.6887     6.1413 N.2     
  33 H33            2.0269     3.9205    -0.5106 H       
  34 H34            0.2478     3.8689    -0.4942 H       
  35 H35            3.2830     4.1344     1.5534 H       
  36 H36            3.2861     4.9419     3.8784 H       
  37 H37           -0.9875     4.8187     3.9174 H       
  38 H38           -0.9806     4.0165     1.5906 H       
  39 H39            4.1431    -3.1821     2.0758 H       
  40 H40            5.4680    -5.2560     2.0485 H       
  41 H41            5.9554    -6.3809    -0.0846 H       
  42 H42            5.1186    -5.4381    -2.1987 H       
  43 H43           -3.3499     1.2455     0.0424 H       
  44 H44           -1.5084     2.9604     0.0394 H       
  45 H45           -0.9729     5.4842     5.8297 H       
  46 H46           -0.1503     6.3244     8.1771 H       
  47 H47            2.5159     6.3954     8.1364 H       
@<TRIPOS>BOND
   1    1    2 2
   2    1    3 1
   3    1   28 1
   4    2   26 1
   5    2    6 1
   6    3    4 1
   7    3    7 1
   8    4    5 2
   9    5    6 1
  10    5   15 1
  11    6   17 2
  12    7    8 1
  13    7   33 1
  14    7   34 1
  15    8    9 ar
  16    8   13 ar
  17    9   10 ar
  18    9   35 1
  19   10   11 ar
  20   10   36 1
  21   11   12 ar
  22   11   14 1
  23   12   13 ar
  24   12   37 1
  25   13   38 1
  26   14   29 1
  27   14   32 1
  28   15   16 am
  29   15   18 2
  30   16   17 1
  31   16   19 1
  32   19   20 ar
  33   19   24 ar
  34   20   21 ar
  35   20   39 1
  36   21   22 ar
  37   21   40 1
  38   22   23 ar
  39   22   41 1
  40   23   24 ar
  41   23   42 1
  42   24   25 1
  43   26   27 1
  44   27   28 2
  45   27   43 1
  46   28   44 1
  47   29   30 2
  48   29   45 1
  49   30   31 1
  50   30   46 1
  51   31   32 2
  52   31   47 1

#	End of record

