#	Name: ASD01885871
#	Creating user name:	WinNT
#	Creation time:	15. 06. 2019 19:50

#	Modifying user name:	WinNT
#	Modification time:	15. 06. 2019 19:50

#	Program:	/corina/corina34_cracker 3.40 0067  02.08.2006

@<TRIPOS>MOLECULE
ASD01885871
  47   50    0    0    0
SMALL
NO_CHARGES


@<TRIPOS>ATOM
   1 C1            -0.0171     1.4062     0.0098 C.ar    
   2 C2             1.2140     2.1099     0.0018 C.ar    
   3 C3             1.1966     3.5279     0.0097 C.ar    
   4 C4            -0.0377     4.1622     0.0249 C.ar    
   5 C5            -1.2077     3.3937     0.0319 C.ar    
   6 N6            -1.1698     2.0747     0.0299 N.ar    
   7 C7             0.0021    -0.0041     0.0020 C.ar    
   8 C8             1.1952    -0.6628    -0.0130 C.ar    
   9 C9             2.4002     0.0350    -0.0203 C.ar    
  10 C10            2.4199     1.3980    -0.0132 C.ar    
  11 C11            1.2105    -2.1697    -0.0212 C.3     
  12 C12            2.4557     4.3071     0.0024 C.ar    
  13 C13            1.0782    -2.6657    -1.4381 C.ar    
  14 C14           -2.5223     4.0788     0.0486 C.2     
  15 N15           -3.6593     3.3552     0.0556 N.am    
  16 O16           -2.5746     5.2927     0.0561 O.2     
  17 F17           -1.1567    -0.6986     0.0098 F       
  18 C18            2.2027    -2.8833    -2.2110 C.ar    
  19 N19            2.0949    -3.3172    -3.4518 N.ar    
  20 C20            0.9215    -3.5600    -4.0019 C.ar    
  21 C21           -0.2471    -3.3658    -3.2896 C.ar    
  22 C22           -0.1734    -2.9150    -1.9807 C.ar    
  23 C23            0.8535    -4.0543    -5.4239 C.3     
  24 O24           -0.5126    -4.2447    -5.7973 O.3     
  25 C25            2.6341     5.3401    -0.9182 C.ar    
  26 C26            3.8084     6.0633    -0.9207 C.ar    
  27 C27            4.8106     5.7650    -0.0110 C.ar    
  28 C28            4.6382     4.7398     0.9056 C.ar    
  29 C29            3.4652     4.0145     0.9198 C.ar    
  30 F30            5.9595     6.4757    -0.0179 F       
  31 H31           -0.0951     5.2406     0.0317 H       
  32 H32            3.3319    -0.5111    -0.0315 H       
  33 H33            3.3616     1.9267    -0.0195 H       
  34 H34            2.1496    -2.5259     0.4022 H       
  35 H35            0.3781    -2.5448     0.5743 H       
  36 H36           -3.6175     2.3862     0.0496 H       
  37 H37           -4.5194     3.8035     0.0665 H       
  38 H38            3.1813    -2.6954    -1.7944 H       
  39 H39           -1.2053    -3.5661    -3.7458 H       
  40 H40           -1.0695    -2.7579    -1.3988 H       
  41 H41            1.3123    -3.3201    -6.0861 H       
  42 H42            1.3877    -5.0010    -5.5054 H       
  43 H43           -0.6323    -4.5628    -6.7025 H       
  44 H44            1.8541     5.5728    -1.6280 H       
  45 H45            3.9475     6.8632    -1.6329 H       
  46 H46            5.4220     4.5112     1.6125 H       
  47 H47            3.3317     3.2158     1.6344 H       
@<TRIPOS>BOND
   1    1    7 ar
   2    1    2 ar
   3    1    6 ar
   4    2    3 ar
   5    2   10 ar
   6    3    4 ar
   7    3   12 1
   8    4    5 ar
   9    4   31 1
  10    5    6 ar
  11    5   14 1
  12    7    8 ar
  13    7   17 1
  14    8   11 1
  15    8    9 ar
  16    9   10 ar
  17    9   32 1
  18   10   33 1
  19   11   13 1
  20   11   34 1
  21   11   35 1
  22   12   25 ar
  23   12   29 ar
  24   13   18 ar
  25   13   22 ar
  26   14   15 am
  27   14   16 2
  28   15   36 1
  29   15   37 1
  30   18   19 ar
  31   18   38 1
  32   19   20 ar
  33   20   21 ar
  34   20   23 1
  35   21   22 ar
  36   21   39 1
  37   22   40 1
  38   23   24 1
  39   23   41 1
  40   23   42 1
  41   24   43 1
  42   25   26 ar
  43   25   44 1
  44   26   27 ar
  45   26   45 1
  46   27   28 ar
  47   27   30 1
  48   28   29 ar
  49   28   46 1
  50   29   47 1

#	End of record

