#	Name: ASD04882263
#	Creating user name:	WinNT
#	Creation time:	15. 06. 2019 20:54

#	Modifying user name:	WinNT
#	Modification time:	15. 06. 2019 20:54

#	Program:	/corina/corina34_cracker 3.40 0067  02.08.2006

@<TRIPOS>MOLECULE
ASD04882263
  83   86    0    0    0
SMALL
NO_CHARGES


@<TRIPOS>ATOM
   1 N1            -0.1369     1.5564    -0.0347 N.am    
   2 C2            -0.0772     0.1564    -0.0449 C.ar    
   3 C3            -1.2537    -0.5943     0.0291 C.ar    
   4 C4            -1.1961    -1.9833     0.0186 C.ar    
   5 C5             0.0199    -2.6245    -0.0643 C.ar    
   6 C6             1.2003    -1.8798    -0.1385 C.ar    
   7 C7             1.1447    -0.4831    -0.1339 C.ar    
   8 N8            -2.4854     0.0499     0.1139 N.3     
   9 C9            -2.6126     0.7778     1.3841 C.3     
  10 C10           -3.5910    -0.9031    -0.0568 C.3     
  11 C11           -4.9210    -0.1462    -0.0367 C.3     
  12 N12           -5.0483     0.5818     1.2336 N.3     
  13 C13           -3.9427     1.5347     1.4042 C.3     
  14 C14            2.5029    -2.5669    -0.2267 C.2     
  15 O15            3.5293    -1.9181    -0.2913 O.2     
  16 C16           -6.2837     1.2279     1.3187 C.ar    
  17 C17           -6.6355     2.1845     0.3746 C.ar    
  18 C18            0.8442     2.2684     0.5543 C.2     
  19 C19            0.8474     3.7388     0.4574 C.2     
  20 O20            1.7270     1.6973     1.1658 O.2     
  21 C21           -0.0632     4.5249    -0.1861 C.2     
  22 C22            1.8291     4.6657     1.0394 C.2     
  23 C23            1.4250     5.8970     0.6918 C.2     
  24 O24            0.3009     5.8021    -0.0354 O.3     
  25 N25            2.5551    -3.9136    -0.2357 N.am    
  26 C26            3.8486    -4.5959    -0.3233 C.3     
  27 C27            3.6281    -6.1099    -0.3151 C.3     
  28 C28            2.1198     7.1819     1.0626 C.3     
  29 C29            4.9790    -6.8225    -0.4066 C.3     
  30 N30            4.7679    -8.2721    -0.3988 N.am    
  31 C31            5.8233    -9.1072    -0.4714 C.2     
  32 C32           -7.8578     2.8211     0.4614 C.ar    
  33 C33           -8.7312     2.5076     1.4869 C.ar    
  34 C34           -8.3843     1.5560     2.4281 C.ar    
  35 C35           -7.1656     0.9114     2.3439 C.ar    
  36 C36           -6.7884    -0.1260     3.3699 C.3     
  37 O37            5.6293   -10.4395    -0.4642 O.3     
  38 O38            6.9499    -8.6577    -0.5433 O.2     
  39 C39            6.8117   -11.2783    -0.5451 C.3     
  40 C40            7.7247   -10.9893     0.6482 C.3     
  41 C41            6.3952   -12.7504    -0.5239 C.3     
  42 C42            7.5613   -10.9790    -1.8449 C.3     
  43 H43           -0.8823     2.0131    -0.4550 H       
  44 H44           -2.1069    -2.5608     0.0758 H       
  45 H45            0.0614    -3.7037    -0.0715 H       
  46 H46            2.0552     0.0949    -0.1915 H       
  47 H47           -2.5842     0.0705     2.2130 H       
  48 H48           -1.7897     1.4859     1.4815 H       
  49 H49           -3.4813    -1.4204    -1.0099 H       
  50 H50           -3.5736    -1.6295     0.7558 H       
  51 H51           -4.9495     0.5611    -0.8655 H       
  52 H52           -5.7440    -0.8543    -0.1340 H       
  53 H53           -4.0523     2.0521     2.3573 H       
  54 H54           -3.9600     2.2611     0.5917 H       
  55 H55           -5.9536     2.4303    -0.4260 H       
  56 H56           -0.9305     4.1746    -0.7261 H       
  57 H57            2.6979     4.4081     1.6271 H       
  58 H58            1.7363    -4.4311    -0.1842 H       
  59 H59            4.3501    -4.3067    -1.2469 H       
  60 H60            4.4665    -4.3141     0.5293 H       
  61 H61            3.1266    -6.3990     0.6084 H       
  62 H62            3.0102    -6.3917    -1.1677 H       
  63 H63            2.8507     7.4345     0.2945 H       
  64 H64            1.3847     7.9827     1.1420 H       
  65 H65            2.6266     7.0578     2.0196 H       
  66 H66            5.4805    -6.5333    -1.3301 H       
  67 H67            5.5969    -6.5407     0.4460 H       
  68 H68            3.8685    -8.6310    -0.3413 H       
  69 H69           -8.1319     3.5648    -0.2722 H       
  70 H70           -9.6863     3.0074     1.5528 H       
  71 H71           -9.0686     1.3136     3.2276 H       
  72 H72           -7.1245    -1.1073     3.0350 H       
  73 H73           -5.7057    -0.1361     3.4955 H       
  74 H74           -7.2623     0.1151     4.3215 H       
  75 H75            7.1906   -11.2025     1.5742 H       
  76 H76            8.6123   -11.6190     0.5874 H       
  77 H77            8.0214    -9.9406     0.6331 H       
  78 H78            5.7449   -12.9562    -1.3741 H       
  79 H79            7.2829   -13.3800    -0.5847 H       
  80 H80            5.8612   -12.9636     0.4021 H       
  81 H81            7.8580    -9.9303    -1.8600 H       
  82 H82            8.4490   -11.6087    -1.9057 H       
  83 H83            6.9109   -11.1849    -2.6951 H       
@<TRIPOS>BOND
   1    1    2 1
   2    1   18 am
   3    1   43 1
   4    2    3 ar
   5    2    7 ar
   6    3    4 ar
   7    3    8 1
   8    4    5 ar
   9    4   44 1
  10    5    6 ar
  11    5   45 1
  12    6    7 ar
  13    6   14 1
  14    7   46 1
  15    8    9 1
  16    8   10 1
  17    9   13 1
  18    9   47 1
  19    9   48 1
  20   10   11 1
  21   10   49 1
  22   10   50 1
  23   11   12 1
  24   11   51 1
  25   11   52 1
  26   12   13 1
  27   12   16 1
  28   13   53 1
  29   13   54 1
  30   14   15 2
  31   14   25 am
  32   16   17 ar
  33   16   35 ar
  34   17   32 ar
  35   17   55 1
  36   18   20 2
  37   18   19 1
  38   19   21 2
  39   19   22 1
  40   21   24 1
  41   21   56 1
  42   22   23 2
  43   22   57 1
  44   23   24 1
  45   23   28 1
  46   25   26 1
  47   25   58 1
  48   26   27 1
  49   26   59 1
  50   26   60 1
  51   27   29 1
  52   27   61 1
  53   27   62 1
  54   28   63 1
  55   28   64 1
  56   28   65 1
  57   29   30 1
  58   29   66 1
  59   29   67 1
  60   30   31 am
  61   30   68 1
  62   31   37 1
  63   31   38 2
  64   32   33 ar
  65   32   69 1
  66   33   34 ar
  67   33   70 1
  68   34   35 ar
  69   34   71 1
  70   35   36 1
  71   36   72 1
  72   36   73 1
  73   36   74 1
  74   37   39 1
  75   39   40 1
  76   39   41 1
  77   39   42 1
  78   40   75 1
  79   40   76 1
  80   40   77 1
  81   41   78 1
  82   41   79 1
  83   41   80 1
  84   42   81 1
  85   42   82 1
  86   42   83 1

#	End of record

