#	Name: ASD01910467
#	Creating user name:	WinNT
#	Creation time:	15. 06. 2019 19:55

#	Modifying user name:	WinNT
#	Modification time:	15. 06. 2019 19:55

#	Program:	/corina/corina34_cracker 3.40 0067  02.08.2006

@<TRIPOS>MOLECULE
ASD01910467
  40   43    0    0    0
SMALL
NO_CHARGES


@<TRIPOS>ATOM
   1 C1             1.7974     0.3912    -0.5070 C.2     
   2 C2             1.5990    -1.0015    -0.0397 C.2     
   3 N3             0.5638    -1.8140    -0.3528 N.2     
   4 C4             0.7973    -2.9391     0.2756 C.2     
   5 O5             1.9458    -2.7872     0.9424 O.3     
   6 N6             2.3954    -1.6775     0.7486 N.2     
   7 C7            -0.0670    -4.1734     0.2517 C.3     
   8 C8             0.7364    -5.3488    -0.3096 C.3     
   9 C9            -0.1503    -6.5949    -0.3649 C.3     
  10 C10           -0.6076    -6.9546     1.0523 C.3     
  11 N11           -1.2542    -5.7800     1.6530 N.am    
  12 C12           -0.5233    -4.5057     1.6759 C.3     
  13 C13           -2.4943    -5.8698     2.1732 C.2     
  14 C14           -3.2631    -7.1197     2.0342 C.2     
  15 O15           -2.9789    -4.9197     2.7574 O.2     
  16 C16           -3.4020    -7.9842     0.8521 C.2     
  17 N17           -4.1766    -8.9585     1.2279 N.2     
  18 O18           -4.5223    -8.8507     2.3788 O.3     
  19 C19           -4.0219    -7.7678     2.9781 C.2     
  20 C20           -4.2526    -7.3363     4.4034 C.3     
  21 C21            2.8982     1.1650    -0.1356 C.2     
  22 C22            2.8945     2.3890    -0.6598 C.2     
  23 S23            1.4657     2.6019    -1.6607 S.3     
  24 C24            0.9351     1.0144    -1.3292 C.2     
  25 H25           -0.9388    -3.9950    -0.3778 H       
  26 H26            1.0832    -5.1050    -1.3138 H       
  27 H27            1.5947    -5.5422     0.3338 H       
  28 H28           -1.0216    -6.3940    -0.9883 H       
  29 H29            0.4155    -7.4257    -0.7865 H       
  30 H30           -1.3178    -7.7803     1.0085 H       
  31 H31            0.2553    -7.2436     1.6523 H       
  32 H32            0.3464    -4.5949     2.3268 H       
  33 H33           -1.1779    -3.7155     2.0435 H       
  34 H34           -2.9556    -7.8403    -0.1208 H       
  35 H35           -4.9077    -8.0531     4.8985 H       
  36 H36           -3.2986    -7.2928     4.9288 H       
  37 H37           -4.7184    -6.3509     4.4138 H       
  38 H38            3.6799     0.8046     0.5167 H       
  39 H39            3.6545     3.1382    -0.4943 H       
  40 H40            0.0300     0.5737    -1.7205 H       
@<TRIPOS>BOND
   1    1    2 1
   2    1   21 1
   3    1   24 2
   4    2    3 1
   5    2    6 2
   6    3    4 2
   7    4    5 1
   8    4    7 1
   9    5    6 1
  10    7    8 1
  11    7   12 1
  12    7   25 1
  13    8    9 1
  14    8   26 1
  15    8   27 1
  16    9   10 1
  17    9   28 1
  18    9   29 1
  19   10   11 1
  20   10   30 1
  21   10   31 1
  22   11   12 1
  23   11   13 am
  24   12   32 1
  25   12   33 1
  26   13   14 1
  27   13   15 2
  28   14   16 1
  29   14   19 2
  30   16   17 2
  31   16   34 1
  32   17   18 1
  33   18   19 1
  34   19   20 1
  35   20   35 1
  36   20   36 1
  37   20   37 1
  38   21   22 2
  39   21   38 1
  40   22   23 1
  41   22   39 1
  42   23   24 1
  43   24   40 1

#	End of record

