#	Name: ASD00431083
#	Creating user name:	WinNT
#	Creation time:	15. 06. 2019 18:35

#	Modifying user name:	WinNT
#	Modification time:	15. 06. 2019 18:35

#	Program:	/corina/corina34_cracker 3.40 0067  02.08.2006

@<TRIPOS>MOLECULE
ASD00431083
  46   48    0    0    0
SMALL
NO_CHARGES


@<TRIPOS>ATOM
   1 C1            -0.2918     2.1943    -1.2473 C.2     
   2 C2            -0.3956     0.7628    -1.7068 C.3     
   3 O3             0.7966     2.6854    -1.0345 O.2     
   4 N4            -1.4080     2.9305    -1.0783 N.am    
   5 C5            -1.3070     4.3221    -0.6316 C.3     
   6 C6            -1.0681     5.2295    -1.8401 C.3     
   7 C7            -2.5879     4.7241     0.0530 C.ar    
   8 C8            -2.5434     5.5097     1.1911 C.ar    
   9 C9            -3.7122     5.8817     1.8224 C.ar    
  10 C10           -4.9418     5.4637     1.3104 C.ar    
  11 C11           -4.9796     4.6712     0.1619 C.ar    
  12 C12           -3.8035     4.3107    -0.4627 C.ar    
  13 S13           -6.3313     6.8490     3.4324 S.3     
  14 C14           -8.0349     6.7197     3.3780 C.2     
  15 N15           -8.3997     6.0009     2.3622 N.2     
  16 C16           -7.4450     5.5227     1.5924 C.2     
  17 C17           -6.1980     5.8580     1.9818 C.2     
  18 O18           -8.8830     7.2868     4.2692 O.3     
  19 C19          -10.2086     7.0061     4.1566 C.ar    
  20 C20          -10.6966     5.7795     4.5831 C.ar    
  21 C21          -12.0431     5.4945     4.4687 C.ar    
  22 C22          -12.9075     6.4344     3.9269 C.ar    
  23 C23          -12.4197     7.6608     3.5005 C.ar    
  24 C24          -11.0741     7.9484     3.6205 C.ar    
  25 O25          -14.2330     6.1533     3.8135 O.3     
  26 C26          -15.0650     7.1673     3.2465 C.3     
  27 H27            0.6033     0.3346    -1.7902 H       
  28 H28           -0.9771     0.1905    -0.9840 H       
  29 H29           -0.8882     0.7280    -2.6785 H       
  30 H30           -2.2782     2.5389    -1.2523 H       
  31 H31           -0.4757     4.4202     0.0665 H       
  32 H32           -0.1416     4.9387    -2.3352 H       
  33 H33           -1.8994     5.1314    -2.5382 H       
  34 H34           -0.9929     6.2649    -1.5078 H       
  35 H35           -1.5914     5.8321     1.5863 H       
  36 H36           -3.6761     6.4946     2.7109 H       
  37 H37           -5.9276     4.3442    -0.2391 H       
  38 H38           -3.8315     3.7011    -1.3537 H       
  39 H39           -7.6433     4.9133     0.7231 H       
  40 H40          -10.0235     5.0474     5.0043 H       
  41 H41          -12.4231     4.5396     4.8008 H       
  42 H42          -13.0927     8.3924     3.0783 H       
  43 H43          -10.6950     8.9050     3.2925 H       
  44 H44          -15.0079     8.0680     3.8577 H       
  45 H45          -14.7258     7.3923     2.2354 H       
  46 H46          -16.0961     6.8152     3.2139 H       
@<TRIPOS>BOND
   1    1    2 1
   2    1    3 2
   3    1    4 am
   4    2   27 1
   5    2   28 1
   6    2   29 1
   7    4    5 1
   8    4   30 1
   9    5    6 1
  10    5    7 1
  11    5   31 1
  12    6   32 1
  13    6   33 1
  14    6   34 1
  15    7    8 ar
  16    7   12 ar
  17    8    9 ar
  18    8   35 1
  19    9   10 ar
  20    9   36 1
  21   10   11 ar
  22   10   17 1
  23   11   12 ar
  24   11   37 1
  25   12   38 1
  26   13   14 1
  27   13   17 1
  28   14   15 2
  29   14   18 1
  30   15   16 1
  31   16   17 2
  32   16   39 1
  33   18   19 1
  34   19   20 ar
  35   19   24 ar
  36   20   21 ar
  37   20   40 1
  38   21   22 ar
  39   21   41 1
  40   22   23 ar
  41   22   25 1
  42   23   24 ar
  43   23   42 1
  44   24   43 1
  45   25   26 1
  46   26   44 1
  47   26   45 1
  48   26   46 1

#	End of record

