#	Name: ASD01200376
#	Creating user name:	WinNT
#	Creation time:	15. 06. 2019 19:09

#	Modifying user name:	WinNT
#	Modification time:	15. 06. 2019 19:09

#	Program:	/corina/corina34_cracker 3.40 0067  02.08.2006

@<TRIPOS>MOLECULE
ASD01200376
  62   64    0    0    0
SMALL
NO_CHARGES


@<TRIPOS>ATOM
   1 N1            -0.0178     1.4608     0.0101 N.pl3   
   2 C2             0.0234     0.0208     0.2768 C.3     
   3 C3            -0.9984    -0.3264     1.3614 C.3     
   4 P4            -0.3772    -0.8916    -1.2498 P.3     
   5 C5             1.1726     2.1756    -0.1547 C.ar    
   6 O6            -0.2043    -2.4713    -0.9918 O.3     
   7 O7            -1.7752    -0.6060    -1.6428 O.2     
   8 O8             0.6170    -0.4283    -2.4284 O.3     
   9 C9             0.4914    -0.8845    -3.7768 C.3     
  10 C10            1.5910    -0.2534    -4.6332 C.3     
  11 C11           -0.5442    -3.4607    -1.9653 C.3     
  12 C12           -0.2580    -4.8529    -1.3990 C.3     
  13 C13            1.1442     3.5606    -0.2520 C.ar    
  14 C14            2.3214     4.2647    -0.4142 C.ar    
  15 C15            3.5291     3.5906    -0.4799 C.ar    
  16 C16            3.5597     2.2097    -0.3831 C.ar    
  17 C17            2.3855     1.5019    -0.2155 C.ar    
  18 F18            4.6792     4.2813    -0.6391 F       
  19 N19           -2.3397     0.0479     0.9065 N.pl3   
  20 C20           -3.4410    -0.1734     1.7294 C.ar    
  21 N21           -3.2699    -0.7220     2.9211 N.ar    
  22 C22           -4.2865    -0.9490     3.7322 C.ar    
  23 C23           -5.5753    -0.6204     3.3642 C.ar    
  24 C24           -5.8025    -0.0424     2.1223 C.ar    
  25 C25           -4.7155     0.1904     1.2928 C.ar    
  26 O26           -4.8899     0.7594     0.0698 O.3     
  27 C27           -6.2265     1.1024    -0.3015 C.3     
  28 C28           -6.2236     1.7163    -1.6778 C.ar    
  29 C29           -6.0701     3.6457    -3.0873 C.ar    
  30 C30           -6.0728     3.0825    -1.8249 C.ar    
  31 C31           -6.3662     0.9127    -2.7934 C.ar    
  32 C32           -6.3636     1.4758    -4.0559 C.ar    
  33 C33           -6.2189     2.8427    -4.2026 C.ar    
  34 H34           -0.8709     1.9176    -0.0562 H       
  35 H35            1.0214    -0.2576     0.6152 H       
  36 H36           -0.9677    -1.3977     1.5598 H       
  37 H37           -0.7589     0.2192     2.2741 H       
  38 H38            0.5880    -1.9699    -3.8036 H       
  39 H39           -0.4843    -0.5968    -4.1684 H       
  40 H40            2.5667    -0.5411    -4.2417 H       
  41 H41            1.4952    -0.6013    -5.6618 H       
  42 H42            1.4944     0.8320    -4.6064 H       
  43 H43           -1.6028    -3.3793    -2.2118 H       
  44 H44            0.0513    -3.3049    -2.8649 H       
  45 H45           -0.5172    -5.6076    -2.1415 H       
  46 H46            0.8007    -4.9343    -1.1525 H       
  47 H47           -0.8535    -5.0087    -0.4994 H       
  48 H48            0.2024     4.0868    -0.2011 H       
  49 H49            2.2998     5.3418    -0.4902 H       
  50 H50            4.5027     1.6859    -0.4350 H       
  51 H51            2.4098     0.4248    -0.1401 H       
  52 H52           -2.4607     0.4498     0.0320 H       
  53 H53           -4.1069    -1.3987     4.6976 H       
  54 H54           -6.3995    -0.8114     4.0356 H       
  55 H55           -6.8020     0.2234     1.8111 H       
  56 H56           -6.8442     0.2044    -0.3056 H       
  57 H57           -6.6303     1.8180     0.4147 H       
  58 H58           -5.9526     4.7131    -3.2022 H       
  59 H59           -5.9573     3.7100    -0.9534 H       
  60 H60           -6.4792    -0.1553    -2.6788 H       
  61 H61           -6.4743     0.8479    -4.9275 H       
  62 H62           -6.2168     3.2827    -5.1890 H       
@<TRIPOS>BOND
   1    1    2 1
   2    1    5 1
   3    1   34 1
   4    2    3 1
   5    2    4 1
   6    2   35 1
   7    3   19 1
   8    3   36 1
   9    3   37 1
  10    4    6 1
  11    4    7 2
  12    4    8 1
  13    5   13 ar
  14    5   17 ar
  15    6   11 1
  16    8    9 1
  17    9   10 1
  18    9   38 1
  19    9   39 1
  20   10   40 1
  21   10   41 1
  22   10   42 1
  23   11   12 1
  24   11   43 1
  25   11   44 1
  26   12   45 1
  27   12   46 1
  28   12   47 1
  29   13   14 ar
  30   13   48 1
  31   14   15 ar
  32   14   49 1
  33   15   16 ar
  34   15   18 1
  35   16   17 ar
  36   16   50 1
  37   17   51 1
  38   19   20 1
  39   19   52 1
  40   20   21 ar
  41   20   25 ar
  42   21   22 ar
  43   22   23 ar
  44   22   53 1
  45   23   24 ar
  46   23   54 1
  47   24   25 ar
  48   24   55 1
  49   25   26 1
  50   26   27 1
  51   27   28 1
  52   27   56 1
  53   27   57 1
  54   28   31 ar
  55   28   30 ar
  56   29   30 ar
  57   29   33 ar
  58   29   58 1
  59   30   59 1
  60   31   32 ar
  61   31   60 1
  62   32   33 ar
  63   32   61 1
  64   33   62 1

#	End of record

