#	Name: ASD02030758
#	Creating user name:	WinNT
#	Creation time:	15. 06. 2019 20:16

#	Modifying user name:	WinNT
#	Modification time:	15. 06. 2019 20:16

#	Program:	/corina/corina34_cracker 3.40 0067  02.08.2006

@<TRIPOS>MOLECULE
ASD02030758
  71   75    0    0    0
SMALL
NO_CHARGES


@<TRIPOS>ATOM
   1 C1            -1.4640     0.8385    -0.3560 C.ar    
   2 C2            -1.2723    -0.5365    -0.4696 C.ar    
   3 C3            -0.0219    -1.0743    -0.4416 C.ar    
   4 C4             1.0939    -0.2327    -0.2950 C.ar    
   5 C5             0.8977     1.1657    -0.1809 C.ar    
   6 C6            -0.4057     1.6840    -0.2141 C.ar    
   7 C7             2.3980    -0.7463    -0.2572 C.ar    
   8 C8             3.4741     0.0877    -0.1110 C.ar    
   9 C9             3.2942     1.4600    -0.0046 C.ar    
  10 C10            2.0203     2.0041    -0.0362 C.ar    
  11 C11            4.8388    -0.5522    -0.0638 C.3     
  12 C12            5.9278     0.4823    -0.3377 C.3     
  13 C13            5.7060     1.6778     0.5960 C.3     
  14 C14            4.4497     2.4172     0.1410 C.3     
  15 N15            1.8495     3.3823     0.0749 N.3     
  16 C16            1.8400     4.0199    -1.2485 C.3     
  17 C17            1.5419     5.5125    -1.0934 C.3     
  18 C18            1.5320     6.1766    -2.4717 C.3     
  19 C19            1.2340     7.6692    -2.3165 C.3     
  20 C20            1.2241     8.3333    -3.6949 C.3     
  21 N21            0.9387     9.7625    -3.5463 N.pl3   
  22 C22            0.8783    10.5752    -4.6632 C.2     
  23 C23            0.6178    11.8798    -4.5276 C.2     
  24 C24            1.1060     9.9907    -6.0335 C.3     
  25 C25            0.3987    12.7160    -5.7223 C.2     
  26 N26            0.2799    14.0295    -5.6291 N.2     
  27 C27            0.0868    14.6876    -6.7503 C.2     
  28 S28            0.0642    13.4861    -7.9841 S.3     
  29 N29            0.3196    12.1863    -6.9200 N.2     
  30 N30           -0.0657    16.0539    -6.9061 N.pl3   
  31 C31           -0.4068    16.5816    -8.1562 C.ar    
  32 C32           -1.3047    15.9079    -8.9739 C.ar    
  33 C33           -1.6400    16.4307   -10.2075 C.ar    
  34 C34           -1.0816    17.6256   -10.6292 C.ar    
  35 C35           -0.1858    18.2988    -9.8157 C.ar    
  36 C36            0.1477    17.7829    -8.5787 C.ar    
  37 F37           -1.4110    18.1352   -11.8363 F       
  38 H38           -2.4660     1.2404    -0.3854 H       
  39 H39           -2.1282    -1.1856    -0.5812 H       
  40 H40            0.1118    -2.1422    -0.5313 H       
  41 H41           -0.5690     2.7481    -0.1274 H       
  42 H42            2.5555    -1.8112    -0.3439 H       
  43 H43            4.9973    -0.9881     0.9226 H       
  44 H44            4.8930    -1.3387    -0.8164 H       
  45 H45            6.9071     0.0438    -0.1461 H       
  46 H46            5.8690     0.8111    -1.3753 H       
  47 H47            5.5743     1.3253     1.6189 H       
  48 H48            6.5646     2.3474     0.5455 H       
  49 H49            4.6426     2.8965    -0.8188 H       
  50 H50            4.1946     3.1791     0.8776 H       
  51 H51            1.0092     3.6024     0.5883 H       
  52 H52            2.8138     3.8910    -1.7209 H       
  53 H53            1.0715     3.5585    -1.8686 H       
  54 H54            0.5681     5.6414    -0.6210 H       
  55 H55            2.3105     5.9740    -0.4733 H       
  56 H56            2.5059     6.0477    -2.9441 H       
  57 H57            0.7635     5.7152    -3.0918 H       
  58 H58            0.2601     7.7981    -1.8442 H       
  59 H59            2.0025     8.1307    -1.6964 H       
  60 H60            2.1979     8.2044    -4.1673 H       
  61 H61            0.4555     7.8719    -4.3150 H       
  62 H62            0.7921    10.1387    -2.6643 H       
  63 H63            0.5678    12.3209    -3.5431 H       
  64 H64            0.1460     9.7470    -6.4887 H       
  65 H65            1.6293    10.7167    -6.6558 H       
  66 H66            1.7073     9.0857    -5.9472 H       
  67 H67            0.0639    16.6459    -6.1487 H       
  68 H68           -1.7402    14.9758    -8.6456 H       
  69 H69           -2.3379    15.9070   -10.8439 H       
  70 H70            0.2491    19.2303   -10.1468 H       
  71 H71            0.8464    18.3082    -7.9445 H       
@<TRIPOS>BOND
   1    1    2 ar
   2    1    6 ar
   3    1   38 1
   4    2    3 ar
   5    2   39 1
   6    3    4 ar
   7    3   40 1
   8    4    5 ar
   9    4    7 ar
  10    5    6 ar
  11    5   10 ar
  12    6   41 1
  13    7    8 ar
  14    7   42 1
  15    8    9 ar
  16    8   11 1
  17    9   10 ar
  18    9   14 1
  19   10   15 1
  20   11   12 1
  21   11   43 1
  22   11   44 1
  23   12   13 1
  24   12   45 1
  25   12   46 1
  26   13   14 1
  27   13   47 1
  28   13   48 1
  29   14   49 1
  30   14   50 1
  31   15   16 1
  32   15   51 1
  33   16   17 1
  34   16   52 1
  35   16   53 1
  36   17   18 1
  37   17   54 1
  38   17   55 1
  39   18   19 1
  40   18   56 1
  41   18   57 1
  42   19   20 1
  43   19   58 1
  44   19   59 1
  45   20   21 1
  46   20   60 1
  47   20   61 1
  48   21   22 1
  49   21   62 1
  50   22   23 2
  51   22   24 1
  52   23   25 1
  53   23   63 1
  54   24   64 1
  55   24   65 1
  56   24   66 1
  57   25   26 1
  58   25   29 2
  59   26   27 2
  60   27   30 1
  61   27   28 1
  62   28   29 1
  63   30   31 1
  64   30   67 1
  65   31   32 ar
  66   31   36 ar
  67   32   33 ar
  68   32   68 1
  69   33   34 ar
  70   33   69 1
  71   34   35 ar
  72   34   37 1
  73   35   36 ar
  74   35   70 1
  75   36   71 1

#	End of record

