#	Name: ASD03540408
#	Creating user name:	WinNT
#	Creation time:	15. 06. 2019 20:43

#	Modifying user name:	WinNT
#	Modification time:	15. 06. 2019 20:43

#	Program:	/corina/corina34_cracker 3.40 0067  02.08.2006

@<TRIPOS>MOLECULE
ASD03540408
  53   57    0    0    0
SMALL
NO_CHARGES


@<TRIPOS>ATOM
   1 C1            -0.0161     1.3389     0.0094 C.2     
   2 N2             0.0021    -0.0041     0.0020 N.am    
   3 C3             1.1968    -0.6965    -0.0126 C.ar    
   4 C4             2.3989     0.0391    -0.0201 C.ar    
   5 C5             2.3225     1.5104    -0.0120 C.2     
   6 N6             1.0995     2.0850     0.0028 N.am    
   7 C7             3.6164    -0.6318    -0.0344 C.ar    
   8 C8             3.5904    -2.0318    -0.0408 C.ar    
   9 C9             2.3565    -2.6897    -0.0326 C.ar    
  10 N10            1.2235    -2.0201    -0.0191 N.ar    
  11 C11            4.8493    -2.8032    -0.0564 C.2     
  12 O12            5.9177    -2.2230    -0.0638 O.2     
  13 N13            4.8141    -4.1505    -0.0624 N.am    
  14 C14            6.0631    -4.9159    -0.0779 C.3     
  15 C15            5.7491    -6.3898    -0.0819 C.ar    
  16 C16            5.5939    -7.0589    -1.2821 C.ar    
  17 C17            5.3053    -8.4135    -1.2882 C.ar    
  18 C18            5.1724    -9.0990    -0.0827 C.ar    
  19 C19            5.3292    -8.4224     1.1156 C.ar    
  20 C20            5.6225    -7.0710     1.1139 C.ar    
  21 O21            3.3317     2.1885    -0.0180 O.2     
  22 O22           -1.0922     1.9044     0.0175 O.2     
  23 C23           -1.2622    -0.7441     0.0101 C.3     
  24 C24            0.9897     3.5459     0.0116 C.3     
  25 C25            0.9656     4.0392     1.4354 C.ar    
  26 C26            2.1482     4.3553     2.0775 C.ar    
  27 C27            2.1261     4.8077     3.3835 C.ar    
  28 C28            0.9213     4.9445     4.0473 C.ar    
  29 C29           -0.2614     4.6293     3.4049 C.ar    
  30 C30           -0.2396     4.1810     2.0974 C.ar    
  31 O31            4.8907   -10.4069    -0.3535 O.3     
  32 C32            5.2558   -10.6012    -1.7327 C.3     
  33 O33            5.1069    -9.2921    -2.3137 O.3     
  34 H34            4.5513    -0.0911    -0.0408 H       
  35 H35            2.3328    -3.7694    -0.0375 H       
  36 H36            3.9617    -4.6134    -0.0565 H       
  37 H37            6.6329    -4.6634    -0.9722 H       
  38 H38            6.6499    -4.6718     0.8077 H       
  39 H39            5.6975    -6.5249    -2.2151 H       
  40 H40            5.2268    -8.9514     2.0516 H       
  41 H41            5.7485    -6.5459     2.0492 H       
  42 H42           -2.0949    -0.0408     0.0218 H       
  43 H43           -1.3247    -1.3663    -0.8827 H       
  44 H44           -1.3078    -1.3759     0.8971 H       
  45 H45            1.8450     3.9777    -0.5081 H       
  46 H46            0.0701     3.8442    -0.4919 H       
  47 H47            3.0895     4.2484     1.5589 H       
  48 H48            3.0502     5.0540     3.8854 H       
  49 H49            0.9041     5.2974     5.0679 H       
  50 H50           -1.2027     4.7359     3.9236 H       
  51 H51           -1.1639     3.9382     1.5943 H       
  52 H52            6.2889   -10.9398    -1.8114 H       
  53 H53            4.5815   -11.3114    -2.2111 H       
@<TRIPOS>BOND
   1    1    2 am
   2    1    6 am
   3    1   22 2
   4    2    3 1
   5    2   23 1
   6    3    4 ar
   7    3   10 ar
   8    4    5 1
   9    4    7 ar
  10    5    6 am
  11    5   21 2
  12    6   24 1
  13    7    8 ar
  14    7   34 1
  15    8    9 ar
  16    8   11 1
  17    9   10 ar
  18    9   35 1
  19   11   12 2
  20   11   13 am
  21   13   14 1
  22   13   36 1
  23   14   15 1
  24   14   37 1
  25   14   38 1
  26   15   16 ar
  27   15   20 ar
  28   16   17 ar
  29   16   39 1
  30   17   18 ar
  31   17   33 1
  32   18   19 ar
  33   18   31 1
  34   19   20 ar
  35   19   40 1
  36   20   41 1
  37   23   42 1
  38   23   43 1
  39   23   44 1
  40   24   25 1
  41   24   45 1
  42   24   46 1
  43   25   26 ar
  44   25   30 ar
  45   26   27 ar
  46   26   47 1
  47   27   28 ar
  48   27   48 1
  49   28   29 ar
  50   28   49 1
  51   29   30 ar
  52   29   50 1
  53   30   51 1
  54   31   32 1
  55   32   33 1
  56   32   52 1
  57   32   53 1

#	End of record

