#	Name: ASD01911973
#	Creating user name:	WinNT
#	Creation time:	15. 06. 2019 19:58

#	Modifying user name:	WinNT
#	Modification time:	15. 06. 2019 19:58

#	Program:	/corina/corina34_cracker 3.40 0067  02.08.2006

@<TRIPOS>MOLECULE
ASD01911973
  38   40    0    0    0
SMALL
NO_CHARGES


@<TRIPOS>ATOM
   1 C1             0.7762     1.1505    -0.1309 C.ar    
   2 C2             0.5677    -0.2268    -0.1277 C.ar    
   3 C3             1.6761    -1.0616    -0.2490 C.ar    
   4 N4             2.8775    -0.5203    -0.3621 N.ar    
   5 C5             3.0329     0.7885    -0.3609 C.ar    
   6 N6             2.0100     1.6120    -0.2482 N.ar    
   7 N7            -0.7196    -0.7570    -0.0055 N.pl3   
   8 C8            -0.9079    -2.1427    -0.0044 C.ar    
   9 C9            -1.3083    -4.1880    -1.2006 C.ar    
  10 C10           -1.2824    -4.8902    -0.0106 C.ar    
  11 C11           -1.0745    -4.2207     1.1887 C.ar    
  12 C12           -0.8873    -2.8457     1.1917 C.ar    
  13 N13           -1.0490    -4.9332     2.3928 N.am    
  14 C14           -1.5522    -4.3799     3.5140 C.2     
  15 C15           -1.6198    -5.1712     4.7644 C.ar    
  16 O16           -1.9505    -3.2318     3.4991 O.2     
  17 N17           -1.1832    -6.4248     4.7744 N.ar    
  18 C18           -1.1218    -2.8176    -1.2021 C.ar    
  19 F19           -1.1477    -2.1339    -2.3670 F       
  20 C20           -1.8718     0.1389     0.1215 C.3     
  21 C21           -1.2250    -7.1621     5.8630 C.ar    
  22 C22           -1.7302    -6.6536     7.0480 C.ar    
  23 C23           -2.1976    -5.3475     7.0830 C.ar    
  24 C24           -2.1357    -4.5917     5.9211 C.ar    
  25 Cl25          -2.8389    -4.6727     8.5483 Cl      
  26 H26           -0.0577     1.8312    -0.0434 H       
  27 H27            1.5562    -2.1350    -0.2504 H       
  28 H28            4.0277     1.1982    -0.4546 H       
  29 H29           -1.4699    -4.7109    -2.1317 H       
  30 H30           -1.4285    -5.9602    -0.0126 H       
  31 H31           -0.7256    -2.3238     2.1233 H       
  32 H32           -0.6692    -5.8253     2.4205 H       
  33 H33           -2.2600     0.3742    -0.8695 H       
  34 H34           -2.6488    -0.3496     0.7095 H       
  35 H35           -1.5638     1.0586     0.6189 H       
  36 H36           -0.8607    -8.1784     5.8320 H       
  37 H37           -1.7603    -7.2676     7.9360 H       
  38 H38           -2.4904    -3.5717     5.9116 H       
@<TRIPOS>BOND
   1    1    2 ar
   2    1    6 ar
   3    1   26 1
   4    2    3 ar
   5    2    7 1
   6    3    4 ar
   7    3   27 1
   8    4    5 ar
   9    5    6 ar
  10    5   28 1
  11    7    8 1
  12    7   20 1
  13    8   18 ar
  14    8   12 ar
  15    9   10 ar
  16    9   18 ar
  17    9   29 1
  18   10   11 ar
  19   10   30 1
  20   11   12 ar
  21   11   13 1
  22   12   31 1
  23   13   14 am
  24   13   32 1
  25   14   15 1
  26   14   16 2
  27   15   17 ar
  28   15   24 ar
  29   17   21 ar
  30   18   19 1
  31   20   33 1
  32   20   34 1
  33   20   35 1
  34   21   22 ar
  35   21   36 1
  36   22   23 ar
  37   22   37 1
  38   23   24 ar
  39   23   25 1
  40   24   38 1

#	End of record

