#	Name: ASD00122015
#	Creating user name:	WinNT
#	Creation time:	15. 06. 2019 18:31

#	Modifying user name:	WinNT
#	Modification time:	15. 06. 2019 18:31

#	Program:	/corina/corina34_cracker 3.40 0067  02.08.2006

@<TRIPOS>MOLECULE
ASD00122015
  35   35    0    0    0
SMALL
NO_CHARGES


@<TRIPOS>ATOM
   1 C1            -0.0168     1.3888     0.0097 C.ar    
   2 C2             0.0021    -0.0041     0.0020 C.ar    
   3 C3             1.2162    -0.6868    -0.0132 C.ar    
   4 C4             2.3963     0.0108    -0.0207 C.ar    
   5 C5             2.3805     1.4090    -0.0131 C.ar    
   6 C6             1.1601     2.0917     0.0022 C.ar    
   7 C7             3.6483     2.1623    -0.0206 C.2     
   8 N8             3.6316     3.5100    -0.0132 N.am    
   9 O9             4.7089     1.5675    -0.0335 O.2     
  10 C10            4.8910     4.2583    -0.0207 C.3     
  11 C11            4.6562     5.6459    -0.6208 C.3     
  12 C12            5.4068     4.4029     1.4124 C.3     
  13 C13            5.7596     3.0223     1.9693 C.3     
  14 C14            4.2603     5.5051    -2.0919 C.3     
  15 S15           -1.5127    -0.9041     0.0122 S.3     
  16 C16           -0.9608    -2.6320    -0.0025 C.3     
  17 H17           -0.9596     1.9155     0.0170 H       
  18 H18            1.2279    -1.7667    -0.0188 H       
  19 H19            3.3374    -0.5190    -0.0322 H       
  20 H20            1.1449     3.1715     0.0078 H       
  21 H21            2.7856     3.9844    -0.0029 H       
  22 H22            5.6279     3.7233    -0.6198 H       
  23 H23            3.8562     6.1469    -0.0756 H       
  24 H24            5.5709     6.2339    -0.5453 H       
  25 H25            6.2953     5.0344     1.4168 H       
  26 H26            4.6345     4.8582     2.0323 H       
  27 H27            4.8712     2.3908     1.9649 H       
  28 H28            6.5320     2.5670     1.3494 H       
  29 H29            6.1271     3.1253     2.9903 H       
  30 H30            5.0602     5.0041    -2.6371 H       
  31 H31            3.3456     4.9171    -2.1674 H       
  32 H32            4.0930     6.4937    -2.5194 H       
  33 H33           -0.3696    -2.8170    -0.8994 H       
  34 H34           -0.3520    -2.8265     0.8804 H       
  35 H35           -1.8292    -3.2908     0.0025 H       
@<TRIPOS>BOND
   1    1    2 ar
   2    1    6 ar
   3    1   17 1
   4    2    3 ar
   5    2   15 1
   6    3    4 ar
   7    3   18 1
   8    4    5 ar
   9    4   19 1
  10    5    6 ar
  11    5    7 1
  12    6   20 1
  13    7    8 am
  14    7    9 2
  15    8   10 1
  16    8   21 1
  17   10   11 1
  18   10   12 1
  19   10   22 1
  20   11   14 1
  21   11   23 1
  22   11   24 1
  23   12   13 1
  24   12   25 1
  25   12   26 1
  26   13   27 1
  27   13   28 1
  28   13   29 1
  29   14   30 1
  30   14   31 1
  31   14   32 1
  32   15   16 1
  33   16   33 1
  34   16   34 1
  35   16   35 1

#	End of record

