#	Name: ASD02508385
#	Creating user name:	WinNT
#	Creation time:	15. 06. 2019 20:24

#	Modifying user name:	WinNT
#	Modification time:	15. 06. 2019 20:24

#	Program:	/corina/corina34_cracker 3.40 0067  02.08.2006

@<TRIPOS>MOLECULE
ASD02508385
  34   36    0    0    0
SMALL
NO_CHARGES


@<TRIPOS>ATOM
   1 C1            -0.1933     1.7613     0.2767 C.2     
   2 C2            -0.1748     0.3616     0.4443 C.2     
   3 C3             1.1132    -0.0343     0.4032 C.2     
   4 N4             1.8937     1.0715     0.2159 N.pl3   
   5 C5             1.0842     2.1696     0.1393 C.2     
   6 C6             3.2884     1.0783     0.1192 C.ar    
   7 C7             4.0290     1.9576     0.9018 C.ar    
   8 N8             3.8918     0.2445    -0.7118 N.ar    
   9 C9             5.2051     0.2176    -0.8335 C.ar    
  10 C10            6.0029     1.0662    -0.0915 C.ar    
  11 C11            5.4099     1.9532     0.7962 C.ar    
  12 S12            1.6904    -1.6913     0.5638 S.o2    
  13 O13            1.6060    -2.2728    -0.7301 O.2     
  14 O14            2.8987    -1.6249     1.3087 O.2     
  15 N15            0.6003    -2.5004     1.5121 N.am    
  16 C16            0.3846    -2.0935     2.8314 C.ar    
  17 C17           -0.9094    -1.9960     3.3268 C.ar    
  18 C18            1.2480    -1.3894     4.9552 C.ar    
  19 C19            1.4640    -1.7913     3.6516 C.ar    
  20 C20           -1.1196    -1.5936     4.6311 C.ar    
  21 C21           -0.0425    -1.2872     5.4441 C.ar    
  22 Cl22          -0.3105    -0.7811     7.0830 Cl      
  23 Cl23           3.2334     3.0460     1.9955 Cl      
  24 H24           -1.0706     2.3907     0.2573 H       
  25 H25           -1.0352    -0.2767     0.5807 H       
  26 H26            1.4111     3.1886    -0.0065 H       
  27 H27            5.6624    -0.4773    -1.5222 H       
  28 H28            7.0773     1.0371    -0.1979 H       
  29 H29            6.0113     2.6273     1.3881 H       
  30 H30            0.1115    -3.2568     1.1517 H       
  31 H31           -1.7503    -2.2343     2.6924 H       
  32 H32            2.0869    -1.1546     5.5934 H       
  33 H33            2.4714    -1.8709     3.2705 H       
  34 H34           -2.1255    -1.5176     5.0168 H       
@<TRIPOS>BOND
   1    1    2 1
   2    1    5 2
   3    1   24 1
   4    2    3 2
   5    2   25 1
   6    3    4 1
   7    3   12 1
   8    4    5 1
   9    4    6 1
  10    5   26 1
  11    6    7 ar
  12    6    8 ar
  13    7   23 1
  14    7   11 ar
  15    8    9 ar
  16    9   10 ar
  17    9   27 1
  18   10   11 ar
  19   10   28 1
  20   11   29 1
  21   12   13 2
  22   12   14 2
  23   12   15 am
  24   15   16 1
  25   15   30 1
  26   16   17 ar
  27   16   19 ar
  28   17   20 ar
  29   17   31 1
  30   18   19 ar
  31   18   21 ar
  32   18   32 1
  33   19   33 1
  34   20   21 ar
  35   20   34 1
  36   21   22 1

#	End of record

