#	Name: ASD03092275
#	Creating user name:	WinNT
#	Creation time:	15. 06. 2019 20:32

#	Modifying user name:	WinNT
#	Modification time:	15. 06. 2019 20:32

#	Program:	/corina/corina34_cracker 3.40 0067  02.08.2006

@<TRIPOS>MOLECULE
ASD03092275
  41   43    0    0    0
SMALL
NO_CHARGES


@<TRIPOS>ATOM
   1 C1            -0.0178     1.4608     0.0101 C.3     
   2 N2             0.0021    -0.0041     0.0020 N.pl3   
   3 C3             0.0080    -0.7840    -1.1223 C.2     
   4 C4             0.0270    -2.0816    -0.7792 C.2     
   5 C5             0.0339    -2.1375     0.6846 C.ar    
   6 C6             0.0519    -3.1772     1.6159 C.ar    
   7 C7             0.0536    -2.8911     2.9522 C.ar    
   8 C8             0.0736    -4.0141     3.9570 C.3     
   9 N9             1.4611    -4.3587     4.2767 N.am    
  10 C10            1.7249    -5.3426     5.1592 C.2     
  11 O11            0.8116    -5.9441     5.6898 O.2     
  12 C12            3.1251    -5.6904     5.4819 C.ar    
  13 C13            3.4126    -6.7141     6.3922 C.ar    
  14 C14            4.7399    -7.0008     6.6593 C.ar    
  15 C15            5.7305    -6.2737     6.0245 C.ar    
  16 N16            5.4298    -5.3134     5.1709 N.ar    
  17 C17            4.1827    -5.0074     4.8796 C.ar    
  18 C18            7.1770    -6.5829     6.3128 C.3     
  19 F19            7.6343    -7.5535     5.4150 F       
  20 F20            7.9401    -5.4191     6.1699 F       
  21 F21            7.2995    -7.0631     7.6210 F       
  22 C22            0.0375    -1.5746     3.3914 C.ar    
  23 C23            0.0196    -0.5331     2.4894 C.ar    
  24 C24            0.0236    -0.8010     1.1246 C.ar    
  25 C25           -0.0055    -0.2632    -2.5364 C.3     
  26 F26            1.3092    -0.0837    -2.9798 F       
  27 F27           -0.6559    -1.1830    -3.3659 F       
  28 F28           -0.6822     0.9606    -2.5762 F       
  29 H29            1.0048     1.8381     0.0023 H       
  30 H30           -0.5450     1.8219    -0.8730 H       
  31 H31           -0.5280     1.8123     0.9069 H       
  32 H32            0.0353    -2.9245    -1.4543 H       
  33 H33            0.0642    -4.2041     1.2815 H       
  34 H34           -0.4409    -3.6986     4.8647 H       
  35 H35           -0.4299    -4.8854     3.5382 H       
  36 H36            2.1900    -3.8787     3.8533 H       
  37 H37            2.6189    -7.2659     6.8741 H       
  38 H38            4.9995    -7.7838     7.3565 H       
  39 H39            3.9765    -4.2181     4.1718 H       
  40 H40            0.0387    -1.3645     4.4507 H       
  41 H41            0.0069     0.4880     2.8411 H       
@<TRIPOS>BOND
   1    1    2 1
   2    1   29 1
   3    1   30 1
   4    1   31 1
   5    2   24 1
   6    2    3 1
   7    3    4 2
   8    3   25 1
   9    4    5 1
  10    4   32 1
  11    5   24 ar
  12    5    6 ar
  13    6    7 ar
  14    6   33 1
  15    7    8 1
  16    7   22 ar
  17    8    9 1
  18    8   34 1
  19    8   35 1
  20    9   10 am
  21    9   36 1
  22   10   11 2
  23   10   12 1
  24   12   17 ar
  25   12   13 ar
  26   13   14 ar
  27   13   37 1
  28   14   15 ar
  29   14   38 1
  30   15   16 ar
  31   15   18 1
  32   16   17 ar
  33   17   39 1
  34   18   19 1
  35   18   20 1
  36   18   21 1
  37   22   23 ar
  38   22   40 1
  39   23   24 ar
  40   23   41 1
  41   25   26 1
  42   25   27 1
  43   25   28 1

#	End of record

