#	Name: ASD09360011
#	Creating user name:	WinNT
#	Creation time:	15. 06. 2019 21:21

#	Modifying user name:	WinNT
#	Modification time:	15. 06. 2019 21:21

#	Program:	/corina/corina34_cracker 3.40 0067  02.08.2006

@<TRIPOS>MOLECULE
ASD09360011
 102  108    0    0    0
SMALL
NO_CHARGES


@<TRIPOS>ATOM
   1 N1            -0.1070     1.0288     0.1824 N.am    
   2 C2             0.0900    -0.2971     0.0668 C.2     
   3 C3            -1.1958    -0.9779    -0.1886 C.2     
   4 C4            -2.1870    -0.0560    -0.2291 C.2     
   5 C5            -1.5416     1.2884     0.0135 C.3     
   6 C6             0.8785     1.9877     0.4258 C.ar    
   7 C7            -2.1116     1.9200     1.2574 C.ar    
   8 C8            -3.6114    -0.3133    -0.4584 C.2     
   9 O9             1.1669    -0.8526     0.1587 O.2     
  10 O10           -1.3575    -2.3106    -0.3560 O.3     
  11 O11           -4.2570    -0.9373     0.3632 O.2     
  12 C12           -4.2635     0.1846    -1.6867 C.ar    
  13 C13           -2.9957     2.9743     1.1513 C.ar    
  14 C14           -3.5224     3.5571     2.3024 C.ar    
  15 C15           -3.1529     3.0712     3.5547 C.ar    
  16 C16           -2.2678     2.0161     3.6491 C.ar    
  17 C17           -1.7522     1.4380     2.5033 C.ar    
  18 C18            2.2052     1.5982     0.5713 C.ar    
  19 C19            3.1794     2.5432     0.8122 C.ar    
  20 C20            2.8337     3.8903     0.9094 C.ar    
  21 C21            1.5028     4.2787     0.7628 C.ar    
  22 C22            0.5324     3.3312     0.5168 C.ar    
  23 C23           -5.6303    -0.0285    -1.8888 C.ar    
  24 C24           -6.2367     0.4363    -3.0334 C.ar    
  25 C25           -5.4879     1.1202    -3.9921 C.ar    
  26 C26           -4.1233     1.3332    -3.7918 C.ar    
  27 C27           -3.5156     0.8744    -2.6454 C.ar    
  28 C28            3.8804     4.9088     1.1690 C.ar    
  29 C29            3.5363     6.2547     1.2664 C.ar    
  30 C30            4.5184     7.2011     1.5095 C.ar    
  31 C31            5.8413     6.8071     1.6549 C.ar    
  32 C32            6.1836     5.4711     1.5579 C.ar    
  33 C33            5.2107     4.5209     1.3221 C.ar    
  34 O34            4.1866     8.5155     1.6051 O.3     
  35 C35           -4.4730     4.6914     2.1946 C.ar    
  36 C36           -4.9145     5.3453     3.3431 C.ar    
  37 C37           -5.7987     6.3997     3.2370 C.ar    
  38 C38           -6.2470     6.8073     1.9936 C.ar    
  39 C39           -5.8121     6.1618     0.8502 C.ar    
  40 C40           -4.9231     5.1102     0.9442 C.ar    
  41 C41           -6.1424     1.6204    -5.2246 C.ar    
  42 C42           -5.3794     2.2062    -6.2338 C.ar    
  43 C43           -5.9942     2.6700    -7.3788 C.ar    
  44 C44           -7.3649     2.5546    -7.5264 C.ar    
  45 C45           -8.1272     1.9747    -6.5282 C.ar    
  46 C46           -7.5227     1.5016    -5.3815 C.ar    
  47 C47            5.8385    15.6708     2.6193 C.3     
  48 C48           -7.2133     7.9586     1.8842 C.3     
  49 C49           -6.5444     9.1170     1.1415 C.3     
  50 C50           -8.4568     7.5094     1.1143 C.3     
  51 C51            5.2498     9.4364     1.8570 C.3     
  52 C52            4.6871    10.8572     1.9313 C.3     
  53 C53            5.8255    11.8432     2.2010 C.3     
  54 C54            5.2628    13.2640     2.2753 C.3     
  55 C55            6.4012    14.2500     2.5450 C.3     
  56 H56           -1.7002     1.9408    -0.8452 H       
  57 H57           -0.5361    -2.8173    -0.2945 H       
  58 H58           -3.2785     3.3474     0.1781 H       
  59 H59           -3.5578     3.5194     4.4499 H       
  60 H60           -1.9804     1.6388     4.6194 H       
  61 H61           -1.0603     0.6125     2.5818 H       
  62 H62            2.4726     0.5546     0.4959 H       
  63 H63            4.2098     2.2402     0.9258 H       
  64 H64            1.2329     5.3217     0.8381 H       
  65 H65           -0.4987     3.6317     0.4028 H       
  66 H66           -6.2100    -0.5580    -1.1472 H       
  67 H67           -7.2925     0.2715    -3.1899 H       
  68 H68           -3.5448     1.8623    -4.5346 H       
  69 H69           -2.4596     1.0394    -2.4907 H       
  70 H70            2.5066     6.5600     1.1523 H       
  71 H71            6.6056     7.5463     1.8440 H       
  72 H72            7.2145     5.1697     1.6711 H       
  73 H73            5.4813     3.4780     1.2468 H       
  74 H74           -4.5656     5.0275     4.3145 H       
  75 H75           -6.1415     6.9073     4.1266 H       
  76 H76           -6.1653     6.4841    -0.1182 H       
  77 H77           -4.5841     4.6068     0.0508 H       
  78 H78           -4.3093     2.2971    -6.1195 H       
  79 H79           -5.4043     3.1243    -8.1611 H       
  80 H80           -7.8418     2.9190    -8.4243 H       
  81 H81           -9.1969     1.8876    -6.6488 H       
  82 H82           -8.1188     1.0490    -4.6028 H       
  83 H83            5.3575    15.9210     1.6737 H       
  84 H84            5.1076    15.7304     3.4257 H       
  85 H85            6.6495    16.3732     2.8114 H       
  86 H86           -7.5027     8.2861     2.8827 H       
  87 H87           -6.3354     8.8177     0.1144 H       
  88 H88           -7.2098     9.9802     1.1400 H       
  89 H89           -5.6114     9.3783     1.6408 H       
  90 H90           -8.1587     7.1036     0.1476 H       
  91 H91           -8.9798     6.7419     1.6848 H       
  92 H92           -9.1177     8.3626     0.9620 H       
  93 H93            5.7308     9.1862     2.8026 H       
  94 H94            5.9808     9.3768     1.0506 H       
  95 H95            4.2061    11.1074     0.9857 H       
  96 H96            3.9562    10.9168     2.7377 H       
  97 H97            6.3065    11.5930     3.1466 H       
  98 H98            6.5565    11.7836     1.3946 H       
  99 H99            4.7818    13.5142     1.3297 H       
 100 H100           4.5319    13.3236     3.0817 H       
 101 H101           7.1322    14.1904     1.7386 H       
 102 H102           6.8822    13.9998     3.4906 H       
@<TRIPOS>BOND
   1    1    2 am
   2    1    6 1
   3    1    5 1
   4    2    3 1
   5    2    9 2
   6    3    4 2
   7    3   10 1
   8    4    5 1
   9    4    8 1
  10    5    7 1
  11    5   56 1
  12    6   18 ar
  13    6   22 ar
  14    7   13 ar
  15    7   17 ar
  16    8   11 2
  17    8   12 1
  18   10   57 1
  19   12   23 ar
  20   12   27 ar
  21   13   14 ar
  22   13   58 1
  23   14   15 ar
  24   14   35 1
  25   15   16 ar
  26   15   59 1
  27   16   17 ar
  28   16   60 1
  29   17   61 1
  30   18   19 ar
  31   18   62 1
  32   19   20 ar
  33   19   63 1
  34   20   21 ar
  35   20   28 1
  36   21   22 ar
  37   21   64 1
  38   22   65 1
  39   23   24 ar
  40   23   66 1
  41   24   25 ar
  42   24   67 1
  43   25   26 ar
  44   25   41 1
  45   26   27 ar
  46   26   68 1
  47   27   69 1
  48   28   29 ar
  49   28   33 ar
  50   29   30 ar
  51   29   70 1
  52   30   31 ar
  53   30   34 1
  54   31   32 ar
  55   31   71 1
  56   32   33 ar
  57   32   72 1
  58   33   73 1
  59   34   51 1
  60   35   36 ar
  61   35   40 ar
  62   36   37 ar
  63   36   74 1
  64   37   38 ar
  65   37   75 1
  66   38   39 ar
  67   38   48 1
  68   39   40 ar
  69   39   76 1
  70   40   77 1
  71   41   42 ar
  72   41   46 ar
  73   42   43 ar
  74   42   78 1
  75   43   44 ar
  76   43   79 1
  77   44   45 ar
  78   44   80 1
  79   45   46 ar
  80   45   81 1
  81   46   82 1
  82   47   55 1
  83   47   83 1
  84   47   84 1
  85   47   85 1
  86   48   49 1
  87   48   50 1
  88   48   86 1
  89   49   87 1
  90   49   88 1
  91   49   89 1
  92   50   90 1
  93   50   91 1
  94   50   92 1
  95   51   52 1
  96   51   93 1
  97   51   94 1
  98   52   53 1
  99   52   95 1
 100   52   96 1
 101   53   54 1
 102   53   97 1
 103   53   98 1
 104   54   55 1
 105   54   99 1
 106   54  100 1
 107   55  101 1
 108   55  102 1

#	End of record

