#	Name: ASD02448121
#	Creating user name:	WinNT
#	Creation time:	15. 06. 2019 20:21

#	Modifying user name:	WinNT
#	Modification time:	15. 06. 2019 20:21

#	Program:	/corina/corina34_cracker 3.40 0067  02.08.2006

@<TRIPOS>MOLECULE
ASD02448121
  77   83    0    0    0
SMALL
NO_CHARGES


@<TRIPOS>ATOM
   1 C1            -0.0495    -6.5829     3.1351 C.ar    
   2 C2             0.4370    -5.4514     2.5095 C.ar    
   3 C3             0.3489    -5.3268     1.1289 C.ar    
   4 C4            -0.2282    -6.3397     0.3779 C.ar    
   5 C5            -0.7163    -7.4757     1.0090 C.ar    
   6 C6            -0.6252    -7.5942     2.3903 C.ar    
   7 N7            -1.2987    -8.4981     0.2563 N.am    
   8 C8            -1.4107    -9.9213     0.6012 C.3     
   9 C9            -2.1062   -10.6886    -0.4765 C.2     
  10 N10           -2.4889    -9.9547    -1.5309 N.am    
  11 S11           -2.0330    -8.3809    -1.2372 S.o2    
  12 O12           -2.3081   -11.8823    -0.4030 O.2     
  13 O13           -3.2237    -7.6239    -1.0688 O.2     
  14 O14           -1.0137    -8.0580    -2.1732 O.2     
  15 N15            0.8426    -4.1777     0.4952 N.pl3   
  16 C16            1.7739    -4.1404    -0.5081 C.2     
  17 C17            0.4816    -2.8942     0.7584 C.2     
  18 N18            1.1499    -2.0984    -0.0289 N.2     
  19 C19            1.9563    -2.8316    -0.8232 C.2     
  20 C20            2.8793    -2.3027    -1.8572 C.ar    
  21 C21            2.9684    -0.9284    -2.0788 C.ar    
  22 C22            3.6642    -3.1765    -2.6065 C.ar    
  23 C23            4.5214    -2.6795    -3.5675 C.ar    
  24 C24            4.6028    -1.3154    -3.7876 C.ar    
  25 C25            3.8292    -0.4417    -3.0426 C.ar    
  26 C26           -0.5265    -2.4615     1.7916 C.3     
  27 C27           -1.8704    -2.2762     1.1353 C.ar    
  28 C28           -2.7139    -3.3606     0.9741 C.ar    
  29 C29           -2.2582    -1.0212     0.7017 C.ar    
  30 C30           -3.4882    -0.8454     0.1009 C.ar    
  31 C31           -4.3399    -1.9354    -0.0690 C.ar    
  32 C32           -3.9459    -3.1966     0.3742 C.ar    
  33 C33           -5.6631    -1.7528    -0.7141 C.ar    
  34 C34           -6.5138    -2.8442    -0.8832 C.ar    
  35 C35           -6.0601    -0.4885    -1.1470 C.ar    
  36 C36           -7.2902    -0.3210    -1.7463 C.ar    
  37 C37           -8.1346    -1.4117    -1.9192 C.ar    
  38 C38           -7.7430    -2.6723    -1.4831 C.ar    
  39 N39           -9.3795    -1.2399    -2.5262 N.3     
  40 Cl40           5.6835    -0.6974    -4.9975 Cl      
  41 Cl41           1.9988     0.1679    -1.1450 Cl      
  42 C42          -10.1053    -2.5138    -2.6082 C.3     
  43 C43          -11.5172    -2.2645    -3.1433 C.3     
  44 C44          -11.4261    -1.6175    -4.5281 C.3     
  45 C45          -10.6243    -0.3172    -4.4235 C.3     
  46 C46           -9.2382    -0.6230    -3.8513 C.3     
  47 H47            0.0243    -6.6792     4.2083 H       
  48 H48            0.8861    -4.6625     3.0946 H       
  49 H49           -0.2980    -6.2448    -0.6956 H       
  50 H50           -1.0047    -8.4777     2.8822 H       
  51 H51           -0.4119   -10.3334     0.7452 H       
  52 H52           -1.9730   -10.0204     1.5297 H       
  53 H53           -2.9500   -10.2806    -2.3196 H       
  54 H54            2.2679    -4.9874    -0.9610 H       
  55 H55            3.6023    -4.2410    -2.4354 H       
  56 H56            5.1301    -3.3564    -4.1486 H       
  57 H57            3.8961     0.6218    -3.2184 H       
  58 H58           -0.6027    -3.2242     2.5666 H       
  59 H59           -0.2075    -1.5199     2.2385 H       
  60 H60           -2.4075    -4.3375     1.3179 H       
  61 H61           -1.5974    -0.1772     0.8338 H       
  62 H62           -3.7903     0.1350    -0.2367 H       
  63 H63           -4.6019    -4.0448     0.2448 H       
  64 H64           -6.2098    -3.8237    -0.5449 H       
  65 H65           -5.4045     0.3592    -1.0126 H       
  66 H66           -7.5982     0.6584    -2.0815 H       
  67 H67           -8.4005    -3.5184    -1.6183 H       
  68 H68           -9.5767    -3.1904    -3.2797 H       
  69 H69          -10.1666    -2.9614    -1.6162 H       
  70 H70          -12.0504    -3.2122    -3.2188 H       
  71 H71          -12.0512    -1.5989    -2.4650 H       
  72 H72          -10.9266    -2.2992    -5.2165 H       
  73 H73          -12.4290    -1.3985    -4.8945 H       
  74 H74          -10.5195     0.1263    -5.4136 H       
  75 H75          -11.1442     0.3790    -3.7654 H       
  76 H76           -8.6698     0.3027    -3.7622 H       
  77 H77           -8.7136    -1.3085    -4.5169 H       
@<TRIPOS>BOND
   1    1    2 ar
   2    1    6 ar
   3    1   47 1
   4    2    3 ar
   5    2   48 1
   6    3    4 ar
   7    3   15 1
   8    4    5 ar
   9    4   49 1
  10    5    6 ar
  11    5    7 1
  12    6   50 1
  13    7    8 1
  14    7   11 am
  15    8    9 1
  16    8   51 1
  17    8   52 1
  18    9   10 am
  19    9   12 2
  20   10   11 am
  21   10   53 1
  22   11   13 2
  23   11   14 2
  24   15   16 1
  25   15   17 1
  26   16   19 2
  27   16   54 1
  28   17   18 2
  29   17   26 1
  30   18   19 1
  31   19   20 1
  32   20   21 ar
  33   20   22 ar
  34   21   41 1
  35   21   25 ar
  36   22   23 ar
  37   22   55 1
  38   23   24 ar
  39   23   56 1
  40   24   25 ar
  41   24   40 1
  42   25   57 1
  43   26   27 1
  44   26   58 1
  45   26   59 1
  46   27   28 ar
  47   27   29 ar
  48   28   32 ar
  49   28   60 1
  50   29   30 ar
  51   29   61 1
  52   30   31 ar
  53   30   62 1
  54   31   32 ar
  55   31   33 1
  56   32   63 1
  57   33   34 ar
  58   33   35 ar
  59   34   38 ar
  60   34   64 1
  61   35   36 ar
  62   35   65 1
  63   36   37 ar
  64   36   66 1
  65   37   39 1
  66   37   38 ar
  67   38   67 1
  68   39   42 1
  69   39   46 1
  70   42   43 1
  71   42   68 1
  72   42   69 1
  73   43   44 1
  74   43   70 1
  75   43   71 1
  76   44   45 1
  77   44   72 1
  78   44   73 1
  79   45   46 1
  80   45   74 1
  81   45   75 1
  82   46   76 1
  83   46   77 1

#	End of record

