#	Name: ASD03930173
#	Creating user name:	WinNT
#	Creation time:	15. 06. 2019 20:47

#	Modifying user name:	WinNT
#	Modification time:	15. 06. 2019 20:47

#	Program:	/corina/corina34_cracker 3.40 0067  02.08.2006

@<TRIPOS>MOLECULE
ASD03930173
  40   42    0    0    0
SMALL
NO_CHARGES


@<TRIPOS>ATOM
   1 O1            -0.0144     1.2087     0.0087 O.3     
   2 N2             0.0021    -0.0041     0.0020 N.2     
   3 C3             1.2359    -0.4366    -0.0121 C.2     
   4 N4             2.0401     0.6505    -0.0139 N.2     
   5 C5             1.2352     1.6835    -0.0007 C.2     
   6 C6             1.6721    -1.8552    -0.0231 C.ar    
   7 C7             0.7227    -2.8765    -0.0193 C.ar    
   8 C8             1.1275    -4.1932    -0.0295 C.ar    
   9 C9             2.4868    -4.5048    -0.0442 C.ar    
  10 C10            3.4362    -3.4832    -0.0485 C.ar    
  11 C11            3.0312    -2.1665    -0.0432 C.ar    
  12 O12            4.2923    -6.5069    -0.0708 O.3     
  13 B13            2.9482    -6.0054    -0.0554 Du      
  14 O14            2.1182    -7.1756    -0.0519 O.3     
  15 C15            2.7932    -8.0996     0.8274 C.3     
  16 C16            4.2672    -7.6463     0.8146 C.3     
  17 C17            5.1634    -8.7619     0.2732 C.3     
  18 C18            4.7118    -7.2387     2.2207 C.3     
  19 C19            2.2187    -8.0055     2.2423 C.3     
  20 C20            2.6703    -9.5287     0.2948 C.3     
  21 C21            1.6413     3.1347     0.0032 C.3     
  22 H22           -0.3299    -2.6352    -0.0079 H       
  23 H23            0.3922    -4.9843    -0.0258 H       
  24 H24            4.4889    -3.7243    -0.0595 H       
  25 H25            3.7663    -1.3754    -0.0507 H       
  26 H26            6.1922    -8.4062     0.2163 H       
  27 H27            5.1133    -9.6235     0.9390 H       
  28 H28            4.8233    -9.0509    -0.7212 H       
  29 H29            4.0538    -6.4554     2.5971 H       
  30 H30            4.6627    -8.1035     2.8823 H       
  31 H31            5.7358    -6.8667     2.1845 H       
  32 H32            1.1623    -8.2733     2.2241 H       
  33 H33            2.7558    -8.6900     2.8988 H       
  34 H34            2.3287    -6.9860     2.6120 H       
  35 H35            3.0982    -9.5814    -0.7063 H       
  36 H36            3.2064   -10.2100     0.9555 H       
  37 H37            1.6187    -9.8128     0.2559 H       
  38 H38            0.7497     3.7615     0.0155 H       
  39 H39            2.2429     3.3413     0.8884 H       
  40 H40            2.2252     3.3511    -0.8914 H       
@<TRIPOS>BOND
   1    1    2 1
   2    1    5 1
   3    2    3 2
   4    3    4 1
   5    3    6 1
   6    4    5 2
   7    5   21 1
   8    6    7 ar
   9    6   11 ar
  10    7    8 ar
  11    7   22 1
  12    8    9 ar
  13    8   23 1
  14    9   10 ar
  15    9   13 1
  16   10   11 ar
  17   10   24 1
  18   11   25 1
  19   12   13 1
  20   12   16 1
  21   13   14 1
  22   14   15 1
  23   15   16 1
  24   15   19 1
  25   15   20 1
  26   16   17 1
  27   16   18 1
  28   17   26 1
  29   17   27 1
  30   17   28 1
  31   18   29 1
  32   18   30 1
  33   18   31 1
  34   19   32 1
  35   19   33 1
  36   19   34 1
  37   20   35 1
  38   20   36 1
  39   20   37 1
  40   21   38 1
  41   21   39 1
  42   21   40 1

#	End of record

