#	Name: ASD01882897
#	Creating user name:	WinNT
#	Creation time:	15. 06. 2019 19:45

#	Modifying user name:	WinNT
#	Modification time:	15. 06. 2019 19:45

#	Program:	/corina/corina34_cracker 3.40 0067  02.08.2006

@<TRIPOS>MOLECULE
ASD01882897
  60   64    0    0    0
SMALL
NO_CHARGES


@<TRIPOS>ATOM
   1 C1            -0.0159     1.3220     0.0093 C.2     
   2 N2             0.0021    -0.0041     0.0020 N.2     
   3 C3             1.1523    -0.6857    -0.0126 C.2     
   4 C4             2.3835     0.0173    -0.0206 C.2     
   5 C5             2.3523     1.3664    -0.0131 C.2     
   6 N6             1.1484     2.0132     0.0019 N.pl3   
   7 O7            -1.0993     2.1290     0.0184 O.3     
   8 C8             0.8540     3.4562     0.0125 C.3     
   9 C9            -0.6831     3.5211     0.0242 C.3     
  10 O10            1.1423    -1.9071    -0.0187 O.2     
  11 C11            3.6366     2.1548    -0.0206 C.3     
  12 S12            3.9053     2.8572    -1.6714 S.3     
  13 C13            5.4260     3.7283    -1.4888 C.ar    
  14 C14            5.9703     4.4133    -2.5685 C.ar    
  15 C15            7.1623     5.0948    -2.4218 C.ar    
  16 C16            7.8146     5.0958    -1.2022 C.ar    
  17 C17            7.2761     4.4148    -0.1256 C.ar    
  18 C18            6.0811     3.7366    -0.2632 C.ar    
  19 C19           -1.1944     4.2379    -1.2270 C.3     
  20 O20           -2.6209     4.3119    -1.1842 O.3     
  21 C21           -3.2386     4.9234    -2.2289 C.ar    
  22 C22           -4.6216     5.0305    -2.2523 C.ar    
  23 C23           -5.2471     5.6525    -3.3154 C.ar    
  24 C24           -4.4961     6.1681    -4.3555 C.ar    
  25 C25           -3.1176     6.0622    -4.3348 C.ar    
  26 C26           -2.4869     5.4466    -3.2710 C.ar    
  27 C27           -5.1811     6.8461    -5.5140 C.3     
  28 C28           -4.6972     8.2940    -5.6161 C.3     
  29 C29           -5.3927     8.9824    -6.7923 C.3     
  30 C30           -5.0582     8.2403    -8.0878 C.3     
  31 C31           -5.5421     6.7924    -7.9857 C.3     
  32 C32           -4.8466     6.1041    -6.8095 C.3     
  33 H33            3.3237    -0.5140    -0.0321 H       
  34 H34            1.2651     3.9237     0.9072 H       
  35 H35            1.2480     3.9334    -0.8848 H       
  36 H36           -1.0396     4.0220     0.9243 H       
  37 H37            3.5729     2.9602     0.7110 H       
  38 H38            4.4679     1.4975     0.2342 H       
  39 H39            5.4619     4.4124    -3.5213 H       
  40 H40            7.5859     5.6273    -3.2604 H       
  41 H41            8.7469     5.6293    -1.0904 H       
  42 H42            7.7884     4.4174     0.8251 H       
  43 H43            5.6588     3.2091     0.5792 H       
  44 H44           -0.7793     5.2451    -1.2639 H       
  45 H45           -0.8857     3.6850    -2.1142 H       
  46 H46           -5.2087     4.6276    -1.4403 H       
  47 H47           -6.3237     5.7358    -3.3343 H       
  48 H48           -2.5332     6.4651    -5.1488 H       
  49 H49           -1.4099     5.3684    -3.2529 H       
  50 H50           -6.2595     6.8337    -5.3562 H       
  51 H51           -4.9355     8.8226    -4.6932 H       
  52 H52           -3.6188     8.3064    -5.7739 H       
  53 H53           -6.4712     8.9700    -6.6345 H       
  54 H54           -5.0480    10.0139    -6.8650 H       
  55 H55           -5.5537     8.7307    -8.9257 H       
  56 H56           -3.9798     8.2527    -8.2456 H       
  57 H57           -6.6205     6.7800    -7.8279 H       
  58 H58           -5.3038     6.2638    -8.9087 H       
  59 H59           -3.7682     6.1165    -6.9673 H       
  60 H60           -5.1913     5.0726    -6.7368 H       
@<TRIPOS>BOND
   1    1    2 2
   2    1    6 1
   3    1    7 1
   4    2    3 1
   5    3    4 1
   6    3   10 2
   7    4    5 2
   8    4   33 1
   9    5    6 1
  10    5   11 1
  11    6    8 1
  12    7    9 1
  13    8    9 1
  14    8   34 1
  15    8   35 1
  16    9   19 1
  17    9   36 1
  18   11   12 1
  19   11   37 1
  20   11   38 1
  21   12   13 1
  22   13   14 ar
  23   13   18 ar
  24   14   15 ar
  25   14   39 1
  26   15   16 ar
  27   15   40 1
  28   16   17 ar
  29   16   41 1
  30   17   18 ar
  31   17   42 1
  32   18   43 1
  33   19   20 1
  34   19   44 1
  35   19   45 1
  36   20   21 1
  37   21   22 ar
  38   21   26 ar
  39   22   23 ar
  40   22   46 1
  41   23   24 ar
  42   23   47 1
  43   24   25 ar
  44   24   27 1
  45   25   26 ar
  46   25   48 1
  47   26   49 1
  48   27   28 1
  49   27   32 1
  50   27   50 1
  51   28   29 1
  52   28   51 1
  53   28   52 1
  54   29   30 1
  55   29   53 1
  56   29   54 1
  57   30   31 1
  58   30   55 1
  59   30   56 1
  60   31   32 1
  61   31   57 1
  62   31   58 1
  63   32   59 1
  64   32   60 1

#	End of record

