#	Name: ASD01910924
#	Creating user name:	WinNT
#	Creation time:	15. 06. 2019 19:56

#	Modifying user name:	WinNT
#	Modification time:	15. 06. 2019 19:56

#	Program:	/corina/corina34_cracker 3.40 0067  02.08.2006

@<TRIPOS>MOLECULE
ASD01910924
  52   55    0    0    0
SMALL
NO_CHARGES


@<TRIPOS>ATOM
   1 N1             0.1996     1.2041    -0.0729 N.3     
   2 C2             0.0905    -0.2538     0.0704 C.3     
   3 C3            -1.3819    -0.6369     0.2537 C.3     
   4 N4            -2.1561    -0.0615    -0.8566 N.am    
   5 C5            -1.9938     1.3707    -1.1493 C.3     
   6 C6            -0.4973     1.6748    -1.2774 C.3     
   7 C7            -2.9925    -0.8262    -1.5860 C.2     
   8 C8            -3.8540    -0.2053    -2.6151 C.ar    
   9 C9            -4.0613    -0.8506    -3.8363 C.ar    
  10 C10           -4.8655    -0.2728    -4.7991 C.ar    
  11 C11           -5.4700     0.9453    -4.5628 C.ar    
  12 C12           -5.2710     1.6030    -3.3449 C.ar    
  13 C13           -4.4650     1.0217    -2.3662 C.ar    
  14 C14           -5.8982     2.8670    -3.1007 C.1     
  15 O15           -3.0387    -2.0262    -1.3980 O.2     
  16 C16           -6.4124     3.9033    -2.9005 C.1     
  17 C17           -7.0396     5.1673    -2.6563 C.ar    
  18 C18           -6.8478     5.8332    -1.4433 C.ar    
  19 N19           -7.4249     6.9955    -1.2195 N.ar    
  20 C20           -8.1985     7.5740    -2.1180 C.ar    
  21 C21           -8.4390     6.9792    -3.3439 C.ar    
  22 C22           -7.8518     5.7605    -3.6324 C.ar    
  23 C23            1.5367     1.6078    -0.0783 C.ar    
  24 C24            2.3784     1.2143    -1.1107 C.ar    
  25 C25            3.7000     1.6158    -1.1132 C.ar    
  26 C26            4.1855     2.4080    -0.0893 C.ar    
  27 C27            3.3500     2.8016     0.9402 C.ar    
  28 C28            2.0263     2.4086     0.9459 C.ar    
  29 C29            1.1166     2.8384     2.0679 C.3     
  30 F30            1.8051     3.7100     2.9186 F       
  31 F31           -0.0017     3.4907     1.5377 F       
  32 F32            0.7021     1.7135     2.7890 F       
  33 H33            0.4836    -0.7376    -0.8238 H       
  34 H34            0.6616    -0.5775     0.9405 H       
  35 H35           -1.4815    -1.7223     0.2457 H       
  36 H36           -1.7485    -0.2397     1.2003 H       
  37 H37           -2.4979     1.6127    -2.0849 H       
  38 H38           -2.4191     1.9609    -0.3376 H       
  39 H39           -0.3524     2.7498    -1.3847 H       
  40 H40           -0.0960     1.1641    -2.1528 H       
  41 H41           -3.5912    -1.8037    -4.0284 H       
  42 H42           -5.0218    -0.7763    -5.7417 H       
  43 H43           -6.0976     1.3914    -5.3201 H       
  44 H44           -4.3077     1.5249    -1.4237 H       
  45 H45           -6.2214     5.3910    -0.6827 H       
  46 H46           -8.6521     8.5279    -1.8926 H       
  47 H47           -9.0750     7.4637    -4.0699 H       
  48 H48           -8.0225     5.2741    -4.5815 H       
  49 H49            2.0000     0.5949    -1.9104 H       
  50 H50            4.3551     1.3102    -1.9157 H       
  51 H51            5.2195     2.7199    -0.0933 H       
  52 H52            3.7325     3.4202     1.7387 H       
@<TRIPOS>BOND
   1    1    2 1
   2    1   23 1
   3    1    6 1
   4    2    3 1
   5    2   33 1
   6    2   34 1
   7    3    4 1
   8    3   35 1
   9    3   36 1
  10    4    5 1
  11    4    7 am
  12    5    6 1
  13    5   37 1
  14    5   38 1
  15    6   39 1
  16    6   40 1
  17    7    8 1
  18    7   15 2
  19    8    9 ar
  20    8   13 ar
  21    9   10 ar
  22    9   41 1
  23   10   11 ar
  24   10   42 1
  25   11   12 ar
  26   11   43 1
  27   12   13 ar
  28   12   14 1
  29   13   44 1
  30   14   16 3
  31   16   17 1
  32   17   18 ar
  33   17   22 ar
  34   18   19 ar
  35   18   45 1
  36   19   20 ar
  37   20   21 ar
  38   20   46 1
  39   21   22 ar
  40   21   47 1
  41   22   48 1
  42   23   24 ar
  43   23   28 ar
  44   24   25 ar
  45   24   49 1
  46   25   26 ar
  47   25   50 1
  48   26   27 ar
  49   26   51 1
  50   27   28 ar
  51   27   52 1
  52   28   29 1
  53   29   30 1
  54   29   31 1
  55   29   32 1

#	End of record

