#	Name: ASD01810088
#	Creating user name:	WinNT
#	Creation time:	15. 06. 2019 19:23

#	Modifying user name:	WinNT
#	Modification time:	15. 06. 2019 19:23

#	Program:	/corina/corina34_cracker 3.40 0067  02.08.2006

@<TRIPOS>MOLECULE
ASD01810088
  39   42    0    0    0
SMALL
NO_CHARGES


@<TRIPOS>ATOM
   1 C1            -0.0167     1.3787     0.0096 C.ar    
   2 C2             0.0021    -0.0041     0.0020 C.ar    
   3 C3             1.2029    -0.6955    -0.0127 C.ar    
   4 C4             2.4080    -0.0046    -0.0200 C.ar    
   5 C5             2.3883     1.3999    -0.0127 C.ar    
   6 C6             1.1719     2.0883     0.0021 C.ar    
   7 N7             3.7279    -0.4535    -0.0341 N.am    
   8 C8             4.5948     0.5740    -0.0367 C.2     
   9 C9             3.7933     1.8413    -0.0231 C.2     
  10 O10            4.2109     2.9810    -0.0207 O.2     
  11 O11            5.8051     0.4910    -0.0473 O.2     
  12 C12            4.1202    -1.8649    -0.0443 C.3     
  13 C13            4.2418    -2.3423    -1.4685 C.ar    
  14 C14            5.3836    -2.0545    -2.1979 C.ar    
  15 C15            5.4991    -2.4911    -3.5049 C.ar    
  16 C16            4.4652    -3.2206    -4.0859 C.ar    
  17 C17            3.3193    -3.5067    -3.3467 C.ar    
  18 C18            4.5832    -3.6917    -5.4890 C.2     
  19 C19            5.6772    -3.4771    -6.3498 C.2     
  20 N20            5.4084    -4.0428    -7.4966 N.2     
  21 N21            4.1428    -4.6360    -7.4143 N.pl3   
  22 C22            3.6542    -4.4163    -6.1770 C.2     
  23 C23            3.4682    -5.3729    -8.4858 C.3     
  24 F24            6.3853    -1.3461    -1.6321 F       
  25 C25            3.2154    -3.0711    -2.0412 C.ar    
  26 F26            1.2016    -2.0465    -0.0195 F       
  27 F27            1.1563     3.4391     0.0086 F       
  28 H28           -0.9595     1.9055     0.0169 H       
  29 H29           -0.9292    -0.5510     0.0080 H       
  30 H30            5.0796    -1.9791     0.4604 H       
  31 H31            3.3647    -2.4557     0.4737 H       
  32 H32            6.3892    -2.2664    -4.0738 H       
  33 H33            2.5150    -4.0722    -3.7935 H       
  34 H34            6.5807    -2.9385    -6.1048 H       
  35 H35            2.6978    -4.7482    -5.8007 H       
  36 H36            3.7312    -6.4288    -8.4220 H       
  37 H37            2.3891    -5.2603    -8.3807 H       
  38 H38            3.7823    -4.9780    -9.4519 H       
  39 H39            2.3272    -3.2929    -1.4682 H       
@<TRIPOS>BOND
   1    1    2 ar
   2    1    6 ar
   3    1   28 1
   4    2    3 ar
   5    2   29 1
   6    3    4 ar
   7    3   26 1
   8    4    5 ar
   9    4    7 1
  10    5    6 ar
  11    5    9 1
  12    6   27 1
  13    7    8 am
  14    7   12 1
  15    8    9 1
  16    8   11 2
  17    9   10 2
  18   12   13 1
  19   12   30 1
  20   12   31 1
  21   13   14 ar
  22   13   25 ar
  23   14   15 ar
  24   14   24 1
  25   15   16 ar
  26   15   32 1
  27   16   17 ar
  28   16   18 1
  29   17   25 ar
  30   17   33 1
  31   18   19 1
  32   18   22 2
  33   19   20 2
  34   19   34 1
  35   20   21 1
  36   21   22 1
  37   21   23 1
  38   22   35 1
  39   23   36 1
  40   23   37 1
  41   23   38 1
  42   25   39 1

#	End of record

