#	Name: ASD03730904
#	Creating user name:	WinNT
#	Creation time:	15. 06. 2019 20:44

#	Modifying user name:	WinNT
#	Modification time:	15. 06. 2019 20:44

#	Program:	/corina/corina34_cracker 3.40 0067  02.08.2006

@<TRIPOS>MOLECULE
ASD03730904
  63   69    0    0    0
SMALL
NO_CHARGES


@<TRIPOS>ATOM
   1 C1            -0.0183     1.4732     0.0188 C.2     
   2 C2             0.0010    -0.0045    -0.0105 C.ar    
   3 C3             1.2173    -0.6898    -0.0169 C.ar    
   4 C4             1.2283    -2.0688    -0.0444 C.ar    
   5 C5             0.0373    -2.7730    -0.0660 C.ar    
   6 C6            -1.1715    -2.1001    -0.0603 C.ar    
   7 C7            -1.1966    -0.7210    -0.0262 C.ar    
   8 O8             1.0264     2.0946     0.0375 O.2     
   9 N9            -1.1942     2.1319     0.0193 N.am    
  10 C10            2.5403    -2.8102    -0.0513 C.3     
  11 O11           -0.9964    -3.4151     6.1791 O.3     
  12 C12           -1.0595    -3.6906     7.5908 C.3     
  13 O13           -0.1578    -4.7997     7.7638 O.3     
  14 C14            0.7559    -4.6890     6.7550 C.ar    
  15 C15            0.2392    -3.8382     5.7804 C.ar    
  16 C16            2.0075    -5.2537     6.5872 C.ar    
  17 C17            2.7576    -4.9796     5.4475 C.ar    
  18 C18            2.2274    -4.1349     4.4770 C.ar    
  19 C19            0.9824    -3.5654     4.6442 C.ar    
  20 O20            4.0030    -5.4126     5.0985 O.3     
  21 C21            3.2464    -4.0586     3.3717 C.3     
  22 C22            4.1907    -5.2280     3.6821 C.3     
  23 N23            2.9571    -3.0780     1.3274 N.am    
  24 C24            2.6214    -4.1892     2.0126 C.2     
  25 C25            3.9702    -2.7450     3.3521 C.ar    
  26 C26            4.7282    -2.0625     4.2772 C.ar    
  27 C27            5.2800    -0.8362     3.9518 C.ar    
  28 C28            5.0678    -0.2974     2.6958 C.ar    
  29 C29            4.3084    -0.9767     1.7661 C.ar    
  30 C30            3.7495    -2.2119     2.0848 C.ar    
  31 O31            1.9471    -5.1136     1.6102 O.2     
  32 C32           -1.2149     3.5276     0.1327 C.ar    
  33 C33           -2.3342     4.1692     0.6596 C.ar    
  34 C34           -2.3491     5.5498     0.7692 C.ar    
  35 C35           -1.2551     6.2884     0.3565 C.ar    
  36 C36           -0.1447     5.6527    -0.1666 C.ar    
  37 C37           -0.1193     4.2747    -0.2738 C.ar    
  38 O38           -3.4092     3.4418     1.0645 O.3     
  39 C39           -4.5208     4.1668     1.5944 C.3     
  40 H40            2.1476    -0.1413    -0.0007 H       
  41 H41            0.0514    -3.8527    -0.0879 H       
  42 H42           -2.0975    -2.6557    -0.0777 H       
  43 H43           -2.1409    -0.1970    -0.0166 H       
  44 H44           -2.0261     1.6392    -0.0589 H       
  45 H45            2.4219    -3.7533    -0.5848 H       
  46 H46            3.2976    -2.2041    -0.5485 H       
  47 H47           -0.7205    -2.8283     8.1649 H       
  48 H48           -2.0719    -3.9713     7.8813 H       
  49 H49            2.4052    -5.9116     7.3457 H       
  50 H50            0.5859    -2.9053     3.8870 H       
  51 H51            5.2238    -4.9607     3.4601 H       
  52 H52            3.8941    -6.1214     3.1326 H       
  53 H53            4.8924    -2.4850     5.2574 H       
  54 H54            5.8753    -0.3010     4.6768 H       
  55 H55            5.4984     0.6599     2.4419 H       
  56 H56            4.1467    -0.5493     0.7875 H       
  57 H57           -3.2153     6.0498     1.1768 H       
  58 H58           -1.2686     7.3649     0.4428 H       
  59 H59            0.7071     6.2337    -0.4879 H       
  60 H60            0.7515     3.7803    -0.6784 H       
  61 H61           -4.2021     4.7311     2.4708 H       
  62 H62           -4.9003     4.8539     0.8381 H       
  63 H63           -5.3080     3.4684     1.8785 H       
@<TRIPOS>BOND
   1    1    2 1
   2    1    8 2
   3    1    9 am
   4    2    3 ar
   5    2    7 ar
   6    3    4 ar
   7    3   40 1
   8    4    5 ar
   9    4   10 1
  10    5    6 ar
  11    5   41 1
  12    6    7 ar
  13    6   42 1
  14    7   43 1
  15    9   32 1
  16    9   44 1
  17   10   23 1
  18   10   45 1
  19   10   46 1
  20   11   12 1
  21   11   15 1
  22   12   13 1
  23   12   47 1
  24   12   48 1
  25   13   14 1
  26   14   15 ar
  27   14   16 ar
  28   15   19 ar
  29   16   17 ar
  30   16   49 1
  31   17   18 ar
  32   17   20 1
  33   18   19 ar
  34   18   21 1
  35   19   50 1
  36   20   22 1
  37   21   22 1
  38   21   24 1
  39   21   25 1
  40   22   51 1
  41   22   52 1
  42   23   24 am
  43   23   30 1
  44   24   31 2
  45   25   26 ar
  46   25   30 ar
  47   26   27 ar
  48   26   53 1
  49   27   28 ar
  50   27   54 1
  51   28   29 ar
  52   28   55 1
  53   29   30 ar
  54   29   56 1
  55   32   33 ar
  56   32   37 ar
  57   33   34 ar
  58   33   38 1
  59   34   35 ar
  60   34   57 1
  61   35   36 ar
  62   35   58 1
  63   36   37 ar
  64   36   59 1
  65   37   60 1
  66   38   39 1
  67   39   61 1
  68   39   62 1
  69   39   63 1

#	End of record

