#	Name: ASD01916357
#	Creating user name:	WinNT
#	Creation time:	15. 06. 2019 20:07

#	Modifying user name:	WinNT
#	Modification time:	15. 06. 2019 20:07

#	Program:	/corina/corina34_cracker 3.40 0067  02.08.2006

@<TRIPOS>MOLECULE
ASD01916357
  34   36    0    0    0
SMALL
NO_CHARGES


@<TRIPOS>ATOM
   1 C1            -0.0763     1.7506     0.2666 C.3     
   2 C2            -0.2175     0.2317     0.4317 C.3     
   3 C3             0.5086    -0.2126     1.6992 C.3     
   4 C4             1.9383     0.2496     1.6956 C.ar    
   5 C5             2.3565     1.3340     0.9162 C.ar    
   6 C6             1.3957     2.0510     0.0664 C.2     
   7 N7             2.8336    -0.3729     2.4426 N.ar    
   8 C8             4.1004     0.0214     2.4559 C.ar    
   9 N9             4.5316     1.0468     1.7316 N.ar    
  10 C10            3.7022     1.7223     0.9574 C.ar    
  11 N11            5.0006    -0.6576     3.2504 N.pl3   
  12 O12            1.7668     2.8530    -0.7645 O.2     
  13 C13           -1.6993    -0.1341     0.5379 C.3     
  14 C14            6.3110    -0.1868     3.3822 C.ar    
  15 C15            7.3339    -1.0615     3.7288 C.ar    
  16 C16            8.6276    -0.5925     3.8576 C.ar    
  17 C17            8.9042     0.7450     3.6420 C.ar    
  18 C18            7.8882     1.6176     3.2969 C.ar    
  19 C19            6.5940     1.1548     3.1613 C.ar    
  20 Cl20           6.9869    -2.7407     4.0003 Cl      
  21 H21           -0.6437     2.0829    -0.6027 H       
  22 H22           -0.4389     2.2557     1.1619 H       
  23 H23            0.2194    -0.2697    -0.4319 H       
  24 H24           -0.0001     0.2058     2.5678 H       
  25 H25            0.4848    -1.3005     1.7620 H       
  26 H26            4.0536     2.5568     0.3687 H       
  27 H27            4.7248    -1.4616     3.7177 H       
  28 H28           -2.2176     0.1828    -0.3671 H       
  29 H29           -1.7996    -1.2131     0.6552 H       
  30 H30           -2.1363     0.3674     1.4014 H       
  31 H31            9.4232    -1.2713     4.1273 H       
  32 H32            9.9158     1.1091     3.7436 H       
  33 H33            8.1079     2.6617     3.1295 H       
  34 H34            5.8015     1.8371     2.8914 H       
@<TRIPOS>BOND
   1    1    2 1
   2    1    6 1
   3    1   21 1
   4    1   22 1
   5    2    3 1
   6    2   13 1
   7    2   23 1
   8    3    4 1
   9    3   24 1
  10    3   25 1
  11    4    5 ar
  12    4    7 ar
  13    5    6 1
  14    5   10 ar
  15    6   12 2
  16    7    8 ar
  17    8    9 ar
  18    8   11 1
  19    9   10 ar
  20   10   26 1
  21   11   14 1
  22   11   27 1
  23   13   28 1
  24   13   29 1
  25   13   30 1
  26   14   15 ar
  27   14   19 ar
  28   15   16 ar
  29   15   20 1
  30   16   17 ar
  31   16   31 1
  32   17   18 ar
  33   17   32 1
  34   18   19 ar
  35   18   33 1
  36   19   34 1

#	End of record

