#	Name: ASD01941033
#	Creating user name:	WinNT
#	Creation time:	15. 06. 2019 20:13

#	Modifying user name:	WinNT
#	Modification time:	15. 06. 2019 20:13

#	Program:	/corina/corina34_cracker 3.40 0067  02.08.2006

@<TRIPOS>MOLECULE
ASD01941033
  60   64    0    0    0
SMALL
NO_CHARGES


@<TRIPOS>ATOM
   1 N1             0.6809     0.8566     0.1789 N.am    
   2 C2             0.5199    -0.4751     0.2107 C.2     
   3 N3            -0.6638    -1.0738    -0.0110 N.am    
   4 C4            -1.7886    -0.3206    -0.2866 C.2     
   5 C5            -1.6699     1.0943    -0.3311 C.2     
   6 C6            -0.3544     1.6863    -0.0759 C.2     
   7 C7            -3.0201    -0.8961    -0.5201 C.2     
   8 C8            -4.1176    -0.0732    -0.7938 C.2     
   9 N9            -3.9908     1.2647    -0.8332 N.am    
  10 C10           -2.7914     1.8700    -0.6072 C.2     
  11 C11           -0.7567    -2.4706     0.0376 C.ar    
  12 C12           -0.3217    -3.2331    -1.0364 C.ar    
  13 C13           -0.4154    -4.6166    -0.9846 C.ar    
  14 C14           -0.9443    -5.2336     0.1419 C.ar    
  15 C15           -1.3768    -4.4712     1.2101 C.ar    
  16 C16           -1.2795    -3.0940     1.1637 C.ar    
  17 O17           -5.2093    -0.5785    -1.0010 O.2     
  18 N18           -2.6901     3.2330    -0.6523 N.pl3   
  19 C19           -2.3072     3.8674    -1.8398 C.ar    
  20 C20           -2.1331     3.1255    -2.9998 C.ar    
  21 C21           -1.7555     3.7543    -4.1708 C.ar    
  22 C22           -1.5503     5.1219    -4.1889 C.ar    
  23 C23           -1.7226     5.8658    -3.0350 C.ar    
  24 C24           -2.1058     5.2437    -1.8613 C.ar    
  25 O25            1.4870    -1.1715     0.4502 O.2     
  26 C26            2.0077     1.4239     0.4320 C.3     
  27 O27           -0.1966     2.8926    -0.1015 O.2     
  28 C28            3.1219     1.0848    -0.5601 C.3     
  29 C29            2.5172     2.4901    -0.5398 C.3     
  30 C30           -5.1665     2.0886    -1.1246 C.3     
  31 I31           -0.9766     6.0692    -5.9673 I       
  32 C32           -3.1814    -2.3939    -0.4811 C.3     
  33 F33           -2.2746     5.9699    -0.7346 F       
  34 N34            0.0219    -5.3893    -2.0661 N.am    
  35 C35            0.6014    -6.5865    -1.8483 C.2     
  36 C36            1.1701    -7.3696    -3.0034 C.3     
  37 O37            0.6651    -7.0336    -0.7227 O.2     
  38 H38            0.0889    -2.7509    -1.9113 H       
  39 H39           -1.0179    -6.3103     0.1828 H       
  40 H40           -1.7877    -4.9532     2.0848 H       
  41 H41           -1.6180    -2.5008     2.0004 H       
  42 H42           -2.8836     3.7602     0.1386 H       
  43 H43           -2.2922     2.0574    -2.9871 H       
  44 H44           -1.6200     3.1769    -5.0734 H       
  45 H45           -1.5616     6.9336    -3.0523 H       
  46 H46            2.2826     1.5267     1.4817 H       
  47 H47            4.1300     0.9649    -0.1632 H       
  48 H48            2.8678     0.4397    -1.4012 H       
  49 H49            1.8653     2.7695    -1.3675 H       
  50 H50            3.1274     3.2947    -0.1295 H       
  51 H51           -6.0493     1.4524    -1.1884 H       
  52 H52           -5.3032     2.8210    -0.3290 H       
  53 H53           -5.0219     2.6055    -2.0733 H       
  54 H54           -3.3223    -2.7175     0.5501 H       
  55 H55           -4.0496    -2.6815    -1.0740 H       
  56 H56           -2.2888    -2.8662    -0.8914 H       
  57 H57           -0.0920    -5.0633    -2.9725 H       
  58 H58            2.2149    -7.0949    -3.1493 H       
  59 H59            1.1014    -8.4359    -2.7884 H       
  60 H60            0.6055    -7.1442    -3.9082 H       
@<TRIPOS>BOND
   1    1    2 am
   2    1   26 1
   3    1    6 am
   4    2    3 am
   5    2   25 2
   6    3    4 1
   7    3   11 1
   8    4    5 1
   9    4    7 2
  10    5    6 1
  11    5   10 2
  12    6   27 2
  13    7    8 1
  14    7   32 1
  15    8    9 am
  16    8   17 2
  17    9   10 1
  18    9   30 1
  19   10   18 1
  20   11   12 ar
  21   11   16 ar
  22   12   13 ar
  23   12   38 1
  24   13   14 ar
  25   13   34 1
  26   14   15 ar
  27   14   39 1
  28   15   16 ar
  29   15   40 1
  30   16   41 1
  31   18   19 1
  32   18   42 1
  33   19   20 ar
  34   19   24 ar
  35   20   21 ar
  36   20   43 1
  37   21   22 ar
  38   21   44 1
  39   22   23 ar
  40   22   31 1
  41   23   24 ar
  42   23   45 1
  43   24   33 1
  44   26   28 1
  45   26   29 1
  46   26   46 1
  47   28   29 1
  48   28   47 1
  49   28   48 1
  50   29   49 1
  51   29   50 1
  52   30   51 1
  53   30   52 1
  54   30   53 1
  55   32   54 1
  56   32   55 1
  57   32   56 1
  58   34   35 am
  59   34   57 1
  60   35   36 1
  61   35   37 2
  62   36   58 1
  63   36   59 1
  64   36   60 1

#	End of record

