#	Name: ASD01410642
#	Creating user name:	WinNT
#	Creation time:	15. 06. 2019 19:18

#	Modifying user name:	WinNT
#	Modification time:	15. 06. 2019 19:18

#	Program:	/corina/corina34_cracker 3.40 0067  02.08.2006

@<TRIPOS>MOLECULE
ASD01410642
  80   84    0    0    0
SMALL
NO_CHARGES


@<TRIPOS>ATOM
   1 C1             1.1000     2.2501    -3.3924 C.ar    
   2 C2             1.7108     1.5178    -4.4008 C.ar    
   3 C3             2.8868     0.8461    -4.1306 C.ar    
   4 N4             3.4320     0.8933    -2.9302 N.ar    
   5 C5             2.8799     1.5804    -1.9435 C.ar    
   6 C6             1.6968     2.2800    -2.1439 C.ar    
   7 O7             3.4746     1.6013    -0.7244 O.3     
   8 C8             4.5735     0.8223    -0.5365 C.ar    
   9 C9             5.8187     1.2597    -0.9809 C.ar    
  10 C10            6.9416     0.4748    -0.7945 C.ar    
  11 C11            6.8338    -0.7554    -0.1630 C.ar    
  12 C12            5.5809    -1.2011     0.2869 C.ar    
  13 C13            4.4520    -0.3979     0.0995 C.ar    
  14 F14            5.9300     2.4566    -1.5976 F       
  15 N15            7.9659    -1.5469     0.0240 N.am    
  16 C16            8.6089    -1.5343     1.2085 C.2     
  17 C17            8.4568    -2.3925    -1.0670 C.3     
  18 O18            8.1550    -0.9013     2.1381 O.2     
  19 C19            9.8917    -2.3068     1.3777 C.3     
  20 C20           10.2919    -2.3136     2.8544 C.3     
  21 C21           11.5943    -3.0978     3.0263 C.3     
  22 C22           12.7003    -2.4368     2.2012 C.3     
  23 C23           12.3001    -2.4300     0.7245 C.3     
  24 C24           10.9977    -1.6458     0.5527 C.3     
  25 C25           14.0027    -3.2211     2.3731 C.3     
  26 C26            8.7188    -1.5294    -2.3028 C.3     
  27 C27            7.4079    -3.4553    -1.4001 C.3     
  28 C28            7.9206    -4.3384    -2.5395 C.3     
  29 C29            1.0972     1.4560    -5.7758 C.3     
  30 N30            1.6212     2.5523    -6.5942 N.pl3   
  31 N31            2.6746     2.4774    -7.3279 N.2     
  32 C32            2.8572     3.6344    -7.9230 C.2     
  33 C33            1.8116     4.4548    -7.4933 C.2     
  34 N34            1.0872     3.7190    -6.6810 N.2     
  35 C35            9.2315    -2.4125    -3.4422 C.3     
  36 C36            8.1825    -3.4753    -3.7754 C.3     
  37 O37            8.6614    -4.3001    -4.8396 O.3     
  38 C38            7.6290    -4.8338    -5.6710 C.3     
  39 C39            1.0717     3.0616    -1.0172 C.3     
  40 F40           -0.1033     3.6721    -1.4689 F       
  41 F41            0.7709     2.1962     0.0400 F       
  42 F42            1.9671     4.0422    -0.5769 F       
  43 C43            5.4573    -2.5058     0.9585 C.2     
  44 O44            6.4496    -3.1718     1.1797 O.2     
  45 O45            4.2439    -2.9614     1.3277 O.3     
  46 H46            0.1822     2.7880    -3.5789 H       
  47 H47            3.3659     0.2745    -4.9117 H       
  48 H48            7.9043     0.8200    -1.1416 H       
  49 H49            3.4852    -0.7348     0.4432 H       
  50 H50            9.3828    -2.8793    -0.7609 H       
  51 H51            9.7466    -3.3316     1.0359 H       
  52 H52           10.4370    -1.2888     3.1963 H       
  53 H53            9.5040    -2.7845     3.4422 H       
  54 H54           11.8794    -3.1027     4.0783 H       
  55 H55           11.4492    -4.1226     2.6845 H       
  56 H56           12.8455    -1.4120     2.5430 H       
  57 H57           13.0881    -1.9591     0.1367 H       
  58 H58           12.1550    -3.4548     0.3827 H       
  59 H59           10.7126    -1.6409    -0.4994 H       
  60 H60           11.1428    -0.6210     0.8945 H       
  61 H61           13.8576    -4.2459     2.0312 H       
  62 H62           14.7907    -2.7502     1.7853 H       
  63 H63           14.2878    -3.2259     3.4251 H       
  64 H64            7.7929    -1.0426    -2.6089 H       
  65 H65            9.4661    -0.7723    -2.0655 H       
  66 H66            7.2212    -4.0702    -0.5197 H       
  67 H67            6.4819    -2.9685    -1.7062 H       
  68 H68            8.8465    -4.8252    -2.2334 H       
  69 H69            7.1733    -5.0955    -2.7769 H       
  70 H70            1.3465     0.5030    -6.2424 H       
  71 H71            0.0141     1.5486    -5.6948 H       
  72 H72            3.6527     3.8973    -8.6044 H       
  73 H73            1.6329     5.4821    -7.7746 H       
  74 H74            9.4182    -1.7976    -4.3227 H       
  75 H75           10.1575    -2.8993    -3.1361 H       
  76 H76            7.2566    -2.9885    -4.0815 H       
  77 H77            7.0689    -4.0162    -6.1248 H       
  78 H78            8.0740    -5.4479    -6.4539 H       
  79 H79            6.9565    -5.4444    -5.0685 H       
  80 H80            4.2130    -3.8231     1.7654 H       
@<TRIPOS>BOND
   1    1    2 ar
   2    1    6 ar
   3    1   46 1
   4    2    3 ar
   5    2   29 1
   6    3    4 ar
   7    3   47 1
   8    4    5 ar
   9    5    6 ar
  10    5    7 1
  11    6   39 1
  12    7    8 1
  13    8    9 ar
  14    8   13 ar
  15    9   10 ar
  16    9   14 1
  17   10   11 ar
  18   10   48 1
  19   11   12 ar
  20   11   15 1
  21   12   13 ar
  22   12   43 1
  23   13   49 1
  24   15   16 am
  25   15   17 1
  26   16   18 2
  27   16   19 1
  28   17   26 1
  29   17   27 1
  30   17   50 1
  31   19   20 1
  32   19   24 1
  33   19   51 1
  34   20   21 1
  35   20   52 1
  36   20   53 1
  37   21   22 1
  38   21   54 1
  39   21   55 1
  40   22   23 1
  41   22   25 1
  42   22   56 1
  43   23   24 1
  44   23   57 1
  45   23   58 1
  46   24   59 1
  47   24   60 1
  48   25   61 1
  49   25   62 1
  50   25   63 1
  51   26   35 1
  52   26   64 1
  53   26   65 1
  54   27   28 1
  55   27   66 1
  56   27   67 1
  57   28   36 1
  58   28   68 1
  59   28   69 1
  60   29   30 1
  61   29   70 1
  62   29   71 1
  63   30   31 1
  64   30   34 1
  65   31   32 2
  66   32   33 1
  67   32   72 1
  68   33   34 2
  69   33   73 1
  70   35   36 1
  71   35   74 1
  72   35   75 1
  73   36   37 1
  74   36   76 1
  75   37   38 1
  76   38   77 1
  77   38   78 1
  78   38   79 1
  79   39   40 1
  80   39   41 1
  81   39   42 1
  82   43   44 2
  83   43   45 1
  84   45   80 1

#	End of record

