#	Name: ASD01410204
#	Creating user name:	WinNT
#	Creation time:	15. 06. 2019 19:16

#	Modifying user name:	WinNT
#	Modification time:	15. 06. 2019 19:16

#	Program:	/corina/corina34_cracker 3.40 0067  02.08.2006

@<TRIPOS>MOLECULE
ASD01410204
  43   45    0    0    0
SMALL
NO_CHARGES


@<TRIPOS>ATOM
   1 C1            -0.0166     1.3754     0.0096 C.2     
   2 C2             0.0021    -0.0041     0.0020 C.2     
   3 C3            -1.3181    -0.4455     0.0131 C.2     
   4 C4            -2.1310     0.6763     0.0274 C.2     
   5 N5            -1.3187     1.7886     0.0302 N.pl3   
   6 C6             1.2309    -0.8763    -0.0159 C.3     
   7 C7             1.2428    -1.7663     1.2285 C.3     
   8 C8             2.4904    -2.6518     1.2103 C.3     
   9 C9             2.4753    -3.5285    -0.0436 C.3     
  10 C10            2.4634    -2.6384    -1.2880 C.3     
  11 C11            1.2158    -1.7529    -1.2698 C.3     
  12 C12           -3.5450     0.6789     0.0411 C.2     
  13 C13           -4.2222     1.8568     0.0544 C.2     
  14 C14           -5.6340     1.8593     0.0682 C.2     
  15 O15           -6.3068     3.0298     0.0814 O.3     
  16 O16           -6.2445     0.8063     0.0681 O.2     
  17 C17            1.1694     2.2558     0.0030 C.ar    
  18 C18            1.2156     3.3641    -0.8454 C.ar    
  19 C19            2.3263     4.1820    -0.8464 C.ar    
  20 C20            3.3932     3.9064    -0.0094 C.ar    
  21 C21            3.3543     2.8097     0.8335 C.ar    
  22 C22            2.2473     1.9870     0.8493 C.ar    
  23 H23           -1.6481    -1.4739     0.0106 H       
  24 H24           -1.6204     2.7105     0.0397 H       
  25 H25            2.1220    -0.2485    -0.0222 H       
  26 H26            1.2535    -1.1418     2.1218 H       
  27 H27            0.3517    -2.3940     1.2348 H       
  28 H28            3.3814    -2.0241     1.2040 H       
  29 H29            2.4988    -3.2859     2.0968 H       
  30 H30            3.3641    -4.1593    -0.0566 H       
  31 H31            1.5842    -4.1562    -0.0373 H       
  32 H32            3.3544    -2.0107    -1.2943 H       
  33 H33            2.4526    -3.2630    -2.1813 H       
  34 H34            0.3247    -2.3807    -1.2635 H       
  35 H35            1.2073    -1.1189    -2.1564 H       
  36 H36           -4.0867    -0.2555     0.0411 H       
  37 H37           -3.6805     2.7911     0.0545 H       
  38 H38           -7.2687     2.9305     0.0901 H       
  39 H39            0.3838     3.5801    -1.4994 H       
  40 H40            2.3635     5.0392    -1.5023 H       
  41 H41            4.2604     4.5501    -0.0143 H       
  42 H42            4.1907     2.6000     1.4837 H       
  43 H43            2.2182     1.1313     1.5076 H       
@<TRIPOS>BOND
   1    1    2 2
   2    1   17 1
   3    1    5 1
   4    2    3 1
   5    2    6 1
   6    3    4 2
   7    3   23 1
   8    4    5 1
   9    4   12 1
  10    5   24 1
  11    6    7 1
  12    6   11 1
  13    6   25 1
  14    7    8 1
  15    7   26 1
  16    7   27 1
  17    8    9 1
  18    8   28 1
  19    8   29 1
  20    9   10 1
  21    9   30 1
  22    9   31 1
  23   10   11 1
  24   10   32 1
  25   10   33 1
  26   11   34 1
  27   11   35 1
  28   12   13 2
  29   12   36 1
  30   13   14 1
  31   13   37 1
  32   14   15 1
  33   14   16 2
  34   15   38 1
  35   17   18 ar
  36   17   22 ar
  37   18   19 ar
  38   18   39 1
  39   19   20 ar
  40   19   40 1
  41   20   21 ar
  42   20   41 1
  43   21   22 ar
  44   21   42 1
  45   22   43 1

#	End of record

