#	Name: ASD06390003
#	Creating user name:	WinNT
#	Creation time:	15. 06. 2019 21:06

#	Modifying user name:	WinNT
#	Modification time:	15. 06. 2019 21:06

#	Program:	/corina/corina34_cracker 3.40 0067  02.08.2006

@<TRIPOS>MOLECULE
ASD06390003
  47   48    0    0    0
SMALL
NO_CHARGES


@<TRIPOS>ATOM
   1 S1            -0.0225     1.8097     0.0120 S.3     
   2 C2             0.0021    -0.0041     0.0020 C.3     
   3 C3            -1.4333    -0.5336     0.0129 C.3     
   4 C4            -1.4126    -2.0635     0.0045 C.3     
   5 C5            -2.8264    -2.5851     0.0152 C.2     
   6 O6            -3.7588    -1.8096     0.0282 O.2     
   7 N7            -3.0546    -3.9134     0.0102 N.am    
   8 C8            -4.4290    -4.4205     0.0206 C.3     
   9 C9            -4.4606    -5.8206    -0.5965 C.3     
  10 C10           -5.9040    -6.3334    -0.6155 C.3     
  11 N11           -6.4492    -6.2621     0.7469 N.am    
  12 C12           -6.3866    -4.9828     1.4668 C.3     
  13 C13           -4.9378    -4.4851     1.4625 C.3     
  14 C14           -6.9969    -7.3493     1.3253 C.2     
  15 O15           -7.0430    -8.3995     0.7204 O.2     
  16 C16           -7.5519    -7.2601     2.7235 C.3     
  17 O17           -8.0730    -8.5329     3.1112 O.3     
  18 C18           -8.6151    -8.6252     4.3545 C.ar    
  19 C19           -8.6445    -7.5139     5.1832 C.ar    
  20 C20           -9.1964    -7.6093     6.4466 C.ar    
  21 C21           -9.7194    -8.8124     6.8853 C.ar    
  22 C22           -9.6910    -9.9233     6.0606 C.ar    
  23 C23           -9.1452    -9.8308     4.7942 C.ar    
  24 Cl24          -9.1099   -11.2242     3.7593 Cl      
  25 Cl25         -10.4120    -8.9290     8.4729 Cl      
  26 H26            1.2837     2.1301     0.0012 H       
  27 H27            0.5123    -0.3556    -0.8948 H       
  28 H28            0.5293    -0.3651     0.8851 H       
  29 H29           -1.9435    -0.1821     0.9097 H       
  30 H30           -1.9605    -0.1726    -0.8702 H       
  31 H31           -0.9024    -2.4150    -0.8923 H       
  32 H32           -0.8854    -2.4246     0.8875 H       
  33 H33           -2.3089    -4.5336    -0.0002 H       
  34 H34           -5.0666    -3.7534    -0.5596 H       
  35 H35           -4.0762    -5.7778    -1.6156 H       
  36 H36           -3.8430    -6.4941    -0.0022 H       
  37 H37           -6.5034    -5.7132    -1.2819 H       
  38 H38           -5.9201    -7.3668    -0.9619 H       
  39 H39           -7.0253    -4.2524     0.9702 H       
  40 H40           -6.7210    -5.1250     2.4944 H       
  41 H41           -4.3157    -5.1711     2.0374 H       
  42 H42           -4.8930    -3.4917     1.9090 H       
  43 H43           -6.7586    -6.9674     3.4113 H       
  44 H44           -8.3492    -6.5173     2.7512 H       
  45 H45           -8.2361    -6.5743     4.8416 H       
  46 H46           -9.2190    -6.7437     7.0922 H       
  47 H47          -10.0992   -10.8620     6.4051 H       
@<TRIPOS>BOND
   1    1    2 1
   2    1   26 1
   3    2    3 1
   4    2   27 1
   5    2   28 1
   6    3    4 1
   7    3   29 1
   8    3   30 1
   9    4    5 1
  10    4   31 1
  11    4   32 1
  12    5    6 2
  13    5    7 am
  14    7    8 1
  15    7   33 1
  16    8    9 1
  17    8   13 1
  18    8   34 1
  19    9   10 1
  20    9   35 1
  21    9   36 1
  22   10   11 1
  23   10   37 1
  24   10   38 1
  25   11   12 1
  26   11   14 am
  27   12   13 1
  28   12   39 1
  29   12   40 1
  30   13   41 1
  31   13   42 1
  32   14   15 2
  33   14   16 1
  34   16   17 1
  35   16   43 1
  36   16   44 1
  37   17   18 1
  38   18   19 ar
  39   18   23 ar
  40   19   20 ar
  41   19   45 1
  42   20   21 ar
  43   20   46 1
  44   21   22 ar
  45   21   25 1
  46   22   23 ar
  47   22   47 1
  48   23   24 1

#	End of record

