#	Name: ASD03091427
#	Creating user name:	WinNT
#	Creation time:	15. 06. 2019 20:30

#	Modifying user name:	WinNT
#	Modification time:	15. 06. 2019 20:30

#	Program:	/corina/corina34_cracker 3.40 0067  02.08.2006

@<TRIPOS>MOLECULE
ASD03091427
  41   44    0    0    0
SMALL
NO_CHARGES


@<TRIPOS>ATOM
   1 C1             0.0349     1.6935    -0.0455 C.3     
   2 C2            -0.0005     0.1653    -0.1116 C.3     
   3 N3             0.6558    -0.3929     1.0776 N.3     
   4 C4            -0.0458     0.0032     2.3053 C.3     
   5 C5            -0.0124     1.5264     2.4454 C.3     
   6 C6             1.4441     1.9967     2.5209 C.3     
   7 N7             2.1058     1.6904     1.2453 N.am    
   8 C8             1.4922     2.1655    -0.0022 C.3     
   9 C9            -0.6825     2.1626     1.2239 C.3     
  10 C10            3.2546     0.9861     1.2201 C.2     
  11 O11            3.8147     0.6980     2.2614 O.2     
  12 O12            3.2447     0.6965    -1.2708 O.3     
  13 C13            3.8298     0.5669    -0.0624 C.2     
  14 C14            5.0511    -0.0220    -0.2381 C.2     
  15 C15            5.1984    -0.2523    -1.6103 C.2     
  16 C16            4.0634     0.2042    -2.2162 C.2     
  17 C17            3.7826     0.1640    -3.6659 C.ar    
  18 C18            2.5754     0.6688    -4.1519 C.ar    
  19 C19            2.3276     0.6242    -5.5125 C.ar    
  20 C20            3.2940     0.0764    -6.3446 C.ar    
  21 C21            4.4688    -0.4059    -5.7958 C.ar    
  22 N22            4.6833    -0.3475    -4.4979 N.ar    
  23 H23           -0.4576     2.1086    -0.9249 H       
  24 H24           -1.0361    -0.1728    -0.1472 H       
  25 H25            0.5223    -0.1717    -1.0067 H       
  26 H26            0.7305    -1.3969     1.0117 H       
  27 H27           -1.0811    -0.3344     2.2569 H       
  28 H28            0.4442    -0.4515     3.1663 H       
  29 H29           -0.5390     1.8214     3.3531 H       
  30 H30            1.4724     3.0718     2.6984 H       
  31 H31            1.9546     1.4767     3.3316 H       
  32 H32            2.0342     1.7566    -0.8549 H       
  33 H33            1.5247     3.2545    -0.0339 H       
  34 H34           -0.6191     3.2482     1.2979 H       
  35 H35           -1.7289     1.8600     1.1837 H       
  36 H36            5.7659    -0.2630     0.5347 H       
  37 H37            6.0490    -0.7051    -2.0979 H       
  38 H38            1.8451     1.0880    -3.4756 H       
  39 H39            1.4026     1.0068    -5.9179 H       
  40 H40            3.1302     0.0269    -7.4110 H       
  41 H41            5.2221    -0.8329    -6.4413 H       
@<TRIPOS>BOND
   1    1    2 1
   2    1    8 1
   3    1    9 1
   4    1   23 1
   5    2    3 1
   6    2   24 1
   7    2   25 1
   8    3    4 1
   9    3   26 1
  10    4    5 1
  11    4   27 1
  12    4   28 1
  13    5    6 1
  14    5    9 1
  15    5   29 1
  16    6    7 1
  17    6   30 1
  18    6   31 1
  19    7    8 1
  20    7   10 am
  21    8   32 1
  22    8   33 1
  23    9   34 1
  24    9   35 1
  25   10   11 2
  26   10   13 1
  27   12   13 1
  28   12   16 1
  29   13   14 2
  30   14   15 1
  31   14   36 1
  32   15   16 2
  33   15   37 1
  34   16   17 1
  35   17   18 ar
  36   17   22 ar
  37   18   19 ar
  38   18   38 1
  39   19   20 ar
  40   19   39 1
  41   20   21 ar
  42   20   40 1
  43   21   22 ar
  44   21   41 1

#	End of record

