#	Name: ASD01530012
#	Creating user name:	WinNT
#	Creation time:	15. 06. 2019 19:22

#	Modifying user name:	WinNT
#	Modification time:	15. 06. 2019 19:22

#	Program:	/corina/corina34_cracker 3.40 0067  02.08.2006

@<TRIPOS>MOLECULE
ASD01530012
  26   27    0    0    0
SMALL
NO_CHARGES


@<TRIPOS>ATOM
   1 C1            -0.0161     1.3880     0.0568 C.ar    
   2 C2             0.0028    -0.0043     0.0486 C.ar    
   3 C3             1.1793    -0.6897     0.0184 C.ar    
   4 C4             2.3940     0.0162    -0.0049 C.ar    
   5 C5             2.3712     1.4325     0.0034 C.ar    
   6 C6             1.1439     2.1044     0.0347 C.ar    
   7 C7             3.6286    -0.6547    -0.0358 C.ar    
   8 C8             4.7971     0.0426    -0.0573 C.ar    
   9 C9             4.8222     1.4309    -0.0502 C.ar    
  10 C10            3.6395     2.1588    -0.0210 C.ar    
  11 C11            3.6629     3.6317    -0.0139 C.2     
  12 O12            2.6235     4.2563    -0.0936 O.2     
  13 O13            4.8370     4.2866     0.0811 O.3     
  14 C14            4.7843     5.7377     0.0821 C.3     
  15 C15            6.1491     6.2782     0.1917 C.1     
  16 C16            7.2376     6.7092     0.2791 C.1     
  17 H17           -0.9626     1.9077     0.0764 H       
  18 H18           -0.9296    -0.5489     0.0669 H       
  19 H19            1.1785    -1.7697     0.0127 H       
  20 H20            1.1157     3.1840     0.0410 H       
  21 H21            3.6502    -1.7344    -0.0423 H       
  22 H22            5.7312    -0.4991    -0.0802 H       
  23 H23            5.7695     1.9492    -0.0676 H       
  24 H24            4.3292     6.0854    -0.8453 H       
  25 H25            4.1893     6.0790     0.9292 H       
  26 H26            8.2111     7.0948     0.3573 H       
@<TRIPOS>BOND
   1    1    2 ar
   2    1    6 ar
   3    1   17 1
   4    2    3 ar
   5    2   18 1
   6    3    4 ar
   7    3   19 1
   8    4    5 ar
   9    4    7 ar
  10    5    6 ar
  11    5   10 ar
  12    6   20 1
  13    7    8 ar
  14    7   21 1
  15    8    9 ar
  16    8   22 1
  17    9   10 ar
  18    9   23 1
  19   10   11 1
  20   11   12 2
  21   11   13 1
  22   13   14 1
  23   14   15 1
  24   14   24 1
  25   14   25 1
  26   15   16 3
  27   16   26 1

#	End of record

