#	Name: ASD00120011
#	Creating user name:	WinNT
#	Creation time:	15. 06. 2019 18:31

#	Modifying user name:	WinNT
#	Modification time:	15. 06. 2019 18:31

#	Program:	/corina/corina34_cracker 3.40 0067  02.08.2006

@<TRIPOS>MOLECULE
ASD00120011
  57   60    0    0    0
SMALL
NO_CHARGES


@<TRIPOS>ATOM
   1 O1             0.3557    -0.0852    -0.6726 O.2     
   2 C2             0.2024     1.0450    -0.2607 C.2     
   3 C3             1.3737     1.9916    -0.2040 C.3     
   4 N4             2.6023     1.2691    -0.5428 N.pl3   
   5 C5             2.8611     0.6284    -1.7031 C.2     
   6 N6             4.0545     0.1049    -1.6347 N.2     
   7 C7             4.5948     0.3898    -0.4406 C.2     
   8 C8             3.7046     1.1224     0.2553 C.2     
   9 S9             6.1920    -0.1027     0.1172 S.o2    
  10 O10            6.0746    -0.1337     1.5330 O.2     
  11 O11            6.4720    -1.2843    -0.6207 O.2     
  12 C12            7.2883     1.2463    -0.4012 C.3     
  13 C13            8.7893     1.0674    -0.1645 C.3     
  14 C14            8.2231     0.9824    -1.5833 C.3     
  15 C15            1.1588     3.1293    -1.2042 C.3     
  16 C16            2.3290     4.1113    -1.1187 C.3     
  17 C17            2.2095     5.1458    -2.2396 C.3     
  18 C18            3.3796     6.1278    -2.1542 C.3     
  19 C19            3.3515     6.8382    -0.7994 C.3     
  20 C20            3.4710     5.8036     0.3215 C.3     
  21 C21            2.3008     4.8216     0.2361 C.3     
  22 N22           -1.0165     1.4563     0.1413 N.am    
  23 C23           -2.1014     0.5915     0.0656 C.ar    
  24 C24           -1.8808    -0.7809    -0.0174 C.ar    
  25 C25           -2.9620    -1.6344    -0.0923 C.ar    
  26 C26           -4.2509    -1.0799    -0.0818 C.ar    
  27 C27           -4.3909     0.3069     0.0036 C.ar    
  28 N28           -3.3318     1.0843     0.0787 N.ar    
  29 C29           -5.4400    -1.9487    -0.1602 C.2     
  30 O30           -5.3077    -3.1542    -0.2347 O.2     
  31 O31           -6.6731    -1.4056    -0.1494 O.3     
  32 H32            1.4598     2.4033     0.8016 H       
  33 H33            2.1912     0.5601    -2.5474 H       
  34 H34            3.8330     1.5132     1.2540 H       
  35 H35            6.8788     2.2511    -0.2976 H       
  36 H36            9.3672     1.9546     0.0944 H       
  37 H37            9.1180     0.1391     0.3027 H       
  38 H38            8.1793    -0.0019    -2.0495 H       
  39 H39            8.4285     1.8136    -2.2578 H       
  40 H40            1.1007     2.7202    -2.2128 H       
  41 H41            0.2302     3.6493    -0.9689 H       
  42 H42            3.2679     3.5678    -1.2246 H       
  43 H43            2.2295     4.6398    -3.2048 H       
  44 H44            1.2706     5.6894    -2.1338 H       
  45 H45            4.3185     5.5843    -2.2600 H       
  46 H46            3.2945     6.8649    -2.9527 H       
  47 H47            4.1851     7.5377    -0.7385 H       
  48 H48            2.4126     7.3817    -0.6935 H       
  49 H49            4.4099     5.2601     0.2157 H       
  50 H50            3.4509     6.3097     1.2867 H       
  51 H51            1.3619     5.3651     0.3419 H       
  52 H52            2.3859     4.0846     1.0346 H       
  53 H53           -1.1363     2.3560     0.4834 H       
  54 H54           -0.8744    -1.1728    -0.0233 H       
  55 H55           -2.8199    -2.7030    -0.1578 H       
  56 H56           -5.3779     0.7453     0.0125 H       
  57 H57           -7.4218    -2.0152    -0.2028 H       
@<TRIPOS>BOND
   1    1    2 2
   2    2    3 1
   3    2   22 am
   4    3    4 1
   5    3   15 1
   6    3   32 1
   7    4    5 1
   8    4    8 1
   9    5    6 2
  10    5   33 1
  11    6    7 1
  12    7    8 2
  13    7    9 1
  14    8   34 1
  15    9   10 2
  16    9   11 2
  17    9   12 1
  18   12   13 1
  19   12   14 1
  20   12   35 1
  21   13   14 1
  22   13   36 1
  23   13   37 1
  24   14   38 1
  25   14   39 1
  26   15   16 1
  27   15   40 1
  28   15   41 1
  29   16   17 1
  30   16   21 1
  31   16   42 1
  32   17   18 1
  33   17   43 1
  34   17   44 1
  35   18   19 1
  36   18   45 1
  37   18   46 1
  38   19   20 1
  39   19   47 1
  40   19   48 1
  41   20   21 1
  42   20   49 1
  43   20   50 1
  44   21   51 1
  45   21   52 1
  46   22   23 1
  47   22   53 1
  48   23   24 ar
  49   23   28 ar
  50   24   25 ar
  51   24   54 1
  52   25   26 ar
  53   25   55 1
  54   26   27 ar
  55   26   29 1
  56   27   28 ar
  57   27   56 1
  58   29   30 2
  59   29   31 1
  60   31   57 1

#	End of record

