#	Name: ASD05430309
#	Creating user name:	WinNT
#	Creation time:	15. 06. 2019 21:00

#	Modifying user name:	WinNT
#	Modification time:	15. 06. 2019 21:00

#	Program:	/corina/corina34_cracker 3.40 0067  02.08.2006

@<TRIPOS>MOLECULE
ASD05430309
  69   74    0    0    0
SMALL
NO_CHARGES


@<TRIPOS>ATOM
   1 C1             0.0528     1.1905     0.3806 C.ar    
   2 C2             0.0204    -0.0139    -0.3219 C.ar    
   3 C3             1.1739    -0.5030    -0.9221 C.ar    
   4 C4             2.3551     0.1996    -0.8266 C.ar    
   5 C5             2.3951     1.4082    -0.1237 C.ar    
   6 C6             1.2344     1.9006     0.4804 C.ar    
   7 C7             4.8622    -0.0031     0.2185 C.3     
   8 C8             4.8270     1.5013     0.0680 C.2     
   9 C9             3.6567     2.1599    -0.0198 C.2     
  10 C10            6.2019    -0.4250     0.8288 C.3     
  11 C11            6.8980     0.6201     1.7083 C.3     
  12 N12            7.0958     1.8385     0.9230 N.pl3   
  13 C13            6.1086     2.2265     0.0204 C.2     
  14 N14           -1.1780    -0.7323    -0.4221 N.pl3   
  15 N15           -2.4218    -0.3758     0.1242 N.2     
  16 C16           -3.2642    -1.3202    -0.2054 C.2     
  17 N17           -2.6233    -2.2423    -0.9226 N.2     
  18 C18           -1.3684    -1.9001    -1.0666 C.2     
  19 C19           -4.7241    -1.3594     0.1663 C.3     
  20 C20            8.2909     2.6696     1.0708 C.3     
  21 C21            8.6780     3.2092    -0.3103 C.3     
  22 O22            7.5596     3.8501    -0.9150 O.3     
  23 N23            6.3255     3.1762    -0.8311 N.2     
  24 C24            7.9982     3.8186     2.0009 C.ar    
  25 C25            8.9857     4.7413     2.2916 C.ar    
  26 C26            7.4612     5.9268     3.7070 C.ar    
  27 C27            6.4722     5.0071     3.4121 C.ar    
  28 C28            6.7407     3.9531     2.5589 C.ar    
  29 C29            8.7172     5.7953     3.1448 C.ar    
  30 C30           -0.9727     2.9081     1.6659 C.3     
  31 O31           -1.0789     1.6689     0.9623 O.3     
  32 C32            6.3586    -1.8936     1.2304 C.3     
  33 C33            7.0926    -1.3535     0.0013 C.3     
  34 O34           10.6018     2.6439     1.7776 O.3     
  35 C35            9.4373     1.8280     1.6351 C.3     
  36 S36            7.1097     7.3069     4.8240 Du      
  37 F37            8.5038     7.0455     5.5857 F       
  38 F38            5.7156     7.5684     4.0624 F       
  39 F39            6.3676     6.2986     5.8363 F       
  40 F40            6.7970     8.5345     5.8177 F       
  41 F41            7.8518     8.3153     3.8118 F       
  42 H42            1.1446    -1.4364    -1.4645 H       
  43 H43            3.2503    -0.1830    -1.2942 H       
  44 H44            1.2610     2.8336     1.0237 H       
  45 H45            4.0494    -0.3219     0.8710 H       
  46 H46            4.7462    -0.4689    -0.7601 H       
  47 H47            3.6429     3.2398    -0.0140 H       
  48 H48            6.2756     0.8411     2.5754 H       
  49 H49            7.8637     0.2363     2.0371 H       
  50 H50           -0.6155    -2.4596    -1.6018 H       
  51 H51           -5.3092    -0.8601    -0.6060 H       
  52 H52           -5.0488    -2.3962     0.2547 H       
  53 H53           -4.8703    -0.8504     1.1190 H       
  54 H54            9.4916     3.9267    -0.2032 H       
  55 H55            9.0068     2.3839    -0.9418 H       
  56 H56            9.9670     4.6386     1.8524 H       
  57 H57            5.4898     5.1120     3.8483 H       
  58 H58            5.9678     3.2349     2.3280 H       
  59 H59            9.4889     6.5158     3.3725 H       
  60 H60           -1.9448     3.1750     2.0805 H       
  61 H61           -0.2485     2.8062     2.4741 H       
  62 H62           -0.6438     3.6885     0.9796 H       
  63 H63            6.9544    -2.1123     2.1166 H       
  64 H64            5.5097    -2.5556     1.0592 H       
  65 H65            6.7266    -1.6604    -0.9785 H       
  66 H66            8.1712    -1.2171     0.0789 H       
  67 H67           11.3699     2.1747     2.1312 H       
  68 H68            9.1510     1.4303     2.6087 H       
  69 H69            9.6520     1.0039     0.9548 H       
@<TRIPOS>BOND
   1    1    2 ar
   2    1    6 ar
   3    1   31 1
   4    2    3 ar
   5    2   14 1
   6    3    4 ar
   7    3   42 1
   8    4    5 ar
   9    4   43 1
  10    5    6 ar
  11    5    9 1
  12    6   44 1
  13    7    8 1
  14    7   10 1
  15    7   45 1
  16    7   46 1
  17    8    9 2
  18    8   13 1
  19    9   47 1
  20   10   11 1
  21   10   32 1
  22   10   33 1
  23   11   12 1
  24   11   48 1
  25   11   49 1
  26   12   13 1
  27   12   20 1
  28   13   23 2
  29   14   15 1
  30   14   18 1
  31   15   16 2
  32   16   17 1
  33   16   19 1
  34   17   18 2
  35   18   50 1
  36   19   51 1
  37   19   52 1
  38   19   53 1
  39   20   21 1
  40   20   24 1
  41   20   35 1
  42   21   22 1
  43   21   54 1
  44   21   55 1
  45   22   23 1
  46   24   25 ar
  47   24   28 ar
  48   25   29 ar
  49   25   56 1
  50   26   27 ar
  51   26   36 1
  52   26   29 ar
  53   27   28 ar
  54   27   57 1
  55   28   58 1
  56   29   59 1
  57   30   31 1
  58   30   60 1
  59   30   61 1
  60   30   62 1
  61   32   33 1
  62   32   63 1
  63   32   64 1
  64   33   65 1
  65   33   66 1
  66   34   35 1
  67   34   67 1
  68   35   68 1
  69   35   69 1
  70   36   37 1
  71   36   38 1
  72   36   39 1
  73   36   40 1
  74   36   41 1

#	End of record

