#	Name: ASD00843153
#	Creating user name:	WinNT
#	Creation time:	15. 06. 2019 18:46

#	Modifying user name:	WinNT
#	Modification time:	15. 06. 2019 18:46

#	Program:	/corina/corina34_cracker 3.40 0067  02.08.2006

@<TRIPOS>MOLECULE
ASD00843153
  99  104    0    0    0
SMALL
NO_CHARGES


@<TRIPOS>ATOM
   1 F1            -0.1186    -3.1612     4.7121 F       
   2 N2            -0.0149     1.3151     0.0239 N.ar    
   3 C3             0.0023    -0.0072     0.0102 C.ar    
   4 C4             1.2068    -0.6992    -0.0073 C.ar    
   5 C5             2.3928     0.0137    -0.0101 C.ar    
   6 C6             2.3318     1.4006     0.0047 C.ar    
   7 C7             1.0993     2.0222     0.0216 C.ar    
   8 C8             1.2215    -2.2060    -0.0224 C.3     
   9 C9             0.4763    -2.7316    -1.2307 C.2     
  10 N10            2.5991    -2.7046    -0.0121 N.am    
  11 C11            3.4466    -2.3635    -1.0029 C.2     
  12 N12            4.7401    -2.7371    -0.9417 N.am    
  13 O13            3.0443    -1.7187    -1.9520 O.2     
  14 C14            5.6552    -2.4758    -2.0632 C.3     
  15 C15            6.9058    -1.7777    -1.5184 C.3     
  16 N16            7.4742    -2.5798    -0.4269 N.3     
  17 C17            6.5397    -2.6818     0.7019 C.3     
  18 C18            5.2755    -3.4114     0.2507 C.3     
  19 C19            8.7676    -2.0358     0.0079 C.3     
  20 C20            9.2692    -2.8188     1.2244 C.3     
  21 C21           10.6444    -2.2877     1.6352 C.3     
  22 N22           11.5822    -2.4354     0.5148 N.3     
  23 C23           11.1459    -1.6540    -0.6494 C.3     
  24 C24            9.7856    -2.1662    -1.1284 C.3     
  25 C25           12.9455    -2.0642     0.9170 C.3     
  26 O26            0.7574    -2.5316    -2.3935 O.2     
  27 N27           -0.5547    -3.4616    -0.7732 N.am    
  28 C28            0.4479    -2.7549     1.1544 C.ar    
  29 C29           -0.6000    -3.4956     0.6221 C.ar    
  30 C30            0.6117    -2.6409     2.5167 C.ar    
  31 C31           -0.2759    -3.2700     3.3747 C.ar    
  32 C32           -1.3259    -4.0122     2.8556 C.ar    
  33 C33           -1.4899    -4.1263     1.4885 C.ar    
  34 F34           -2.1925    -4.6265     3.6904 F       
  35 C35           -1.0188    -5.8490    -2.0614 C.ar    
  36 C36            0.1596    -6.0100    -2.7758 C.ar    
  37 C37           -1.6977    -6.9557    -1.5877 C.ar    
  38 C38           -1.2049    -8.2246    -1.8238 C.ar    
  39 C39           -0.0265    -8.3908    -2.5380 C.ar    
  40 C40            0.6561    -7.2824    -3.0145 C.ar    
  41 O41            0.4576    -9.6392    -2.7704 O.3     
  42 O42            0.8266    -4.9214    -3.2417 O.3     
  43 C43           -0.2979   -10.7351    -2.2503 C.3     
  44 C44            2.0328    -5.1618    -3.9691 C.3     
  45 C45            2.6374    -3.8271    -4.4096 C.3     
  46 C46           13.9121    -2.3484    -0.2344 C.3     
  47 C47           12.9875    -0.5743     1.2623 C.3     
  48 O48           -1.1675    -0.6945     0.0136 O.3     
  49 C49           -2.3717     0.0746     0.0322 C.3     
  50 C50           -3.5780    -0.8666     0.0334 C.3     
  51 F51           -3.5502    -1.6616    -1.1174 F       
  52 F52           -3.5297    -1.6851     1.1669 F       
  53 S53           -1.6465    -4.2321    -1.7514 S.o2    
  54 O54           -2.8274    -4.4012    -0.9794 O.2     
  55 O55           -1.6231    -3.5471    -2.9962 O.2     
  56 H56            3.3442    -0.4972    -0.0231 H       
  57 H57            3.2388     1.9868     0.0033 H       
  58 H58            1.0463     3.1008     0.0328 H       
  59 H59            2.9011    -3.2803     0.7078 H       
  60 H60            5.9371    -3.4181    -2.5329 H       
  61 H61            5.1650    -1.8317    -2.7933 H       
  62 H62            7.6418    -1.6754    -2.3159 H       
  63 H63            6.6368    -0.7906    -1.1424 H       
  64 H64            7.0101    -3.2351     1.5147 H       
  65 H65            6.2757    -1.6821     1.0470 H       
  66 H66            4.5346    -3.3887     1.0498 H       
  67 H67            5.5181    -4.4445     0.0018 H       
  68 H68            8.6500    -0.9853     0.2741 H       
  69 H69            8.5695    -2.6948     2.0508 H       
  70 H70            9.3485    -3.8756     0.9695 H       
  71 H71           10.5618    -1.2344     1.9032 H       
  72 H72           11.0108    -2.8527     2.4923 H       
  73 H73           11.0608    -0.6037    -0.3707 H       
  74 H74           11.8764    -1.7587    -1.4516 H       
  75 H75            9.8730    -3.2127    -1.4203 H       
  76 H76            9.4548    -1.5758    -1.9829 H       
  77 H77           13.2384    -2.6478     1.7898 H       
  78 H78            1.4314    -2.0621     2.9161 H       
  79 H79           -2.3100    -4.7056     1.0907 H       
  80 H80           -2.6148    -6.8284    -1.0318 H       
  81 H81           -1.7369    -9.0878    -1.4521 H       
  82 H82            1.5730    -7.4098    -3.5708 H       
  83 H83           -0.3689   -10.6455    -1.1663 H       
  84 H84           -1.2986   -10.7239    -2.6822 H       
  85 H85            0.1977   -11.6717    -2.5058 H       
  86 H86            2.7424    -5.6894    -3.3318 H       
  87 H87            1.8127    -5.7685    -4.8475 H       
  88 H88            1.9278    -3.2995    -5.0469 H       
  89 H89            2.8576    -3.2205    -3.5312 H       
  90 H90            3.5575    -4.0105    -4.9644 H       
  91 H91           13.6192    -1.7648    -1.1072 H       
  92 H92           14.9236    -2.0730     0.0640 H       
  93 H93           13.8822    -3.4098    -0.4804 H       
  94 H94           12.2989    -0.3718     2.0826 H       
  95 H95           13.9990    -0.2988     1.5607 H       
  96 H96           12.6946     0.0093     0.3895 H       
  97 H97           -2.3934     0.6941     0.9289 H       
  98 H98           -2.4093     0.7123    -0.8509 H       
  99 H99           -4.4965    -0.2800     0.0476 H       
@<TRIPOS>BOND
   1    1   31 1
   2    2    3 ar
   3    2    7 ar
   4    3    4 ar
   5    3   48 1
   6    4    5 ar
   7    4    8 1
   8    5    6 ar
   9    5   56 1
  10    6    7 ar
  11    6   57 1
  12    7   58 1
  13    8    9 1
  14    8   10 1
  15    8   28 1
  16    9   26 2
  17    9   27 am
  18   10   11 am
  19   10   59 1
  20   11   12 am
  21   11   13 2
  22   12   14 1
  23   12   18 1
  24   14   15 1
  25   14   60 1
  26   14   61 1
  27   15   16 1
  28   15   62 1
  29   15   63 1
  30   16   17 1
  31   16   19 1
  32   17   18 1
  33   17   64 1
  34   17   65 1
  35   18   66 1
  36   18   67 1
  37   19   20 1
  38   19   24 1
  39   19   68 1
  40   20   21 1
  41   20   69 1
  42   20   70 1
  43   21   22 1
  44   21   71 1
  45   21   72 1
  46   22   23 1
  47   22   25 1
  48   23   24 1
  49   23   73 1
  50   23   74 1
  51   24   75 1
  52   24   76 1
  53   25   46 1
  54   25   47 1
  55   25   77 1
  56   27   53 am
  57   27   29 1
  58   28   29 ar
  59   28   30 ar
  60   29   33 ar
  61   30   31 ar
  62   30   78 1
  63   31   32 ar
  64   32   33 ar
  65   32   34 1
  66   33   79 1
  67   35   36 ar
  68   35   37 ar
  69   35   53 1
  70   36   42 1
  71   36   40 ar
  72   37   38 ar
  73   37   80 1
  74   38   39 ar
  75   38   81 1
  76   39   40 ar
  77   39   41 1
  78   40   82 1
  79   41   43 1
  80   42   44 1
  81   43   83 1
  82   43   84 1
  83   43   85 1
  84   44   45 1
  85   44   86 1
  86   44   87 1
  87   45   88 1
  88   45   89 1
  89   45   90 1
  90   46   91 1
  91   46   92 1
  92   46   93 1
  93   47   94 1
  94   47   95 1
  95   47   96 1
  96   48   49 1
  97   49   50 1
  98   49   97 1
  99   49   98 1
 100   50   51 1
 101   50   52 1
 102   50   99 1
 103   53   54 2
 104   53   55 2

#	End of record

