#	Name: ASD07301367
#	Creating user name:	WinNT
#	Creation time:	15. 06. 2019 21:11

#	Modifying user name:	WinNT
#	Modification time:	15. 06. 2019 21:11

#	Program:	/corina/corina34_cracker 3.40 0067  02.08.2006

@<TRIPOS>MOLECULE
ASD07301367
  43   44    0    0    0
SMALL
NO_CHARGES


@<TRIPOS>ATOM
   1 C1            -0.0092     1.5032     0.1334 C.3     
   2 C2             0.0094    -0.0036     0.1188 C.2     
   3 C3             1.2798    -0.7186    -0.0132 C.2     
   4 C4             1.2978    -2.1821    -0.0274 C.2     
   5 C5             1.2891    -2.9231    -1.3397 C.3     
   6 O6            -1.0289    -0.6242     0.2165 O.2     
   7 O7             1.3198    -2.7989     1.0175 O.2     
   8 N8             2.4122    -0.0417    -0.1198 N.2     
   9 N9             3.5396    -0.6686    -0.1319 N.pl3   
  10 C10            4.7360     0.0483    -0.1377 C.ar    
  11 C11            5.9519    -0.6254    -0.1508 C.ar    
  12 C12            7.1342     0.0877    -0.1569 C.ar    
  13 C13            7.1098     1.4705    -0.1500 C.ar    
  14 C14            5.9021     2.1443    -0.1365 C.ar    
  15 C15            4.7155     1.4382    -0.1361 C.ar    
  16 S16            8.6213     2.3761    -0.1579 S.o2    
  17 O17            8.3277     3.6517     0.3951 O.2     
  18 O18            9.6122     1.5076     0.3743 O.2     
  19 N19            9.0290     2.6357    -1.7418 N.am    
  20 C20            8.5671     3.8366    -2.4558 C.3     
  21 C21            9.7781     4.4972    -3.1245 C.3     
  22 O22           10.4744     3.5228    -3.9052 O.3     
  23 C23           11.0120     2.4385    -3.1443 C.3     
  24 C24            9.8689     1.6753    -2.4750 C.3     
  25 H25            1.0089     1.8801     0.0356 H       
  26 H26           -0.6127     1.8672    -0.6981 H       
  27 H27           -0.4371     1.8522     1.0732 H       
  28 H28            2.1182    -2.5780    -1.9574 H       
  29 H29            1.3947    -3.9920    -1.1541 H       
  30 H30            0.3481    -2.7353    -1.8567 H       
  31 H31            3.5552    -1.6384    -0.1371 H       
  32 H32            5.9717    -1.7052    -0.1558 H       
  33 H33            8.0792    -0.4351    -0.1668 H       
  34 H34            5.8870     3.2242    -0.1305 H       
  35 H35            3.7728     1.9651    -0.1304 H       
  36 H36            7.8373     3.5546    -3.2147 H       
  37 H37            8.1132     4.5317    -1.7496 H       
  38 H38            9.4403     5.3075    -3.7704 H       
  39 H39           10.4449     4.8945    -2.3591 H       
  40 H40           11.5619     1.7678    -3.8045 H       
  41 H41           11.6832     2.8283    -2.3790 H       
  42 H42           10.2766     0.9398    -1.7814 H       
  43 H43            9.2723     1.1719    -3.2358 H       
@<TRIPOS>BOND
   1    1    2 1
   2    1   25 1
   3    1   26 1
   4    1   27 1
   5    2    3 1
   6    2    6 2
   7    3    4 1
   8    3    8 2
   9    4    5 1
  10    4    7 2
  11    5   28 1
  12    5   29 1
  13    5   30 1
  14    8    9 1
  15    9   10 1
  16    9   31 1
  17   10   11 ar
  18   10   15 ar
  19   11   12 ar
  20   11   32 1
  21   12   13 ar
  22   12   33 1
  23   13   14 ar
  24   13   16 1
  25   14   15 ar
  26   14   34 1
  27   15   35 1
  28   16   17 2
  29   16   18 2
  30   16   19 am
  31   19   20 1
  32   19   24 1
  33   20   21 1
  34   20   36 1
  35   20   37 1
  36   21   22 1
  37   21   38 1
  38   21   39 1
  39   22   23 1
  40   23   24 1
  41   23   40 1
  42   23   41 1
  43   24   42 1
  44   24   43 1

#	End of record

