#	Name: ASD04590670
#	Creating user name:	WinNT
#	Creation time:	15. 06. 2019 20:51

#	Modifying user name:	WinNT
#	Modification time:	15. 06. 2019 20:51

#	Program:	/corina/corina34_cracker 3.40 0067  02.08.2006

@<TRIPOS>MOLECULE
ASD04590670
  70   75    0    0    0
SMALL
NO_CHARGES


@<TRIPOS>ATOM
   1 N1            -2.5297    -2.6906     0.5897 N.ar    
   2 C2            -1.3509    -2.0825     0.5504 C.ar    
   3 N3            -0.2092    -2.7496     0.5971 N.ar    
   4 C4            -0.2035    -4.0763     0.6865 C.ar    
   5 C5            -1.4397    -4.7520     0.7302 C.ar    
   6 C6            -2.6140    -4.0078     0.6783 C.ar    
   7 N7             0.8022    -5.0081     0.7513 N.pl3   
   8 C8             0.2732    -6.2854     0.8369 C.ar    
   9 C9            -1.1282    -6.1838     0.8277 C.ar    
  10 N10           -1.3145    -0.7011     0.4569 N.pl3   
  11 C11           -2.4984     0.0185     0.2955 C.ar    
  12 C12            2.2334    -4.6958     0.7317 C.3     
  13 C13            2.5954    -3.9635    -0.5723 C.3     
  14 N14           -3.6409    -0.6296     0.1335 N.ar    
  15 C15           -4.7844     0.0095    -0.0227 C.ar    
  16 C16           -4.8277     1.3960    -0.0227 C.ar    
  17 C17           -3.6443     2.1127     0.1453 C.ar    
  18 C18           -2.4655     1.4082     0.3123 C.ar    
  19 N19           -6.0449     2.0670    -0.1899 N.3     
  20 C20           -7.1534     1.1154    -0.3490 C.3     
  21 C21           -8.4726     1.8850    -0.4489 C.3     
  22 N22           -8.4108     2.8121    -1.5874 N.3     
  23 C23           -7.3023     3.7638    -1.4284 C.3     
  24 C24           -5.9831     2.9942    -1.3284 C.3     
  25 C25            0.8460    -7.5506     0.9239 C.ar    
  26 N26            0.0861    -8.6265     0.9954 N.ar    
  27 C27           -1.2343    -8.5631     0.9889 C.ar    
  28 C28           -1.8868    -7.3523     0.9055 C.ar    
  29 F29            2.1909    -7.6780     0.9347 F       
  30 C30            3.1498    -2.5832    -0.1634 C.3     
  31 C31            3.6510    -2.7899     1.2876 C.3     
  32 C32            2.5805    -3.7349     1.8876 C.3     
  33 C33           -9.6880     3.5162    -1.7629 C.3     
  34 C34          -10.7643     2.5196    -2.1979 C.3     
  35 C35          -12.0484     3.2751    -2.5458 C.3     
  36 C36          -10.2780     1.7476    -3.4261 C.3     
  37 O37          -11.0243     1.6040    -1.1320 O.3     
  38 H38           -3.5767    -4.4963     0.7102 H       
  39 H39           -0.4656    -0.2341     0.5037 H       
  40 H40            2.8166    -5.6125     0.8194 H       
  41 H41            3.3548    -4.5244    -1.1171 H       
  42 H42            1.7062    -3.8405    -1.1906 H       
  43 H43           -5.6971    -0.5531    -0.1523 H       
  44 H44           -3.6480     3.1927     0.1491 H       
  45 H45           -1.5301     1.9314     0.4455 H       
  46 H46           -7.0036     0.5311    -1.2569 H       
  47 H47           -7.1861     0.4480     0.5122 H       
  48 H48           -9.2931     1.1827    -0.5960 H       
  49 H49           -8.6357     2.4480     0.4701 H       
  50 H50           -7.2696     4.4312    -2.2895 H       
  51 H51           -7.4521     4.3481    -0.5205 H       
  52 H52           -5.1626     3.6965    -1.1814 H       
  53 H53           -5.8200     2.4312    -2.2474 H       
  54 H54           -1.8106    -9.4745     1.0496 H       
  55 H55           -2.9659    -7.3085     0.9008 H       
  56 H56            3.9750    -2.2954    -0.8147 H       
  57 H57            2.3607    -1.8318    -0.1910 H       
  58 H58            4.6322    -3.2645     1.2934 H       
  59 H59            3.6757    -1.8427     1.8263 H       
  60 H60            1.6995    -3.1695     2.1912 H       
  61 H61            2.9903    -4.2875     2.7331 H       
  62 H62           -9.9806     3.9785    -0.8201 H       
  63 H63           -9.5764     4.2865    -2.5260 H       
  64 H64          -11.8500     3.9735    -3.3588 H       
  65 H65          -12.8151     2.5651    -2.8557 H       
  66 H66          -12.3948     3.8251    -1.6708 H       
  67 H67           -9.4151     1.1394    -3.1548 H       
  68 H68          -11.0776     1.1021    -3.7896 H       
  69 H69           -9.9949     2.4513    -4.2089 H       
  70 H70          -11.6982     0.9417    -1.3380 H       
@<TRIPOS>BOND
   1    1    2 ar
   2    1    6 ar
   3    2    3 ar
   4    2   10 1
   5    3    4 ar
   6    4    5 ar
   7    4    7 1
   8    5    6 ar
   9    5    9 1
  10    6   38 1
  11    7    8 1
  12    7   12 1
  13    8    9 ar
  14    8   25 ar
  15    9   28 ar
  16   10   11 1
  17   10   39 1
  18   11   14 ar
  19   11   18 ar
  20   12   13 1
  21   12   32 1
  22   12   40 1
  23   13   30 1
  24   13   41 1
  25   13   42 1
  26   14   15 ar
  27   15   16 ar
  28   15   43 1
  29   16   17 ar
  30   16   19 1
  31   17   18 ar
  32   17   44 1
  33   18   45 1
  34   19   20 1
  35   19   24 1
  36   20   21 1
  37   20   46 1
  38   20   47 1
  39   21   22 1
  40   21   48 1
  41   21   49 1
  42   22   23 1
  43   22   33 1
  44   23   24 1
  45   23   50 1
  46   23   51 1
  47   24   52 1
  48   24   53 1
  49   25   26 ar
  50   25   29 1
  51   26   27 ar
  52   27   28 ar
  53   27   54 1
  54   28   55 1
  55   30   31 1
  56   30   56 1
  57   30   57 1
  58   31   32 1
  59   31   58 1
  60   31   59 1
  61   32   60 1
  62   32   61 1
  63   33   34 1
  64   33   62 1
  65   33   63 1
  66   34   35 1
  67   34   36 1
  68   34   37 1
  69   35   64 1
  70   35   65 1
  71   35   66 1
  72   36   67 1
  73   36   68 1
  74   36   69 1
  75   37   70 1

#	End of record

