#	Name: ASD07300209
#	Creating user name:	WinNT
#	Creation time:	15. 06. 2019 21:09

#	Modifying user name:	WinNT
#	Modification time:	15. 06. 2019 21:09

#	Program:	/corina/corina34_cracker 3.40 0067  02.08.2006

@<TRIPOS>MOLECULE
ASD07300209
  58   62    0    0    0
SMALL
NO_CHARGES


@<TRIPOS>ATOM
   1 C1            -0.8578     0.9904    -0.1274 C.ar    
   2 C2            -1.0205    -0.3804    -0.3505 C.ar    
   3 C3             0.0649    -1.2287    -0.1903 C.ar    
   4 C4             1.2796    -0.6758     0.1887 C.ar    
   5 C5             1.3685     0.6884     0.3924 C.ar    
   6 N6             0.3200     1.4726     0.2329 N.ar    
   7 C7            -2.9714     0.6169    -0.6993 C.2     
   8 N8            -2.0963     1.5798    -0.3546 N.am    
   9 N9            -2.3501    -0.5779    -0.7111 N.am    
  10 O10           -4.1449     0.7989    -0.9643 O.2     
  11 C11           -2.3855     2.9478    -0.2428 C.ar    
  12 C12           -3.6697     3.4093    -0.4985 C.ar    
  13 C13           -3.9539     4.7559    -0.3878 C.ar    
  14 C14           -2.9565     5.6478    -0.0211 C.ar    
  15 C15           -1.6730     5.1872     0.2346 C.ar    
  16 C16           -1.3890     3.8400     0.1293 C.ar    
  17 O17           -3.2368     6.9738     0.0874 O.3     
  18 C18           -3.9132     7.3925     1.1815 C.2     
  19 N19           -4.2407     6.6360     2.1967 N.2     
  20 C20           -4.9115     7.3750     3.1189 C.ar    
  21 C21           -4.9944     8.6846     2.6168 C.ar    
  22 N22           -4.3497     8.6678     1.3918 N.pl3   
  23 C23           -5.4764     7.0780     4.3613 C.ar    
  24 C24           -6.1073     8.0687     5.0801 C.ar    
  25 C25           -6.1868     9.3596     4.5797 C.ar    
  26 C26           -5.6339     9.6694     3.3541 C.ar    
  27 C27           -4.1722     9.8069     0.4879 C.3     
  28 C28           -5.3588     9.8837    -0.4749 C.3     
  29 C29           -5.1145    10.9949    -1.4978 C.3     
  30 C30           -5.5130     8.5462    -1.2018 C.3     
  31 O31           -6.5511    10.1665     0.2602 O.3     
  32 C32           -2.9692    -1.8647    -1.0383 C.3     
  33 C33           -3.5335    -2.4976     0.2352 C.3     
  34 H34           -0.0329    -2.2915    -0.3558 H       
  35 H35            2.1469    -1.3050     0.3235 H       
  36 H36            2.3136     1.1200     0.6874 H       
  37 H37           -4.4461     2.7151    -0.7843 H       
  38 H38           -4.9528     5.1150    -0.5871 H       
  39 H39           -0.8968     5.8818     0.5201 H       
  40 H40           -0.3909     3.4810     0.3323 H       
  41 H41           -5.4188     6.0746     4.7568 H       
  42 H42           -6.5439     7.8385     6.0408 H       
  43 H43           -6.6850    10.1274     5.1529 H       
  44 H44           -5.6987    10.6768     2.9702 H       
  45 H45           -4.1162    10.7270     1.0696 H       
  46 H46           -3.2508     9.6797    -0.0804 H       
  47 H47           -4.2050    10.7791    -2.0585 H       
  48 H48           -5.9599    11.0496    -2.1837 H       
  49 H49           -5.0046    11.9477    -0.9799 H       
  50 H50           -5.6870     7.7546    -0.4731 H       
  51 H51           -6.3584     8.6009    -1.8878 H       
  52 H52           -4.6035     8.3305    -1.7625 H       
  53 H53           -7.3454    10.2296    -0.2878 H       
  54 H54           -3.7758    -1.7082    -1.7545 H       
  55 H55           -2.2211    -2.5278    -1.4728 H       
  56 H56           -3.9941    -3.4550    -0.0082 H       
  57 H57           -2.7269    -2.6542     0.9514 H       
  58 H58           -4.2816    -1.8345     0.6698 H       
@<TRIPOS>BOND
   1    1    2 ar
   2    1    6 ar
   3    1    8 1
   4    2    3 ar
   5    2    9 1
   6    3    4 ar
   7    3   34 1
   8    4    5 ar
   9    4   35 1
  10    5    6 ar
  11    5   36 1
  12    7    8 am
  13    7    9 am
  14    7   10 2
  15    8   11 1
  16    9   32 1
  17   11   12 ar
  18   11   16 ar
  19   12   13 ar
  20   12   37 1
  21   13   14 ar
  22   13   38 1
  23   14   15 ar
  24   14   17 1
  25   15   16 ar
  26   15   39 1
  27   16   40 1
  28   17   18 1
  29   18   19 2
  30   18   22 1
  31   19   20 1
  32   20   21 ar
  33   20   23 ar
  34   21   22 1
  35   21   26 ar
  36   22   27 1
  37   23   24 ar
  38   23   41 1
  39   24   25 ar
  40   24   42 1
  41   25   26 ar
  42   25   43 1
  43   26   44 1
  44   27   28 1
  45   27   45 1
  46   27   46 1
  47   28   29 1
  48   28   30 1
  49   28   31 1
  50   29   47 1
  51   29   48 1
  52   29   49 1
  53   30   50 1
  54   30   51 1
  55   30   52 1
  56   31   53 1
  57   32   33 1
  58   32   54 1
  59   32   55 1
  60   33   56 1
  61   33   57 1
  62   33   58 1

#	End of record

