#	Name: ASD01814624
#	Creating user name:	WinNT
#	Creation time:	15. 06. 2019 19:32

#	Modifying user name:	WinNT
#	Modification time:	15. 06. 2019 19:32

#	Program:	/corina/corina34_cracker 3.40 0067  02.08.2006

@<TRIPOS>MOLECULE
ASD01814624
  48   51    0    0    0
SMALL
NO_CHARGES


@<TRIPOS>ATOM
   1 C1            -0.0444     1.3530    -0.5642 C.2     
   2 N2            -1.3565     1.7099    -0.7412 N.pl3   
   3 N3            -2.1215     0.5394    -0.7119 N.2     
   4 C4            -1.3199    -0.4897    -0.5259 C.2     
   5 C5            -0.0172    -0.0296    -0.4285 C.2     
   6 C6            -1.3145    -1.9916    -0.3806 C.3     
   7 N7             0.0755    -2.4166    -0.1884 N.am    
   8 C8             0.9019    -1.2058    -0.2205 C.3     
   9 C9            -1.6858     3.0250    -0.9033 C.2     
  10 C10           -0.7029     3.9578    -0.8860 C.2     
  11 C11            0.6277     3.5544    -0.7026 C.2     
  12 N12            0.9193     2.2836    -0.5538 N.2     
  13 C13            0.5113    -3.6807    -0.0192 C.2     
  14 C14           -0.4586    -4.7871     0.0903 C.ar    
  15 O15            1.7039    -3.9093     0.0432 O.2     
  16 C16           -0.3189    -5.7491     1.0997 C.ar    
  17 C17           -1.2358    -6.7847     1.1947 C.ar    
  18 C18           -2.2824    -6.8680     0.2976 C.ar    
  19 C19           -2.4249    -5.9188    -0.7035 C.ar    
  20 C20           -1.5244    -4.8780    -0.8080 C.ar    
  21 O21            0.7101    -5.6676     1.9805 O.3     
  22 C22           -1.0368     5.4167    -1.0630 C.3     
  23 C23            1.7279     4.5840    -0.6819 C.3     
  24 C24           -3.1230     3.4337    -1.0993 C.3     
  25 F25           -3.4523    -6.0100    -1.5760 F       
  26 C26            0.7886    -6.6836     2.9823 C.3     
  27 C27            2.0039    -6.4264     3.8755 C.3     
  28 H28           -1.9122    -2.2812     0.4837 H       
  29 H29           -1.7201    -2.4513    -1.2819 H       
  30 H30            1.6161    -1.2663    -1.0417 H       
  31 H31            1.4331    -1.0969     0.7251 H       
  32 H32           -1.1311    -7.5279     1.9714 H       
  33 H33           -2.9937    -7.6769     0.3758 H       
  34 H34           -1.6410    -4.1378    -1.5858 H       
  35 H35           -1.2282     5.8664    -0.0887 H       
  36 H36           -0.1994     5.9258    -1.5400 H       
  37 H37           -1.9245     5.5130    -1.6882 H       
  38 H38            1.8826     4.9300     0.3401 H       
  39 H39            2.6491     4.1391    -1.0583 H       
  40 H40            1.4479     5.4278    -1.3126 H       
  41 H41           -3.5805     3.6299    -0.1296 H       
  42 H42           -3.1642     4.3359    -1.7096 H       
  43 H43           -3.6639     2.6310    -1.6005 H       
  44 H44           -0.1175    -6.6673     3.5881 H       
  45 H45            0.8886    -7.6581     2.5045 H       
  46 H46            2.9099    -6.4427     3.2697 H       
  47 H47            1.9039    -5.4518     4.3534 H       
  48 H48            2.0637    -7.2013     4.6397 H       
@<TRIPOS>BOND
   1    1    5 2
   2    1   12 1
   3    1    2 1
   4    2    3 1
   5    2    9 1
   6    3    4 2
   7    4    6 1
   8    4    5 1
   9    5    8 1
  10    6    7 1
  11    6   28 1
  12    6   29 1
  13    7    8 1
  14    7   13 am
  15    8   30 1
  16    8   31 1
  17    9   10 2
  18    9   24 1
  19   10   11 1
  20   10   22 1
  21   11   12 2
  22   11   23 1
  23   13   14 1
  24   13   15 2
  25   14   16 ar
  26   14   20 ar
  27   16   17 ar
  28   16   21 1
  29   17   18 ar
  30   17   32 1
  31   18   19 ar
  32   18   33 1
  33   19   20 ar
  34   19   25 1
  35   20   34 1
  36   21   26 1
  37   22   35 1
  38   22   36 1
  39   22   37 1
  40   23   38 1
  41   23   39 1
  42   23   40 1
  43   24   41 1
  44   24   42 1
  45   24   43 1
  46   26   27 1
  47   26   44 1
  48   26   45 1
  49   27   46 1
  50   27   47 1
  51   27   48 1

#	End of record

