#	Name: ASD08710096
#	Creating user name:	WinNT
#	Creation time:	15. 06. 2019 21:19

#	Modifying user name:	WinNT
#	Modification time:	15. 06. 2019 21:19

#	Program:	/corina/corina34_cracker 3.40 0067  02.08.2006

@<TRIPOS>MOLECULE
ASD08710096
  50   52    0    0    0
SMALL
NO_CHARGES


@<TRIPOS>ATOM
   1 N1            -0.1011     1.5178    -0.4224 N.am    
   2 C2            -0.0481     0.0515    -0.5069 C.3     
   3 C3             0.1743    -0.3473    -1.9710 C.3     
   4 N4             1.2988     0.4340    -2.5049 N.am    
   5 C5             1.2458     1.9003    -2.4204 C.3     
   6 C6             1.0233     2.2991    -0.9562 C.3     
   7 S7             2.6024    -0.3242    -3.1890 S.o2    
   8 O8             3.6915     0.5832    -3.0906 O.2     
   9 O9             2.6332    -1.6371    -2.6463 O.2     
  10 C10            2.2584    -0.5042    -4.9077 C.ar    
  11 C11            2.6303     0.4887    -5.7947 C.ar    
  12 C12            2.3604     0.3475    -7.1430 C.ar    
  13 C13            1.7190    -0.7868    -7.6045 C.ar    
  14 C14            1.3478    -1.7800    -6.7176 C.ar    
  15 C15            1.6216    -1.6408    -5.3698 C.ar    
  16 C16            1.4238    -0.9402    -9.0743 C.3     
  17 F17            2.4996    -1.5775    -9.7019 F       
  18 F18            0.2661    -1.7080    -9.2398 F       
  19 F19            1.2318     0.3222    -9.6457 F       
  20 C20           -1.1644     2.1350     0.1298 C.2     
  21 O21           -2.1315     1.4854     0.4776 O.2     
  22 C22           -2.3508     4.3317     0.2708 C.ar    
  23 C23           -1.1548     3.5990     0.3121 C.ar    
  24 C24            0.0472     4.2819     0.5298 C.ar    
  25 C25            0.0021     5.6550     0.6953 C.ar    
  26 C26           -1.2165     6.3070     0.6415 C.ar    
  27 N27           -2.3377     5.6435     0.4351 N.ar    
  28 O28           -3.5249     3.6920     0.0558 O.3     
  29 C29           -4.7058     4.4962     0.0254 C.3     
  30 C30           -1.3685    -0.5396    -0.0086 C.3     
  31 H31            0.7753    -0.3206     0.1027 H       
  32 H32            0.4073    -1.4105    -2.0293 H       
  33 H33           -0.7254    -0.1352    -2.5487 H       
  34 H34            2.1864     2.3214    -2.7754 H       
  35 H35            0.4224     2.2724    -3.0300 H       
  36 H36            0.7903     3.3623    -0.8980 H       
  37 H37            1.9230     2.0870    -0.3786 H       
  38 H38            3.1315     1.3748    -5.4342 H       
  39 H39            2.6504     1.1235    -7.8359 H       
  40 H40            0.8464    -2.6661    -7.0780 H       
  41 H41            1.3350    -2.4185    -4.6773 H       
  42 H42            0.9866     3.7504     0.5681 H       
  43 H43            0.9111     6.2129     0.8655 H       
  44 H44           -1.2506     7.3787     0.7708 H       
  45 H45           -4.8216     5.0078     0.9809 H       
  46 H46           -4.6231     5.2330    -0.7735 H       
  47 H47           -5.5733     3.8612    -0.1543 H       
  48 H48           -2.1919    -0.1391    -0.5999 H       
  49 H49           -1.3422    -1.6245    -0.1103 H       
  50 H50           -1.5119    -0.2763     1.0393 H       
@<TRIPOS>BOND
   1    1    2 1
   2    1    6 1
   3    1   20 am
   4    2    3 1
   5    2   30 1
   6    2   31 1
   7    3    4 1
   8    3   32 1
   9    3   33 1
  10    4    5 1
  11    4    7 am
  12    5    6 1
  13    5   34 1
  14    5   35 1
  15    6   36 1
  16    6   37 1
  17    7    8 2
  18    7    9 2
  19    7   10 1
  20   10   11 ar
  21   10   15 ar
  22   11   12 ar
  23   11   38 1
  24   12   13 ar
  25   12   39 1
  26   13   14 ar
  27   13   16 1
  28   14   15 ar
  29   14   40 1
  30   15   41 1
  31   16   17 1
  32   16   18 1
  33   16   19 1
  34   20   21 2
  35   20   23 1
  36   22   23 ar
  37   22   27 ar
  38   22   28 1
  39   23   24 ar
  40   24   25 ar
  41   24   42 1
  42   25   26 ar
  43   25   43 1
  44   26   27 ar
  45   26   44 1
  46   28   29 1
  47   29   45 1
  48   29   46 1
  49   29   47 1
  50   30   48 1
  51   30   49 1
  52   30   50 1

#	End of record

