#	Name: ASD00060019
#	Creating user name:	WinNT
#	Creation time:	15. 06. 2019 18:29

#	Modifying user name:	WinNT
#	Modification time:	15. 06. 2019 18:29

#	Program:	/corina/corina34_cracker 3.40 0067  02.08.2006

@<TRIPOS>MOLECULE
ASD00060019
  34   36    0    0    0
SMALL
NO_CHARGES


@<TRIPOS>ATOM
   1 C1            -0.0167     1.3781     0.0096 C.ar    
   2 C2             0.0021    -0.0041     0.0020 C.ar    
   3 C3            -1.1855    -0.7115     0.0095 C.ar    
   4 C4            -2.3919    -0.0367     0.0251 C.ar    
   5 C5            -2.4106     1.3455     0.0336 C.ar    
   6 C6            -1.2230     2.0529     0.0305 C.ar    
   7 C7             1.2780     2.1493     0.0014 C.3     
   8 C8             1.3344     3.0233    -1.2250 C.2     
   9 C9             1.3591     3.0232     1.2546 C.3     
  10 C10            1.4265     2.1440     2.4767 C.2     
  11 O11            1.5035     2.6965     3.6976 O.3     
  12 O12            1.4113     0.9417     2.3575 O.2     
  13 O13            0.4499     3.9915    -1.5212 O.3     
  14 C14            0.7696     4.5956    -2.6838 C.ar    
  15 C15            1.9346     3.9774    -3.1682 C.ar    
  16 C16            2.2764     2.9518    -2.1752 C.2     
  17 C17            0.1939     5.6283    -3.4124 C.ar    
  18 C18            0.7661     6.0369    -4.5982 C.ar    
  19 C19            1.9169     5.4258    -5.0769 C.ar    
  20 C20            2.5041     4.3991    -4.3685 C.ar    
  21 Cl21           2.6196     5.9566    -6.5730 Cl      
  22 H22            0.9446    -0.5313    -0.0101 H       
  23 H23           -1.1709    -1.7913     0.0029 H       
  24 H24           -3.3198    -0.5893     0.0302 H       
  25 H25           -3.3531     1.8728     0.0454 H       
  26 H26           -1.2376     3.1328     0.0372 H       
  27 H27            2.1160     1.4524    -0.0103 H       
  28 H28            2.2519     3.6466     1.2058 H       
  29 H29            0.4752     3.6585     1.3124 H       
  30 H30            1.5446     2.0919     4.4512 H       
  31 H31            3.1148     2.2717    -2.2074 H       
  32 H32           -0.7019     6.1109    -3.0504 H       
  33 H33            0.3142     6.8405    -5.1607 H       
  34 H34            3.3996     3.9243    -4.7414 H       
@<TRIPOS>BOND
   1    1    2 ar
   2    1    7 1
   3    1    6 ar
   4    2    3 ar
   5    2   22 1
   6    3    4 ar
   7    3   23 1
   8    4    5 ar
   9    4   24 1
  10    5    6 ar
  11    5   25 1
  12    6   26 1
  13    7    8 1
  14    7    9 1
  15    7   27 1
  16    8   13 1
  17    8   16 2
  18    9   10 1
  19    9   28 1
  20    9   29 1
  21   10   11 1
  22   10   12 2
  23   11   30 1
  24   13   14 1
  25   14   15 ar
  26   14   17 ar
  27   15   16 1
  28   15   20 ar
  29   16   31 1
  30   17   18 ar
  31   17   32 1
  32   18   19 ar
  33   18   33 1
  34   19   20 ar
  35   19   21 1
  36   20   34 1

#	End of record

