#	Name: ASD05720297
#	Creating user name:	WinNT
#	Creation time:	15. 06. 2019 21:02

#	Modifying user name:	WinNT
#	Modification time:	15. 06. 2019 21:02

#	Program:	/corina/corina34_cracker 3.40 0067  02.08.2006

@<TRIPOS>MOLECULE
ASD05720297
  69   73    0    0    0
SMALL
NO_CHARGES


@<TRIPOS>ATOM
   1 N1             0.6939    -0.0773     0.5979 N.am    
   2 C2             0.8075    -1.2664    -0.0262 C.2     
   3 O3             1.8068    -1.5222    -0.6698 O.2     
   4 N4            -0.1867    -2.1720     0.0630 N.am    
   5 C5            -0.0633    -3.4645    -0.6154 C.3     
   6 C6             1.7665     0.8170     0.5971 C.ar    
   7 C7             1.5282     2.1865     0.5617 C.ar    
   8 C8             2.5843     3.0711     0.5609 C.ar    
   9 C9             3.8948     2.5914     0.5956 C.ar    
  10 C10            4.1310     1.2160     0.6311 C.ar    
  11 C11            3.0707     0.3363     0.6375 C.ar    
  12 C12            5.9815     5.5327    -0.0934 C.ar    
  13 N13            7.1036     5.3073     0.5695 N.ar    
  14 C14            7.2598     4.1941     1.2806 C.ar    
  15 C15            6.2082     3.2550     1.3172 C.ar    
  16 C16            5.0312     3.5388     0.5943 C.ar    
  17 N17            4.9664     4.6784    -0.0879 N.ar    
  18 N18            7.8411     2.4471     2.5565 N.2     
  19 N19            8.2631     3.6830     2.0504 N.pl3   
  20 C20            6.6373     2.1862     2.1328 C.2     
  21 O21            5.5213     8.2452    -3.1413 O.3     
  22 C22            4.4356     8.1192    -2.2189 C.3     
  23 C23            4.5512     6.7820    -1.4825 C.3     
  24 N24            5.8594     6.7071    -0.8159 N.3     
  25 C25            6.9502     6.8407    -1.7925 C.3     
  26 C26            6.8104     8.1773    -2.5258 C.3     
  27 N27           12.1393     4.4468     3.4555 N.am    
  28 C28           11.0677     5.2468     4.0643 C.3     
  29 C29            9.7268     4.5523     3.8066 C.3     
  30 C30            9.5592     4.3172     2.3037 C.3     
  31 C31           10.6802     3.4050     1.8002 C.3     
  32 C32           12.0319     4.0864     2.0352 C.3     
  33 C33           13.2032     4.0559     4.1846 C.2     
  34 C34           13.3542     4.5252     5.6087 C.3     
  35 C35           13.6147     6.0328     5.6239 C.3     
  36 O36           14.0390     3.3263     3.6947 O.2     
  37 O37           14.4527     3.8458     6.2202 O.3     
  38 H38           -0.1343     0.1591     1.0442 H       
  39 H39           -0.9840    -1.9679     0.5764 H       
  40 H40           -0.9580    -4.0589    -0.4303 H       
  41 H41            0.0502    -3.3029    -1.6874 H       
  42 H42            0.8098    -3.9935    -0.2333 H       
  43 H43            0.5141     2.5571     0.5345 H       
  44 H44            2.3986     4.1346     0.5330 H       
  45 H45            5.1438     0.8419     0.6580 H       
  46 H46            3.2527    -0.7277     0.6697 H       
  47 H47            6.0642     1.3012     2.3662 H       
  48 H48            4.4736     8.9361    -1.4983 H       
  49 H49            3.4910     8.1554    -2.7616 H       
  50 H50            3.7586     6.7066    -0.7381 H       
  51 H51            4.4595     5.9639    -2.1969 H       
  52 H52            7.9086     6.8082    -1.2744 H       
  53 H53            6.8967     6.0235    -2.5119 H       
  54 H54            7.5834     8.2555    -3.2904 H       
  55 H55            6.9175     8.9959    -1.8141 H       
  56 H56           11.2370     5.3275     5.1380 H       
  57 H57           11.0558     6.2413     3.6183 H       
  58 H58            9.7061     3.5959     4.3290 H       
  59 H59            8.9149     5.1830     4.1689 H       
  60 H60            9.6050     5.2717     1.7794 H       
  61 H61           10.6505     2.4594     2.3415 H       
  62 H62           10.5469     3.2190     0.7345 H       
  63 H63           12.0986     4.9863     1.4238 H       
  64 H64           12.8374     3.4015     1.7701 H       
  65 H65           12.4400     4.3088     6.1614 H       
  66 H66           12.7386     6.5567     5.2417 H       
  67 H67           13.8147     6.3566     6.6453 H       
  68 H68           14.4762     6.2590     4.9957 H       
  69 H69           14.6088     4.0991     7.1402 H       
@<TRIPOS>BOND
   1    1    2 am
   2    1    6 1
   3    1   38 1
   4    2    3 2
   5    2    4 am
   6    4    5 1
   7    4   39 1
   8    5   40 1
   9    5   41 1
  10    5   42 1
  11    6    7 ar
  12    6   11 ar
  13    7    8 ar
  14    7   43 1
  15    8    9 ar
  16    8   44 1
  17    9   10 ar
  18    9   16 1
  19   10   11 ar
  20   10   45 1
  21   11   46 1
  22   12   13 ar
  23   12   17 ar
  24   12   24 1
  25   13   14 ar
  26   14   15 ar
  27   14   19 1
  28   15   16 ar
  29   15   20 1
  30   16   17 ar
  31   18   19 1
  32   18   20 2
  33   19   30 1
  34   20   47 1
  35   21   22 1
  36   21   26 1
  37   22   23 1
  38   22   48 1
  39   22   49 1
  40   23   24 1
  41   23   50 1
  42   23   51 1
  43   24   25 1
  44   25   26 1
  45   25   52 1
  46   25   53 1
  47   26   54 1
  48   26   55 1
  49   27   28 1
  50   27   32 1
  51   27   33 am
  52   28   29 1
  53   28   56 1
  54   28   57 1
  55   29   30 1
  56   29   58 1
  57   29   59 1
  58   30   31 1
  59   30   60 1
  60   31   32 1
  61   31   61 1
  62   31   62 1
  63   32   63 1
  64   32   64 1
  65   33   34 1
  66   33   36 2
  67   34   35 1
  68   34   37 1
  69   34   65 1
  70   35   66 1
  71   35   67 1
  72   35   68 1
  73   37   69 1

#	End of record

