#	Name: ASD01881202
#	Creating user name:	WinNT
#	Creation time:	15. 06. 2019 19:42

#	Modifying user name:	WinNT
#	Modification time:	15. 06. 2019 19:42

#	Program:	/corina/corina34_cracker 3.40 0067  02.08.2006

@<TRIPOS>MOLECULE
ASD01881202
  52   55    0    0    0
SMALL
NO_CHARGES


@<TRIPOS>ATOM
   1 N1            -0.0195     1.3838    -0.1101 N.ar    
   2 C2            -0.0482     0.0627    -0.0447 C.ar    
   3 N3             1.0530    -0.6466     0.1431 N.ar    
   4 C4             2.2273    -0.0513     0.2719 C.ar    
   5 C5             2.2945     1.3317     0.2080 C.ar    
   6 C6             1.1215     2.0427     0.0109 C.ar    
   7 C7             3.6136     2.0463     0.3509 C.3     
   8 O8             4.6415     1.0960     0.6379 O.3     
   9 C9             5.8998     1.5787     0.7973 C.ar    
  10 C10            6.9481     0.7072     1.0786 C.ar    
  11 C11            8.2206     1.1955     1.2394 C.ar    
  12 C12            8.4729     2.5667     1.1223 C.ar    
  13 C13            7.4162     3.4387     0.8394 C.ar    
  14 C14            6.1409     2.9411     0.6739 C.ar    
  15 C15            9.5466     0.5433     1.5421 C.3     
  16 N16           10.5355     1.6265     1.5845 N.am    
  17 C17            9.9113     2.7918     1.3417 C.2     
  18 O18           10.4572     3.8778     1.3077 O.2     
  19 Cl19           7.7108     5.1431     0.6912 Cl      
  20 C20            1.1453     3.5475    -0.0658 C.3     
  21 C21            1.1959     3.9762    -1.5097 C.ar    
  22 C22            0.0277     4.0781    -2.2417 C.ar    
  23 C23            0.0741     4.4713    -3.5662 C.ar    
  24 C24            1.2886     4.7630    -4.1584 C.ar    
  25 C25            2.4567     4.6619    -3.4262 C.ar    
  26 C26            2.4099     4.2730    -2.1005 C.ar    
  27 C27           12.7070     1.2433     0.5266 C.3     
  28 C28           11.9675     1.4645     1.8476 C.3     
  29 O29           -1.2340    -0.5795    -0.1726 O.3     
  30 C30           -1.2108    -2.0062    -0.0946 C.3     
  31 H31            3.1226    -0.6357     0.4253 H       
  32 H32            3.8480     2.5655    -0.5784 H       
  33 H33            3.5492     2.7687     1.1645 H       
  34 H34            6.7601    -0.3523     1.1707 H       
  35 H35            5.3250     3.6141     0.4551 H       
  36 H36            9.5037     0.0371     2.5065 H       
  37 H37            9.8027    -0.1674     0.7563 H       
  38 H38            0.2462     3.9494     0.4012 H       
  39 H39            2.0251     3.9241     0.4560 H       
  40 H40           -0.9212     3.8502    -1.7790 H       
  41 H41           -0.8385     4.5502    -4.1383 H       
  42 H42            1.3249     5.0695    -5.1934 H       
  43 H43            3.4056     4.8895    -3.8890 H       
  44 H44            3.3225     4.1940    -1.5283 H       
  45 H45           12.3230     0.3462     0.0410 H       
  46 H46           12.5523     2.1035    -0.1248 H       
  47 H47           13.7724     1.1228     0.7223 H       
  48 H48           12.3515     2.3616     2.3332 H       
  49 H49           12.1222     0.6043     2.4990 H       
  50 H50           -0.8159    -2.3107     0.8746 H       
  51 H51           -2.2231    -2.3930    -0.2123 H       
  52 H52           -0.5758    -2.4031    -0.8867 H       
@<TRIPOS>BOND
   1    1    2 ar
   2    1    6 ar
   3    2    3 ar
   4    2   29 1
   5    3    4 ar
   6    4    5 ar
   7    4   31 1
   8    5    6 ar
   9    5    7 1
  10    6   20 1
  11    7    8 1
  12    7   32 1
  13    7   33 1
  14    8    9 1
  15    9   10 ar
  16    9   14 ar
  17   10   11 ar
  18   10   34 1
  19   11   12 ar
  20   11   15 1
  21   12   13 ar
  22   12   17 1
  23   13   14 ar
  24   13   19 1
  25   14   35 1
  26   15   16 1
  27   15   36 1
  28   15   37 1
  29   16   17 am
  30   16   28 1
  31   17   18 2
  32   20   21 1
  33   20   38 1
  34   20   39 1
  35   21   22 ar
  36   21   26 ar
  37   22   23 ar
  38   22   40 1
  39   23   24 ar
  40   23   41 1
  41   24   25 ar
  42   24   42 1
  43   25   26 ar
  44   25   43 1
  45   26   44 1
  46   27   28 1
  47   27   45 1
  48   27   46 1
  49   27   47 1
  50   28   48 1
  51   28   49 1
  52   29   30 1
  53   30   50 1
  54   30   51 1
  55   30   52 1

#	End of record

