#	Name: ASD01917006
#	Creating user name:	WinNT
#	Creation time:	15. 06. 2019 20:08

#	Modifying user name:	WinNT
#	Modification time:	15. 06. 2019 20:08

#	Program:	/corina/corina34_cracker 3.40 0067  02.08.2006

@<TRIPOS>MOLECULE
ASD01917006
  56   60    0    0    0
SMALL
NO_CHARGES


@<TRIPOS>ATOM
   1 C1            -0.0027     1.3469     0.1638 C.ar    
   2 C2             0.0297    -0.0125     0.4295 C.ar    
   3 C3             1.2430    -0.6648     0.5770 C.ar    
   4 C4             2.4249     0.0375     0.4597 C.ar    
   5 C5             2.3969     1.4048     0.1926 C.ar    
   6 C6             1.1744     2.0569     0.0450 C.ar    
   7 C7             3.6655     2.1644     0.0661 C.2     
   8 N8             4.8945     1.6504     0.1869 N.2     
   9 N9             3.7637     3.4514    -0.1886 N.2     
  10 N10            5.1337     3.7577    -0.2227 N.pl3   
  11 C11            5.7910     2.5992     0.0173 C.2     
  12 C12            7.2594     2.4291     0.0784 C.ar    
  13 C13            5.7330     5.0709    -0.4731 C.3     
  14 C14            5.8627     5.8202     0.8280 C.2     
  15 O15            5.4910     5.3079     1.8625 O.2     
  16 N16            6.3916     7.0598     0.8419 N.am    
  17 C17            6.5273     7.8085     2.1005 C.3     
  18 C18            7.9697     8.3133     2.2136 C.3     
  19 N19            8.3177     9.0672     1.0017 N.3     
  20 C20            8.2783     8.2086    -0.1896 C.3     
  21 C21            6.8541     7.6971    -0.4003 C.3     
  22 C22            9.5607     9.6790     1.1347 C.ar    
  23 C23            8.0834     3.5333     0.2984 C.ar    
  24 C24           10.3092     9.5324     2.3036 C.ar    
  25 C25           10.0923    10.4487     0.1021 C.ar    
  26 N26           12.0050    10.8806     1.3994 N.ar    
  27 C27           11.5356    10.1539     2.3971 C.ar    
  28 C28            9.4516     3.3695     0.3544 C.ar    
  29 C29           10.0084     2.1108     0.1921 C.ar    
  30 C30            9.1943     1.0109    -0.0272 C.ar    
  31 C31            7.8245     1.1631    -0.0782 C.ar    
  32 F32           -1.1252    -0.7039     0.5455 F       
  33 C33           11.3302    11.0396     0.2742 C.ar    
  34 F34           11.8565    11.7883    -0.7196 F       
  35 F35           11.3493     1.9555     0.2473 F       
  36 H36           -0.9506     1.8507     0.0450 H       
  37 H37            1.2638    -1.7245     0.7844 H       
  38 H38            3.3703    -0.4717     0.5752 H       
  39 H39            1.1482     3.1164    -0.1625 H       
  40 H40            6.7198     4.9411    -0.9175 H       
  41 H41            5.0984     5.6357    -1.1560 H       
  42 H42            5.8419     8.6561     2.0980 H       
  43 H43            6.3014     7.1539     2.9422 H       
  44 H44            8.0607     8.9625     3.0844 H       
  45 H45            8.6449     7.4643     2.3202 H       
  46 H46            8.5930     8.7819    -1.0616 H       
  47 H47            8.9492     7.3610    -0.0495 H       
  48 H48            6.8424     6.9707    -1.2128 H       
  49 H49            6.1972     8.5325    -0.6428 H       
  50 H50            7.6505     4.5148     0.4243 H       
  51 H51            9.9321     8.9400     3.1241 H       
  52 H52            9.5453    10.5815    -0.8196 H       
  53 H53           12.1184    10.0493     3.3003 H       
  54 H54           10.0903     4.2236     0.5247 H       
  55 H55            9.6330     0.0321    -0.1538 H       
  56 H56            7.1909     0.3053    -0.2488 H       
@<TRIPOS>BOND
   1    1    2 ar
   2    1    6 ar
   3    1   36 1
   4    2    3 ar
   5    2   32 1
   6    3    4 ar
   7    3   37 1
   8    4    5 ar
   9    4   38 1
  10    5    6 ar
  11    5    7 1
  12    6   39 1
  13    7    8 1
  14    7    9 2
  15    8   11 2
  16    9   10 1
  17   10   11 1
  18   10   13 1
  19   11   12 1
  20   12   23 ar
  21   12   31 ar
  22   13   14 1
  23   13   40 1
  24   13   41 1
  25   14   15 2
  26   14   16 am
  27   16   17 1
  28   16   21 1
  29   17   18 1
  30   17   42 1
  31   17   43 1
  32   18   19 1
  33   18   44 1
  34   18   45 1
  35   19   20 1
  36   19   22 1
  37   20   21 1
  38   20   46 1
  39   20   47 1
  40   21   48 1
  41   21   49 1
  42   22   25 ar
  43   22   24 ar
  44   23   28 ar
  45   23   50 1
  46   24   27 ar
  47   24   51 1
  48   25   33 ar
  49   25   52 1
  50   26   27 ar
  51   26   33 ar
  52   27   53 1
  53   28   29 ar
  54   28   54 1
  55   29   30 ar
  56   29   35 1
  57   30   31 ar
  58   30   55 1
  59   31   56 1
  60   33   34 1

#	End of record

