#	Name: ASD01230745
#	Creating user name:	WinNT
#	Creation time:	15. 06. 2019 19:15

#	Modifying user name:	WinNT
#	Modification time:	15. 06. 2019 19:15

#	Program:	/corina/corina34_cracker 3.40 0067  02.08.2006

@<TRIPOS>MOLECULE
ASD01230745
  24   25    0    0    0
SMALL
NO_CHARGES


@<TRIPOS>ATOM
   1 C1            -0.0168     1.3862     0.0097 C.ar    
   2 C2             0.0021    -0.0041     0.0020 C.ar    
   3 C3             1.2066    -0.6786    -0.0127 C.ar    
   4 C4             2.4037     0.0363    -0.0203 C.ar    
   5 C5             2.3802     1.4297    -0.0131 C.ar    
   6 C6             1.1734     2.0987     0.0021 C.ar    
   7 O7            -1.2039     2.0486     0.0189 O.3     
   8 F8            -1.1588    -0.6951     0.0094 F       
   9 C9             4.6914    -0.3489    -0.9681 C.ar    
  10 C10            3.6994    -0.6847    -0.0356 C.ar    
  11 C11            3.9525    -1.7080     0.8774 C.ar    
  12 C12            5.1794    -2.3516     0.8230 C.ar    
  13 C13            6.1075    -1.9653    -0.1242 C.ar    
  14 N14            5.8464    -0.9938    -0.9789 N.ar    
  15 N15            4.4578     0.6628    -1.8896 N.pl3   
  16 H16            1.2215    -1.7585    -0.0179 H       
  17 H17            3.3061     1.9857    -0.0186 H       
  18 H18            1.1554     3.1785     0.0081 H       
  19 H19           -1.5432     2.2354     0.9049 H       
  20 H20            3.2110    -1.9921     1.6093 H       
  21 H21            5.4076    -3.1480     1.5158 H       
  22 H22            7.0632    -2.4665    -0.1662 H       
  23 H23            3.6105     1.1350    -1.8871 H       
  24 H24            5.1419     0.8976    -2.5360 H       
@<TRIPOS>BOND
   1    1    2 ar
   2    1    6 ar
   3    1    7 1
   4    2    3 ar
   5    2    8 1
   6    3    4 ar
   7    3   16 1
   8    4    5 ar
   9    4   10 1
  10    5    6 ar
  11    5   17 1
  12    6   18 1
  13    7   19 1
  14    9   10 ar
  15    9   14 ar
  16    9   15 1
  17   10   11 ar
  18   11   12 ar
  19   11   20 1
  20   12   13 ar
  21   12   21 1
  22   13   14 ar
  23   13   22 1
  24   15   23 1
  25   15   24 1

#	End of record

