#	Name: ASD01811177
#	Creating user name:	WinNT
#	Creation time:	15. 06. 2019 19:26

#	Modifying user name:	WinNT
#	Modification time:	15. 06. 2019 19:26

#	Program:	/corina/corina34_cracker 3.40 0067  02.08.2006

@<TRIPOS>MOLECULE
ASD01811177
  39   41    0    0    0
SMALL
NO_CHARGES


@<TRIPOS>ATOM
   1 C1             0.1549     0.0045     0.1435 C.1     
   2 C2             0.0578     1.4318     0.0796 C.ar    
   3 C3             1.2150     2.2089    -0.0182 C.ar    
   4 C4             1.1227     3.5848    -0.0803 C.ar    
   5 C5            -0.1120     4.2027    -0.0459 C.ar    
   6 C6            -1.2764     3.4384     0.0521 C.ar    
   7 C7            -1.1915     2.0490     0.1089 C.ar    
   8 N8             0.2319    -1.1277     0.1941 N.1     
   9 C9             2.5667     1.5435    -0.0554 C.3     
  10 N10           -4.0855     5.6189     0.1798 N.2     
  11 N11           -2.8203     5.3935     0.1705 N.2     
  12 C12           -2.5975     4.1022     0.0897 C.2     
  13 N13           -3.8240     3.4842     0.0458 N.pl3   
  14 C14           -4.7451     4.4874     0.1057 C.2     
  15 O15           -6.0920     4.3427     0.0913 O.3     
  16 C16           -6.8736     5.5368     0.1633 C.3     
  17 C17           -8.3602     5.1759     0.1348 C.3     
  18 C18           -0.2027     5.7054    -0.1138 C.3     
  19 C19            0.3817     6.4142     1.1195 C.3     
  20 C20            0.9637     7.4547     0.1482 C.3     
  21 C21            0.9302     6.3548    -0.9261 C.3     
  22 H22            2.0201     4.1809    -0.1558 H       
  23 H23           -2.0894     1.4531     0.1803 H       
  24 H24            2.8396     1.3329    -1.0894 H       
  25 H25            3.3099     2.2056     0.3890 H       
  26 H26            2.5281     0.6109     0.5074 H       
  27 H27           -3.9982     2.5319    -0.0154 H       
  28 H28           -6.6457     6.0650     1.0891 H       
  29 H29           -6.6387     6.1766    -0.6873 H       
  30 H30           -8.5881     4.6477    -0.7910 H       
  31 H31           -8.5951     4.5361     0.9854 H       
  32 H32           -8.9564     6.0867     0.1897 H       
  33 H33           -1.1967     6.0574    -0.3896 H       
  34 H34           -0.3761     6.8189     1.7903 H       
  35 H35            1.1407     5.8301     1.6399 H       
  36 H36            0.2891     8.2859    -0.0568 H       
  37 H37            1.9708     7.7799     0.4088 H       
  38 H38            1.8392     5.7546    -0.9649 H       
  39 H39            0.6152     6.7117    -1.9067 H       
@<TRIPOS>BOND
   1    1    2 1
   2    1    8 3
   3    2    3 ar
   4    2    7 ar
   5    3    4 ar
   6    3    9 1
   7    4    5 ar
   8    4   22 1
   9    5    6 ar
  10    5   18 1
  11    6    7 ar
  12    6   12 1
  13    7   23 1
  14    9   24 1
  15    9   25 1
  16    9   26 1
  17   10   11 1
  18   10   14 2
  19   11   12 2
  20   12   13 1
  21   13   14 1
  22   13   27 1
  23   14   15 1
  24   15   16 1
  25   16   17 1
  26   16   28 1
  27   16   29 1
  28   17   30 1
  29   17   31 1
  30   17   32 1
  31   18   19 1
  32   18   21 1
  33   18   33 1
  34   19   20 1
  35   19   34 1
  36   19   35 1
  37   20   21 1
  38   20   36 1
  39   20   37 1
  40   21   38 1
  41   21   39 1

#	End of record

