#	Name: ASD07030040
#	Creating user name:	WinNT
#	Creation time:	15. 06. 2019 21:08

#	Modifying user name:	WinNT
#	Modification time:	15. 06. 2019 21:08

#	Program:	/corina/corina34_cracker 3.40 0067  02.08.2006

@<TRIPOS>MOLECULE
ASD07030040
  36   37    0    0    0
SMALL
NO_CHARGES


@<TRIPOS>ATOM
   1 N1            -0.0162     1.3436     0.0094 N.am    
   2 C2             1.2424     2.0932     0.0014 C.3     
   3 C3             1.2255     3.5084     0.5828 C.3     
   4 C4             1.3377     3.3038    -0.9293 C.3     
   5 C5            -0.0847     4.0244     1.1198 C.ar    
   6 C6            -0.1887     4.3970     2.4470 C.ar    
   7 C7            -1.3886     4.8757     2.9385 C.ar    
   8 C8            -2.4853     4.9819     2.1023 C.ar    
   9 C9            -2.3807     4.6089     0.7744 C.ar    
  10 C10           -1.1805     4.1304     0.2837 C.ar    
  11 Br11          -4.1273     5.6361     2.7744 Br      
  12 C12            0.0021    -0.0041     0.0020 C.2     
  13 O13           -1.1546    -0.6931     0.0094 O.3     
  14 C14           -1.0590    -2.1419     0.0007 C.3     
  15 O15            1.0625    -0.5972    -0.0113 O.2     
  16 C16           -0.2938    -2.6099     1.2402 C.3     
  17 C17           -2.4647    -2.7459     0.0108 C.3     
  18 C18           -0.3177    -2.5965    -1.2582 C.3     
  19 H19           -0.8627     1.8170     0.0241 H       
  20 H20            2.1445     1.4994     0.1487 H       
  21 H21            2.1164     3.8456     1.1126 H       
  22 H22            2.3025     3.5064    -1.3943 H       
  23 H23            0.4640     3.5425    -1.5357 H       
  24 H24            0.6675     4.3137     3.0999 H       
  25 H25           -1.4699     5.1664     3.9755 H       
  26 H26           -3.2368     4.6913     0.1212 H       
  27 H27           -1.0987     3.8392    -0.7531 H       
  28 H28           -0.8219    -2.2860     2.1370 H       
  29 H29           -0.2220    -3.6975     1.2336 H       
  30 H30            0.7076    -2.1796     1.2329 H       
  31 H31           -3.0098    -2.4124    -0.8722 H       
  32 H32           -2.3929    -3.8335     0.0043 H       
  33 H33           -2.9928    -2.4220     0.9077 H       
  34 H34            0.6838    -2.1662    -1.2654 H       
  35 H35           -0.2459    -3.6841    -1.2647 H       
  36 H36           -0.8628    -2.2631    -2.1412 H       
@<TRIPOS>BOND
   1    1   12 am
   2    1    2 1
   3    1   19 1
   4    2    3 1
   5    2    4 1
   6    2   20 1
   7    3    4 1
   8    3    5 1
   9    3   21 1
  10    4   22 1
  11    4   23 1
  12    5    6 ar
  13    5   10 ar
  14    6    7 ar
  15    6   24 1
  16    7    8 ar
  17    7   25 1
  18    8    9 ar
  19    8   11 1
  20    9   10 ar
  21    9   26 1
  22   10   27 1
  23   12   13 1
  24   12   15 2
  25   13   14 1
  26   14   16 1
  27   14   17 1
  28   14   18 1
  29   16   28 1
  30   16   29 1
  31   16   30 1
  32   17   31 1
  33   17   32 1
  34   17   33 1
  35   18   34 1
  36   18   35 1
  37   18   36 1

#	End of record

