#	Name: ASD03081172
#	Creating user name:	WinNT
#	Creation time:	15. 06. 2019 20:27

#	Modifying user name:	WinNT
#	Modification time:	15. 06. 2019 20:27

#	Program:	/corina/corina34_cracker 3.40 0067  02.08.2006

@<TRIPOS>MOLECULE
ASD03081172
  45   47    0    0    0
SMALL
NO_CHARGES


@<TRIPOS>ATOM
   1 C1            -0.1501     1.7312    -0.3389 C.3     
   2 C2            -0.1211     0.2081    -0.1770 C.3     
   3 N3             0.7474    -0.3614    -1.2163 N.am    
   4 C4             2.1189     0.1491    -1.3480 C.3     
   5 C5             2.0657     1.6728    -1.4971 C.3     
   6 C6             1.2819     2.2695    -0.3266 C.3     
   7 C7             1.2546     3.7947    -0.4553 C.3     
   8 C8             0.5232     4.3904     0.7499 C.3     
   9 N9             1.2125     3.9970     1.9854 N.3     
  10 C10            1.2089     2.5383     2.1543 C.3     
  11 C11            1.9603     1.8867     0.9911 C.3     
  12 C12            0.2949    -1.3336    -2.0327 C.2     
  13 C13           -1.0386    -1.9274    -1.8059 C.ar    
  14 C14           -1.8788    -2.1963    -2.8885 C.ar    
  15 C15           -3.1259    -2.7521    -2.6696 C.ar    
  16 C16           -3.5411    -3.0417    -1.3738 C.ar    
  17 C17           -2.7084    -2.7754    -0.2997 C.ar    
  18 C18           -1.4604    -2.2268    -0.5092 C.ar    
  19 O19            0.9842    -1.7219    -2.9558 O.2     
  20 O20           -3.9467    -3.0153    -3.7211 O.3     
  21 C21           -3.4562    -2.6922    -5.0238 C.3     
  22 F22           -4.7603    -3.5839    -1.1625 F       
  23 H23           -0.6268     1.9874    -1.2851 H       
  24 H24           -0.7121     2.1737     0.4835 H       
  25 H25            0.2711    -0.0473     0.8073 H       
  26 H26           -1.1300    -0.1901    -0.2853 H       
  27 H27            2.6927    -0.1112    -0.4586 H       
  28 H28            2.5884    -0.2881    -2.2292 H       
  29 H29            3.0792     2.0737    -1.4982 H       
  30 H30            1.5716     1.9295    -2.4342 H       
  31 H31            2.2754     4.1757    -0.4862 H       
  32 H32            0.7337     4.0734    -1.3713 H       
  33 H33            0.5150     5.4774     0.6688 H       
  34 H34           -0.5017     4.0202     0.7721 H       
  35 H35            2.1533     4.3611     2.0063 H       
  36 H36            1.6989     2.2802     3.0932 H       
  37 H37            0.1807     2.1771     2.1703 H       
  38 H38            1.9429     0.8032     1.1080 H       
  39 H39            2.9928     2.2359     0.9836 H       
  40 H40           -1.5556    -1.9704    -3.8939 H       
  41 H41           -3.0354    -3.0020     0.7044 H       
  42 H42           -0.8115    -2.0244     0.3301 H       
  43 H43           -2.5425    -3.2541    -5.2177 H       
  44 H44           -4.2075    -2.9518    -5.7696 H       
  45 H45           -3.2444    -1.6244    -5.0778 H       
@<TRIPOS>BOND
   1    1    2 1
   2    1    6 1
   3    1   23 1
   4    1   24 1
   5    2    3 1
   6    2   25 1
   7    2   26 1
   8    3    4 1
   9    3   12 am
  10    4    5 1
  11    4   27 1
  12    4   28 1
  13    5    6 1
  14    5   29 1
  15    5   30 1
  16    6    7 1
  17    6   11 1
  18    7    8 1
  19    7   31 1
  20    7   32 1
  21    8    9 1
  22    8   33 1
  23    8   34 1
  24    9   10 1
  25    9   35 1
  26   10   11 1
  27   10   36 1
  28   10   37 1
  29   11   38 1
  30   11   39 1
  31   12   13 1
  32   12   19 2
  33   13   14 ar
  34   13   18 ar
  35   14   15 ar
  36   14   40 1
  37   15   16 ar
  38   15   20 1
  39   16   17 ar
  40   16   22 1
  41   17   18 ar
  42   17   41 1
  43   18   42 1
  44   20   21 1
  45   21   43 1
  46   21   44 1
  47   21   45 1

#	End of record

