#	Name: ASD03331710
#	Creating user name:	WinNT
#	Creation time:	15. 06. 2019 20:39

#	Modifying user name:	WinNT
#	Modification time:	15. 06. 2019 20:39

#	Program:	/corina/corina34_cracker 3.40 0067  02.08.2006

@<TRIPOS>MOLECULE
ASD03331710
  43   46    0    0    0
SMALL
NO_CHARGES


@<TRIPOS>ATOM
   1 C1            -0.2981     1.7330    -0.2600 C.ar    
   2 C2            -0.2192     0.3717    -0.1732 C.ar    
   3 C3             1.0126    -0.2571    -0.0561 C.ar    
   4 C4             2.1778     0.4784    -0.0253 C.ar    
   5 C5             2.1224     1.8653    -0.1121 C.ar    
   6 C6             0.8705     2.4990    -0.2308 C.ar    
   7 N7             3.0848     2.8511    -0.1089 N.pl3   
   8 C8             2.4878     4.0854    -0.2212 C.2     
   9 C9             1.1424     3.9339    -0.2989 C.2     
  10 C10            0.1219     5.0349    -0.4308 C.3     
  11 C11            0.2254     5.6544    -1.8007 C.ar    
  12 C12           -1.2811     4.4558    -0.2377 C.3     
  13 N13           -1.4273     3.9794     1.1400 N.pl3   
  14 O14           -0.9993     4.6476     2.0641 O.2     
  15 O15           -1.9769     2.9152     1.3613 O.2     
  16 C16           -0.4398     5.0749    -2.8643 C.ar    
  17 C17           -0.3380     5.6527    -4.1207 C.ar    
  18 C18            0.4324     6.7967    -4.2604 C.ar    
  19 C19            1.0691     7.3196    -3.1505 C.ar    
  20 N20            0.9455     6.7463    -1.9695 N.ar    
  21 C21            3.2033     5.3793    -0.2514 C.ar    
  22 C22            2.7804     6.4325     0.5607 C.ar    
  23 C23            4.3074     5.5494    -1.0878 C.ar    
  24 C24            4.9715     6.7580    -1.1118 C.ar    
  25 C25            4.5442     7.8023    -0.3073 C.ar    
  26 C26            3.4517     7.6369     0.5290 C.ar    
  27 F27            5.1985     8.9840    -0.3342 F       
  28 H28           -1.2598     2.2151    -0.3554 H       
  29 H29           -1.1226    -0.2197    -0.1955 H       
  30 H30            1.0585    -1.3340     0.0119 H       
  31 H31            3.1311    -0.0208     0.0665 H       
  32 H32            4.0400     2.6979    -0.0376 H       
  33 H33            0.3083     5.7958     0.3270 H       
  34 H34           -2.0236     5.2287    -0.4356 H       
  35 H35           -1.4291     3.6246    -0.9271 H       
  36 H36           -1.0312     4.1830    -2.7189 H       
  37 H37           -0.8466     5.2216    -4.9704 H       
  38 H38            0.5343     7.2731    -5.2243 H       
  39 H39            1.6715     8.2103    -3.2510 H       
  40 H40            1.9289     6.3048     1.2126 H       
  41 H41            4.6415     4.7361    -1.7150 H       
  42 H42            5.8263     6.8906    -1.7585 H       
  43 H43            3.1250     8.4528     1.1568 H       
@<TRIPOS>BOND
   1    1    2 ar
   2    1    6 ar
   3    1   28 1
   4    2    3 ar
   5    2   29 1
   6    3    4 ar
   7    3   30 1
   8    4    5 ar
   9    4   31 1
  10    5    7 1
  11    5    6 ar
  12    6    9 1
  13    7    8 1
  14    7   32 1
  15    8    9 2
  16    8   21 1
  17    9   10 1
  18   10   12 1
  19   10   11 1
  20   10   33 1
  21   11   16 ar
  22   11   20 ar
  23   12   13 1
  24   12   34 1
  25   12   35 1
  26   13   14 2
  27   13   15 2
  28   16   17 ar
  29   16   36 1
  30   17   18 ar
  31   17   37 1
  32   18   19 ar
  33   18   38 1
  34   19   20 ar
  35   19   39 1
  36   21   23 ar
  37   21   22 ar
  38   22   26 ar
  39   22   40 1
  40   23   24 ar
  41   23   41 1
  42   24   25 ar
  43   24   42 1
  44   25   26 ar
  45   25   27 1
  46   26   43 1

#	End of record

