#	Name: ASD01150907
#	Creating user name:	WinNT
#	Creation time:	15. 06. 2019 19:05

#	Modifying user name:	WinNT
#	Modification time:	15. 06. 2019 19:05

#	Program:	/corina/corina34_cracker 3.40 0067  02.08.2006

@<TRIPOS>MOLECULE
ASD01150907
  53   55    0    0    0
SMALL
NO_CHARGES


@<TRIPOS>ATOM
   1 C1            -0.0178     1.4594     0.0101 C.2     
   2 C2             0.0021    -0.0041     0.0020 C.2     
   3 N3            -1.1558    -0.6938     0.0094 N.am    
   4 O4             1.0641    -0.5982    -0.0113 O.2     
   5 C5            -1.1370    -2.0831     0.0017 C.2     
   6 N6            -0.0478    -2.8555    -0.0124 N.2     
   7 C7            -0.3959    -4.1261    -0.0160 C.2     
   8 N8            -1.7505    -4.2217    -0.0042 N.pl3   
   9 C9            -2.2481    -2.9174     0.0134 C.2     
  10 C10           -3.6019    -2.5265     0.0305 C.2     
  11 O11           -4.5752    -3.4628     0.0309 O.3     
  12 O12           -3.8942    -1.3443     0.0449 O.2     
  13 C13           -5.9254    -2.9951     0.0486 C.3     
  14 C14           -6.8795    -4.1912     0.0463 C.3     
  15 S15            0.7215    -5.4884    -0.0335 S.3     
  16 C16            2.2990    -4.6010    -0.0424 C.3     
  17 C17           -2.5385    -5.4567    -0.0044 C.3     
  18 C18           -2.7962    -5.8883     1.4163 C.ar    
  19 C19           -3.9235    -5.4424     2.0805 C.ar    
  20 C20           -4.1599    -5.8383     3.3837 C.ar    
  21 C21           -3.2691    -6.6805     4.0225 C.ar    
  22 C22           -2.1422    -7.1271     3.3581 C.ar    
  23 C23           -1.9081    -6.7347     2.0534 C.ar    
  24 C24            1.1408     2.1494     0.0027 C.2     
  25 C25            1.1208     3.6212     0.0108 C.ar    
  26 C26            2.3201     4.3404     0.0032 C.ar    
  27 C27            2.2931     5.7190     0.0109 C.ar    
  28 C28            1.0833     6.3910     0.0266 C.ar    
  29 C29           -0.1079     5.6863     0.0346 C.ar    
  30 C30           -0.0976     4.3075     0.0203 C.ar    
  31 H31           -0.9603     1.9866     0.0174 H       
  32 H32           -2.0023    -0.2203     0.0200 H       
  33 H33           -6.0917    -2.3994     0.9462 H       
  34 H34           -6.1092    -2.3820    -0.8336 H       
  35 H35           -7.9094    -3.8344     0.0598 H       
  36 H36           -6.7131    -4.7869    -0.8512 H       
  37 H37           -6.6957    -4.8043     0.9285 H       
  38 H38            2.3559    -3.9700    -0.9293 H       
  39 H39            2.3716    -3.9800     0.8505 H       
  40 H40            3.1194    -5.3185    -0.0536 H       
  41 H41           -3.4886    -5.2814    -0.5089 H       
  42 H42           -1.9882    -6.2387    -0.5275 H       
  43 H43           -4.6195    -4.7844     1.5813 H       
  44 H44           -5.0403    -5.4894     3.9028 H       
  45 H45           -3.4534    -6.9892     5.0409 H       
  46 H46           -1.4461    -7.7848     3.8573 H       
  47 H47           -1.0277    -7.0837     1.5343 H       
  48 H48            2.0833     1.6222    -0.0091 H       
  49 H49            3.2650     3.8174    -0.0083 H       
  50 H50            3.2185     6.2759     0.0051 H       
  51 H51            1.0686     7.4709     0.0329 H       
  52 H52           -1.0480     6.2178     0.0476 H       
  53 H53           -1.0279     3.7590     0.0263 H       
@<TRIPOS>BOND
   1    1    2 1
   2    1   24 2
   3    1   31 1
   4    2    3 am
   5    2    4 2
   6    3    5 1
   7    3   32 1
   8    5    6 1
   9    5    9 2
  10    6    7 2
  11    7    8 1
  12    7   15 1
  13    8    9 1
  14    8   17 1
  15    9   10 1
  16   10   11 1
  17   10   12 2
  18   11   13 1
  19   13   14 1
  20   13   33 1
  21   13   34 1
  22   14   35 1
  23   14   36 1
  24   14   37 1
  25   15   16 1
  26   16   38 1
  27   16   39 1
  28   16   40 1
  29   17   18 1
  30   17   41 1
  31   17   42 1
  32   18   19 ar
  33   18   23 ar
  34   19   20 ar
  35   19   43 1
  36   20   21 ar
  37   20   44 1
  38   21   22 ar
  39   21   45 1
  40   22   23 ar
  41   22   46 1
  42   23   47 1
  43   24   25 1
  44   24   48 1
  45   25   26 ar
  46   25   30 ar
  47   26   27 ar
  48   26   49 1
  49   27   28 ar
  50   27   50 1
  51   28   29 ar
  52   28   51 1
  53   29   30 ar
  54   29   52 1
  55   30   53 1

#	End of record

