#	Name: ASD03331614
#	Creating user name:	WinNT
#	Creation time:	15. 06. 2019 20:39

#	Modifying user name:	WinNT
#	Modification time:	15. 06. 2019 20:39

#	Program:	/corina/corina34_cracker 3.40 0067  02.08.2006

@<TRIPOS>MOLECULE
ASD03331614
  60   62    0    0    0
SMALL
NO_CHARGES


@<TRIPOS>ATOM
   1 C1             0.4862     2.4345     0.4770 C.ar    
   2 C2             0.5443     0.9734     0.2534 C.2     
   3 N3            -0.4162     0.0757     0.6015 N.pl3   
   4 C4             0.0125    -1.1530     0.2269 C.2     
   5 C5             1.2333    -0.9991    -0.3465 C.2     
   6 N6             1.5312     0.3210    -0.3209 N.2     
   7 C7             2.0776    -2.0724    -0.9003 C.2     
   8 N8             3.2749    -1.7756    -1.4432 N.am    
   9 C9            -1.7071     0.3385     1.2678 C.3     
  10 C10           -1.6567    -0.3663     2.6332 C.3     
  11 C11           -1.9296    -1.8434     2.4871 C.3     
  12 N12           -0.8823    -2.6437     1.8888 N.3     
  13 C13           -0.7691    -2.4375     0.4322 C.3     
  14 C14           -0.1776     2.9458     1.5924 C.ar    
  15 O15            1.6939    -3.2260    -0.8675 O.2     
  16 C16            4.1143    -2.8427    -1.9938 C.3     
  17 C17           -1.0605    -4.0667     2.2068 C.3     
  18 C18           -2.2210    -2.4099     3.8782 C.3     
  19 C19            3.6949    -3.1279    -3.4373 C.3     
  20 C20            5.5579    -2.4111    -1.9660 C.2     
  21 C21            3.9020    -1.8720    -4.2862 C.3     
  22 C22           -0.2288     4.3111     1.7962 C.ar    
  23 C23            0.3783     5.1721     0.8930 C.ar    
  24 C24            1.0378     4.6674    -0.2158 C.ar    
  25 C25            1.1000     3.3053    -0.4242 C.ar    
  26 F26            0.3257     6.5068     1.0955 F       
  27 F27           -0.8710     4.8086     2.8757 F       
  28 O28            5.8377    -1.2315    -1.9350 O.2     
  29 N29            6.5380    -3.3362    -1.9755 N.am    
  30 C30            7.9371    -2.9224    -1.8424 C.3     
  31 C31            4.5449    -4.2692    -3.9992 C.3     
  32 H32            3.5809    -0.8555    -1.4694 H       
  33 H33           -1.8425     1.4110     1.4074 H       
  34 H34           -2.5238    -0.0661     0.6700 H       
  35 H35           -0.6690    -0.2261     3.0725 H       
  36 H36           -2.4063     0.0732     3.2912 H       
  37 H37           -2.8297    -1.9614     1.8839 H       
  38 H38           -1.7615    -2.3434    -0.0085 H       
  39 H39           -0.2370    -3.2735    -0.0217 H       
  40 H40           -0.6507     2.2757     2.2949 H       
  41 H41            3.9933    -3.7455    -1.3951 H       
  42 H42           -2.0738    -4.3730     1.9470 H       
  43 H43           -0.3445    -4.6588     1.6367 H       
  44 H44           -0.8953    -4.2243     3.2726 H       
  45 H45           -2.9916    -1.8091     4.3611 H       
  46 H46           -2.5674    -3.4393     3.7860 H       
  47 H47           -1.3115    -2.3851     4.4784 H       
  48 H48            2.6431    -3.4128    -3.4605 H       
  49 H49            4.9539    -1.5871    -4.2629 H       
  50 H50            3.6033    -2.0752    -5.3146 H       
  51 H51            3.2965    -1.0589    -3.8858 H       
  52 H52            1.5082     5.3417    -0.9162 H       
  53 H53            1.6146     2.9137    -1.2891 H       
  54 H54            6.3172    -4.2759    -2.0705 H       
  55 H55            8.1979    -2.2539    -2.6629 H       
  56 H56            8.0738    -2.4036    -0.8936 H       
  57 H57            8.5804    -3.8018    -1.8717 H       
  58 H58            4.1670    -4.5543    -4.9811 H       
  59 H59            5.5803    -3.9406    -4.0898 H       
  60 H60            4.4931    -5.1258    -3.3272 H       
@<TRIPOS>BOND
   1    1    2 1
   2    1   14 ar
   3    1   25 ar
   4    2    3 1
   5    2    6 2
   6    3    4 1
   7    3    9 1
   8    4    5 2
   9    4   13 1
  10    5    6 1
  11    5    7 1
  12    7    8 am
  13    7   15 2
  14    8   16 1
  15    8   32 1
  16    9   10 1
  17    9   33 1
  18    9   34 1
  19   10   11 1
  20   10   35 1
  21   10   36 1
  22   11   12 1
  23   11   18 1
  24   11   37 1
  25   12   13 1
  26   12   17 1
  27   13   38 1
  28   13   39 1
  29   14   22 ar
  30   14   40 1
  31   16   19 1
  32   16   20 1
  33   16   41 1
  34   17   42 1
  35   17   43 1
  36   17   44 1
  37   18   45 1
  38   18   46 1
  39   18   47 1
  40   19   21 1
  41   19   31 1
  42   19   48 1
  43   20   28 2
  44   20   29 am
  45   21   49 1
  46   21   50 1
  47   21   51 1
  48   22   23 ar
  49   22   27 1
  50   23   24 ar
  51   23   26 1
  52   24   25 ar
  53   24   52 1
  54   25   53 1
  55   29   30 1
  56   29   54 1
  57   30   55 1
  58   30   56 1
  59   30   57 1
  60   31   58 1
  61   31   59 1
  62   31   60 1

#	End of record

