#	Name: ASD03092264
#	Creating user name:	WinNT
#	Creation time:	15. 06. 2019 20:32

#	Modifying user name:	WinNT
#	Modification time:	15. 06. 2019 20:32

#	Program:	/corina/corina34_cracker 3.40 0067  02.08.2006

@<TRIPOS>MOLECULE
ASD03092264
  59   62    0    0    0
SMALL
NO_CHARGES


@<TRIPOS>ATOM
   1 C1             3.1659    -4.3122     2.6627 C.3     
   2 O2             2.0282    -3.8737     1.9174 O.3     
   3 C3             1.5801    -2.6138     2.1597 C.ar    
   4 C4             2.2256    -1.8155     3.0904 C.ar    
   5 C5             1.7655    -0.5286     3.3352 C.ar    
   6 N6             2.4138     0.2797     4.2725 N.pl3   
   7 C7             2.4489     1.6636     4.0951 C.2     
   8 N8             2.9606     2.5462     4.9598 N.2     
   9 C9             2.8311     3.7583     4.4844 C.2     
  10 C10            3.2834     5.0264     5.1614 C.3     
  11 C11            4.7454     5.2544     4.8759 C.2     
  12 O12            5.3597     4.4648     4.1902 O.2     
  13 N13            5.3704     6.3357     5.3826 N.am    
  14 C14            6.7917     6.5573     5.1051 C.3     
  15 C15            7.0548     7.7083     4.1198 C.3     
  16 C16            7.0933     8.6410     5.3418 C.3     
  17 C17            7.5014     7.4108     6.1694 C.3     
  18 N18            2.2234     3.6762     3.2847 N.pl3   
  19 N19            1.9903     2.3114     3.0500 N.2     
  20 C20            1.8945     4.7397     2.4380 C.ar    
  21 C21            2.7828     5.7944     2.2370 C.ar    
  22 C22            2.4205     6.8249     1.3938 C.ar    
  23 C23            3.3727     7.9709     1.1679 C.3     
  24 N24            1.2512     6.8193     0.7826 N.ar    
  25 C25            0.3834     5.8392     0.9471 C.ar    
  26 C26           -0.9375     5.8857     0.2232 C.3     
  27 C27            0.6724     4.7692     1.7692 C.ar    
  28 C28            0.6598    -0.0455     2.6463 C.ar    
  29 C29            0.0190    -0.8449     1.7196 C.ar    
  30 C30            0.4791    -2.1238     1.4707 C.ar    
  31 C31           -1.1804    -0.3188     0.9741 C.3     
  32 F32           -0.7595     0.3073    -0.2040 F       
  33 F33           -2.0355    -1.3801     0.6583 F       
  34 F34           -1.8597     0.6046     1.7759 F       
  35 H35            2.9358    -4.2829     3.7277 H       
  36 H36            3.4185    -5.3323     2.3735 H       
  37 H37            4.0111    -3.6559     2.4553 H       
  38 H38            3.0846    -2.1938     3.6246 H       
  39 H39            2.8395    -0.1209     5.0466 H       
  40 H40            2.7036     5.8677     4.7817 H       
  41 H41            3.1328     4.9375     6.2373 H       
  42 H42            4.8791     6.9672     5.9311 H       
  43 H43            7.3228     5.6383     4.8569 H       
  44 H44            8.0100     7.6290     3.6007 H       
  45 H45            6.2209     7.9055     3.4461 H       
  46 H46            7.8686     9.4050     5.2838 H       
  47 H47            6.1182     9.0458     5.6131 H       
  48 H48            7.0281     7.3678     7.1503 H       
  49 H49            8.5787     7.2502     6.2107 H       
  50 H50            3.7413     5.8053     2.7346 H       
  51 H51            4.0191     7.7445     0.3199 H       
  52 H52            2.8060     8.8787     0.9606 H       
  53 H53            3.9817     8.1186     2.0597 H       
  54 H54           -0.8389     5.3944    -0.7448 H       
  55 H55           -1.6949     5.3724     0.8157 H       
  56 H56           -1.2343     6.9240     0.0750 H       
  57 H57           -0.0406     3.9679     1.8960 H       
  58 H58            0.3009     0.9554     2.8357 H       
  59 H59           -0.0211    -2.7446     0.7421 H       
@<TRIPOS>BOND
   1    1    2 1
   2    1   35 1
   3    1   36 1
   4    1   37 1
   5    2    3 1
   6    3   30 ar
   7    3    4 ar
   8    4    5 ar
   9    4   38 1
  10    5    6 1
  11    5   28 ar
  12    6    7 1
  13    6   39 1
  14    7   19 2
  15    7    8 1
  16    8    9 2
  17    9   10 1
  18    9   18 1
  19   10   11 1
  20   10   40 1
  21   10   41 1
  22   11   12 2
  23   11   13 am
  24   13   14 1
  25   13   42 1
  26   14   17 1
  27   14   15 1
  28   14   43 1
  29   15   16 1
  30   15   44 1
  31   15   45 1
  32   16   17 1
  33   16   46 1
  34   16   47 1
  35   17   48 1
  36   17   49 1
  37   18   19 1
  38   18   20 1
  39   20   27 ar
  40   20   21 ar
  41   21   22 ar
  42   21   50 1
  43   22   23 1
  44   22   24 ar
  45   23   51 1
  46   23   52 1
  47   23   53 1
  48   24   25 ar
  49   25   26 1
  50   25   27 ar
  51   26   54 1
  52   26   55 1
  53   26   56 1
  54   27   57 1
  55   28   29 ar
  56   28   58 1
  57   29   30 ar
  58   29   31 1
  59   30   59 1
  60   31   32 1
  61   31   33 1
  62   31   34 1

#	End of record

