#	Name: ASD01884502
#	Creating user name:	WinNT
#	Creation time:	15. 06. 2019 19:48

#	Modifying user name:	WinNT
#	Modification time:	15. 06. 2019 19:48

#	Program:	/corina/corina34_cracker 3.40 0067  02.08.2006

@<TRIPOS>MOLECULE
ASD01884502
  49   50    0    0    0
SMALL
NO_CHARGES


@<TRIPOS>ATOM
   1 C1            -0.0168     1.3884     0.0097 C.2     
   2 C2             0.0021    -0.0041     0.0020 C.2     
   3 C3            -1.2095    -0.6965     0.0104 C.2     
   4 C4            -2.3831    -0.0157     0.0252 C.2     
   5 N5            -2.4093     1.3392     0.0327 N.am    
   6 C6            -1.2693     2.0558     0.0312 C.2     
   7 O7            -1.3129     3.2741     0.0380 O.2     
   8 C8            -3.6983     2.0352     0.0483 C.3     
   9 C9             1.2059     2.1337     0.0020 C.1     
  10 N10            2.1759     2.7249    -0.0041 N.1     
  11 N11            1.6901    -1.1066     1.3585 N.3     
  12 C12            2.8290    -2.0352     1.3670 C.3     
  13 C13            3.2431    -2.3172     2.8131 C.3     
  14 N14            2.1012    -2.8822     3.5456 N.3     
  15 C15            0.9623    -1.9536     3.5371 C.3     
  16 C16            0.5482    -1.6716     2.0910 C.3     
  17 C17           -4.1338     2.2698     1.4962 C.3     
  18 C18            1.3105    -0.7515    -0.0155 C.3     
  19 C19           -5.4800     2.9967     1.5124 C.3     
  20 C20           -6.5555     2.0919     0.9078 C.3     
  21 C21           -5.8558     3.3419     2.9548 C.3     
  22 O22            2.4792    -3.2358     4.9140 O.3     
  23 C23            1.7318    -2.5485     5.9195 C.3     
  24 H24           -1.2130    -1.7765     0.0046 H       
  25 H25           -3.3137    -0.5638     0.0308 H       
  26 H26           -3.5999     2.9937    -0.4613 H       
  27 H27           -4.4456     1.4275    -0.4619 H       
  28 H28            2.5411    -2.9683     0.8826 H       
  29 H29            3.6659    -1.5892     0.8295 H       
  30 H30            4.0692    -3.0283     2.8228 H       
  31 H31            3.5569    -1.3883     3.2893 H       
  32 H32            0.1254    -2.3996     4.0746 H       
  33 H33            1.2502    -1.0205     4.0215 H       
  34 H34           -0.2779    -0.9605     2.0813 H       
  35 H35            0.2344    -2.6005     1.6148 H       
  36 H36           -4.2323     1.3113     2.0058 H       
  37 H37           -3.3866     2.8775     2.0064 H       
  38 H38            1.2023    -1.6595    -0.6087 H       
  39 H39            2.0835    -0.1207    -0.4544 H       
  40 H40           -5.4052     3.9132     0.9272 H       
  41 H41           -6.2878     1.8460    -0.1198 H       
  42 H42           -6.6304     1.1754     1.4930 H       
  43 H43           -7.5146     2.6098     0.9194 H       
  44 H44           -5.0896     3.9865     3.3856 H       
  45 H45           -6.8149     3.8597     2.9664 H       
  46 H46           -5.9307     2.4254     3.5401 H       
  47 H47            1.8808    -1.4741     5.8121 H       
  48 H48            0.6729    -2.7814     5.8079 H       
  49 H49            2.0717    -2.8657     6.9053 H       
@<TRIPOS>BOND
   1    1    2 2
   2    1    9 1
   3    1    6 1
   4    2    3 1
   5    2   18 1
   6    3    4 2
   7    3   24 1
   8    4    5 1
   9    4   25 1
  10    5    6 am
  11    5    8 1
  12    6    7 2
  13    8   17 1
  14    8   26 1
  15    8   27 1
  16    9   10 3
  17   11   12 1
  18   11   16 1
  19   11   18 1
  20   12   13 1
  21   12   28 1
  22   12   29 1
  23   13   14 1
  24   13   30 1
  25   13   31 1
  26   14   15 1
  27   14   22 1
  28   15   16 1
  29   15   32 1
  30   15   33 1
  31   16   34 1
  32   16   35 1
  33   17   19 1
  34   17   36 1
  35   17   37 1
  36   18   38 1
  37   18   39 1
  38   19   20 1
  39   19   21 1
  40   19   40 1
  41   20   41 1
  42   20   42 1
  43   20   43 1
  44   21   44 1
  45   21   45 1
  46   21   46 1
  47   22   23 1
  48   23   47 1
  49   23   48 1
  50   23   49 1

#	End of record

