#	Name: ASD03731168
#	Creating user name:	WinNT
#	Creation time:	15. 06. 2019 20:45

#	Modifying user name:	WinNT
#	Modification time:	15. 06. 2019 20:45

#	Program:	/corina/corina34_cracker 3.40 0067  02.08.2006

@<TRIPOS>MOLECULE
ASD03731168
  57   62    0    0    0
SMALL
NO_CHARGES


@<TRIPOS>ATOM
   1 N1            -0.0162     1.3436     0.0094 N.am    
   2 C2            -0.1468     0.0022     0.0233 C.2     
   3 O3             0.8374    -0.7055    -0.0717 O.2     
   4 N4            -1.3683    -0.5548     0.1426 N.am    
   5 C5            -1.5102    -2.0128     0.1577 C.3     
   6 C6            -2.9885    -2.3798     0.3018 C.3     
   7 O7             1.4293    -7.7833     2.0270 O.3     
   8 C8             1.7197    -9.1768     2.2434 C.3     
   9 O9             0.5302    -9.6794     2.8800 O.3     
  10 C10           -0.4838    -8.8721     2.4501 C.ar    
  11 C11            0.0697    -7.7059     1.9265 C.ar    
  12 C12           -1.8567    -9.0412     2.4623 C.ar    
  13 C13           -2.6936    -8.0515     1.9556 C.ar    
  14 C14           -2.1293    -6.8873     1.4429 C.ar    
  15 C15           -0.7606    -6.7184     1.4237 C.ar    
  16 O16           -4.0538    -8.0257     1.8580 O.3     
  17 C17           -3.2737    -6.0126     1.0055 C.3     
  18 C18           -4.4912    -6.6655     1.6740 C.3     
  19 N19           -3.1305    -3.8378     0.3169 N.am    
  20 C20           -3.0956    -4.5857     1.4379 C.2     
  21 C21           -3.4151    -5.9614    -0.4868 C.ar    
  22 C22           -3.6030    -6.9192    -1.4581 C.ar    
  23 C23           -3.6989    -6.5485    -2.7876 C.ar    
  24 C24           -3.6049    -5.2140    -3.1385 C.ar    
  25 C25           -3.4157    -4.2510    -2.1694 C.ar    
  26 C26           -3.3185    -4.6150    -0.8286 C.ar    
  27 O27           -2.9496    -4.1846     2.5731 O.2     
  28 C28            1.2589     1.9230    -0.0005 C.ar    
  29 C29            1.4808     3.1031    -0.6978 C.ar    
  30 C30            2.7387     3.6731    -0.7060 C.ar    
  31 C31            3.7784     3.0685    -0.0194 C.ar    
  32 C32            3.5591     1.8918     0.6765 C.ar    
  33 C33            2.3011     1.3213     0.6915 C.ar    
  34 C34            2.9802     4.9536    -1.4630 C.3     
  35 F35            5.0083     3.6274    -0.0290 F       
  36 H36           -0.8053     1.9076     0.0023 H       
  37 H37           -2.1534     0.0098     0.2184 H       
  38 H38           -1.1225    -2.4253    -0.7738 H       
  39 H39           -0.9503    -2.4236     0.9979 H       
  40 H40           -3.3762    -1.9673     1.2333 H       
  41 H41           -3.5484    -1.9690    -0.5383 H       
  42 H42            1.8896    -9.6845     1.2939 H       
  43 H43            2.5826    -9.2908     2.8995 H       
  44 H44           -2.2820    -9.9474     2.8677 H       
  45 H45           -0.3353    -5.8133     1.0157 H       
  46 H46           -5.3612    -6.6239     1.0187 H       
  47 H47           -4.7050    -6.1944     2.6335 H       
  48 H48           -3.6760    -7.9608    -1.1818 H       
  49 H49           -3.8472    -7.2994    -3.5496 H       
  50 H50           -3.6796    -4.9247    -4.1764 H       
  51 H51           -3.3427    -3.2110    -2.4513 H       
  52 H52            0.6704     3.5747    -1.2337 H       
  53 H53            4.3712     1.4219     1.2113 H       
  54 H54            2.1294     0.4058     1.2381 H       
  55 H55            2.7985     5.8040    -0.8059 H       
  56 H56            4.0120     4.9793    -1.8136 H       
  57 H57            2.3049     5.0036    -2.3172 H       
@<TRIPOS>BOND
   1    1    2 am
   2    1   28 1
   3    1   36 1
   4    2    3 2
   5    2    4 am
   6    4    5 1
   7    4   37 1
   8    5    6 1
   9    5   38 1
  10    5   39 1
  11    6   19 1
  12    6   40 1
  13    6   41 1
  14    7    8 1
  15    7   11 1
  16    8    9 1
  17    8   42 1
  18    8   43 1
  19    9   10 1
  20   10   11 ar
  21   10   12 ar
  22   11   15 ar
  23   12   13 ar
  24   12   44 1
  25   13   14 ar
  26   13   16 1
  27   14   15 ar
  28   14   17 1
  29   15   45 1
  30   16   18 1
  31   17   18 1
  32   17   20 1
  33   17   21 1
  34   18   46 1
  35   18   47 1
  36   19   20 am
  37   19   26 1
  38   20   27 2
  39   21   22 ar
  40   21   26 ar
  41   22   23 ar
  42   22   48 1
  43   23   24 ar
  44   23   49 1
  45   24   25 ar
  46   24   50 1
  47   25   26 ar
  48   25   51 1
  49   28   29 ar
  50   28   33 ar
  51   29   30 ar
  52   29   52 1
  53   30   31 ar
  54   30   34 1
  55   31   32 ar
  56   31   35 1
  57   32   33 ar
  58   32   53 1
  59   33   54 1
  60   34   55 1
  61   34   56 1
  62   34   57 1

#	End of record

