#	Name: ASD03731281
#	Creating user name:	WinNT
#	Creation time:	15. 06. 2019 20:45

#	Modifying user name:	WinNT
#	Modification time:	15. 06. 2019 20:45

#	Program:	/corina/corina34_cracker 3.40 0067  02.08.2006

@<TRIPOS>MOLECULE
ASD03731281
  65   71    0    0    0
SMALL
NO_CHARGES


@<TRIPOS>ATOM
   1 N1             1.0063     0.2591     3.0468 N.am    
   2 C2             0.8115    -0.9729     2.5361 C.2     
   3 O3             1.7316    -1.7669     2.4962 O.2     
   4 N4            -0.4030    -1.3248     2.0698 N.am    
   5 C5            -0.5782    -2.5614     1.4343 C.ar    
   6 C6             0.4585    -3.1156     0.6954 C.ar    
   7 C7             0.2854    -4.3343     0.0698 C.ar    
   8 C8            -0.9241    -5.0051     0.1794 C.ar    
   9 C9            -1.9605    -4.4516     0.9172 C.ar    
  10 C10           -1.7866    -3.2356     1.5480 C.ar    
  11 O11           -1.0939    -6.2051    -0.4368 O.3     
  12 C12           -2.2552    -6.8759    -0.2180 C.ar    
  13 C13           -3.2575    -6.8616    -1.1774 C.ar    
  14 C14           -4.4369    -7.5447    -0.9527 C.ar    
  15 C15           -4.6191    -8.2424     0.2272 C.ar    
  16 C16           -3.6219    -8.2583     1.1849 C.ar    
  17 C17           -2.4385    -7.5811     0.9629 C.ar    
  18 C18            2.3265     0.6416     3.5537 C.3     
  19 C19            2.2763     2.0799     4.0730 C.3     
  20 O20            8.9640    -0.1888     2.7239 O.3     
  21 C21           10.3935    -0.1162     2.8793 C.3     
  22 O22           10.6634     1.2978     2.9073 O.3     
  23 C23            9.5238     1.8783     3.3862 C.ar    
  24 C24            8.4790     0.9640     3.2722 C.ar    
  25 C25            9.2899     3.1330     3.9198 C.ar    
  26 C26            8.0141     3.4921     4.3439 C.ar    
  27 C27            6.9768     2.5732     4.2173 C.ar    
  28 C28            7.2080     1.3193     3.6914 C.ar    
  29 O29            7.5777     4.6554     4.9066 O.3     
  30 C30            5.7354     3.2549     4.7275 C.3     
  31 C31            6.1442     4.7330     4.7859 C.3     
  32 N32            3.5966     2.4624     4.5799 N.am    
  33 C33            4.5552     3.0356     3.8253 C.2     
  34 C34            5.3111     2.7381     6.0702 C.ar    
  35 C35            5.9303     2.6569     7.2974 C.ar    
  36 C36            5.2583     2.1140     8.3781 C.ar    
  37 C37            3.9638     1.6527     8.2225 C.ar    
  38 C38            3.3396     1.7309     6.9950 C.ar    
  39 C39            4.0083     2.2763     5.9018 C.ar    
  40 O40            4.4793     3.3191     2.6485 O.2     
  41 H41            0.2734     0.8938     3.0750 H       
  42 H42           -1.1559    -0.7221     2.1741 H       
  43 H43            1.3999    -2.5933     0.6097 H       
  44 H44            1.0916    -4.7653    -0.5053 H       
  45 H45           -2.9021    -4.9739     1.0016 H       
  46 H46           -2.5919    -2.8071     2.1262 H       
  47 H47           -3.1159    -6.3165    -2.0990 H       
  48 H48           -5.2175    -7.5336    -1.6989 H       
  49 H49           -5.5421    -8.7756     0.4011 H       
  50 H50           -3.7667    -8.8040     2.1056 H       
  51 H51           -1.6582    -7.5975     1.7094 H       
  52 H52            2.6122    -0.0279     4.3650 H       
  53 H53            3.0589     0.5710     2.7495 H       
  54 H54            1.9907     2.7494     3.2617 H       
  55 H55            1.5439     2.1504     4.8772 H       
  56 H56           10.7013    -0.5834     3.8148 H       
  57 H57           10.8951    -0.5851     2.0327 H       
  58 H58           10.1029     3.8385     4.0078 H       
  59 H59            6.3956     0.6129     3.6060 H       
  60 H60            5.7082     5.2211     5.6576 H       
  61 H61            5.8603     5.2497     3.8691 H       
  62 H62            6.9413     3.0176     7.4165 H       
  63 H63            5.7434     2.0510     9.3410 H       
  64 H64            3.4393     1.2288     9.0661 H       
  65 H65            2.3288     1.3681     6.8813 H       
@<TRIPOS>BOND
   1    1    2 am
   2    1   18 1
   3    1   41 1
   4    2    3 2
   5    2    4 am
   6    4    5 1
   7    4   42 1
   8    5    6 ar
   9    5   10 ar
  10    6    7 ar
  11    6   43 1
  12    7    8 ar
  13    7   44 1
  14    8    9 ar
  15    8   11 1
  16    9   10 ar
  17    9   45 1
  18   10   46 1
  19   11   12 1
  20   12   13 ar
  21   12   17 ar
  22   13   14 ar
  23   13   47 1
  24   14   15 ar
  25   14   48 1
  26   15   16 ar
  27   15   49 1
  28   16   17 ar
  29   16   50 1
  30   17   51 1
  31   18   19 1
  32   18   52 1
  33   18   53 1
  34   19   32 1
  35   19   54 1
  36   19   55 1
  37   20   21 1
  38   20   24 1
  39   21   22 1
  40   21   56 1
  41   21   57 1
  42   22   23 1
  43   23   24 ar
  44   23   25 ar
  45   24   28 ar
  46   25   26 ar
  47   25   58 1
  48   26   27 ar
  49   26   29 1
  50   27   28 ar
  51   27   30 1
  52   28   59 1
  53   29   31 1
  54   30   31 1
  55   30   33 1
  56   30   34 1
  57   31   60 1
  58   31   61 1
  59   32   33 am
  60   32   39 1
  61   33   40 2
  62   34   35 ar
  63   34   39 ar
  64   35   36 ar
  65   35   62 1
  66   36   37 ar
  67   36   63 1
  68   37   38 ar
  69   37   64 1
  70   38   39 ar
  71   38   65 1

#	End of record

