#	Name: ASD01912388
#	Creating user name:	WinNT
#	Creation time:	15. 06. 2019 19:59

#	Modifying user name:	WinNT
#	Modification time:	15. 06. 2019 19:59

#	Program:	/corina/corina34_cracker 3.40 0067  02.08.2006

@<TRIPOS>MOLECULE
ASD01912388
  47   49    0    0    0
SMALL
NO_CHARGES


@<TRIPOS>ATOM
   1 C1             0.7478     1.3931    -1.4636 C.ar    
   2 C2             0.7092    -0.0057    -1.3430 C.ar    
   3 C3             1.8988    -0.7283    -1.4928 C.ar    
   4 C4             3.0645    -0.0283    -1.7540 C.ar    
   5 C5             3.0212     1.3494    -1.8585 C.ar    
   6 N6             1.8881     2.0111    -1.7137 N.ar    
   7 C7            -0.5244    -0.6803    -1.0715 C.1     
   8 C8            -1.5358    -1.2333    -0.8488 C.1     
   9 C9            -2.7694    -1.9079    -0.5772 C.2     
  10 N10           -2.9947    -5.9494    -1.1363 N.3     
  11 C11           -4.2094    -5.1258    -1.1825 C.3     
  12 C12           -4.0824    -3.9744    -0.1784 C.3     
  13 C13           -2.7922    -3.2354    -0.4652 C.2     
  14 C14           -1.5287    -4.0555    -0.6210 C.3     
  15 C15           -1.8179    -5.2018    -1.5970 C.3     
  16 C16           -3.1585    -7.1202    -1.8672 C.ar    
  17 C17           -2.5761    -8.3011    -1.4175 C.ar    
  18 C18           -2.7475    -9.4588    -2.1544 C.ar    
  19 C19           -3.4987    -9.3968    -3.3209 C.ar    
  20 C20           -4.0479    -8.1912    -3.7081 C.ar    
  21 N21           -3.8720    -7.1031    -2.9824 N.ar    
  22 N22           -1.8503    -8.3165    -0.2733 N.pl3   
  23 O23           -1.2578    -9.3276     0.0584 O.2     
  24 O24           -1.7905    -7.3192     0.4234 O.2     
  25 O25           -0.3930     2.1129    -1.3280 O.3     
  26 C26           -0.2849     3.5315    -1.4620 C.3     
  27 C27           -1.6643     4.1677    -1.2790 C.3     
  28 H28            1.9072    -1.8048    -1.4063 H       
  29 H29            3.9999    -0.5543    -1.8749 H       
  30 H30            3.9310     1.8944    -2.0624 H       
  31 H31           -3.6813    -1.3407    -0.4631 H       
  32 H32           -4.3357    -4.7205    -2.1864 H       
  33 H33           -5.0738    -5.7383    -0.9260 H       
  34 H34           -4.9276    -3.2951    -0.2894 H       
  35 H35           -4.0605    -4.3722     0.8361 H       
  36 H36           -0.7298    -3.4285    -1.0168 H       
  37 H37           -1.2328    -4.4620     0.3461 H       
  38 H38           -0.9570    -5.8690    -1.6395 H       
  39 H39           -2.0116    -4.7943    -2.5892 H       
  40 H40           -2.3070   -10.3900    -1.8301 H       
  41 H41           -3.6511   -10.2829    -3.9192 H       
  42 H42           -4.6324    -8.1385    -4.6147 H       
  43 H43            0.3966     3.9172    -0.7038 H       
  44 H44            0.0988     3.7746    -2.4529 H       
  45 H45           -2.0480     3.9245    -0.2882 H       
  46 H46           -1.5818     5.2497    -1.3812 H       
  47 H47           -2.3458     3.7820    -2.0372 H       
@<TRIPOS>BOND
   1    1    2 ar
   2    1    6 ar
   3    1   25 1
   4    2    3 ar
   5    2    7 1
   6    3    4 ar
   7    3   28 1
   8    4    5 ar
   9    4   29 1
  10    5    6 ar
  11    5   30 1
  12    7    8 3
  13    8    9 1
  14    9   13 2
  15    9   31 1
  16   10   11 1
  17   10   15 1
  18   10   16 1
  19   11   12 1
  20   11   32 1
  21   11   33 1
  22   12   13 1
  23   12   34 1
  24   12   35 1
  25   13   14 1
  26   14   15 1
  27   14   36 1
  28   14   37 1
  29   15   38 1
  30   15   39 1
  31   16   17 ar
  32   16   21 ar
  33   17   18 ar
  34   17   22 1
  35   18   19 ar
  36   18   40 1
  37   19   20 ar
  38   19   41 1
  39   20   21 ar
  40   20   42 1
  41   22   23 2
  42   22   24 2
  43   25   26 1
  44   26   27 1
  45   26   43 1
  46   26   44 1
  47   27   45 1
  48   27   46 1
  49   27   47 1

#	End of record

