#	Name: ASD02030534
#	Creating user name:	WinNT
#	Creation time:	15. 06. 2019 20:15

#	Modifying user name:	WinNT
#	Modification time:	15. 06. 2019 20:15

#	Program:	/corina/corina34_cracker 3.40 0067  02.08.2006

@<TRIPOS>MOLECULE
ASD02030534
  54   57    0    0    0
SMALL
NO_CHARGES


@<TRIPOS>ATOM
   1 N1            -0.3641     1.4718    -0.3604 N.am    
   2 C2            -0.3713     0.0028    -0.3207 C.3     
   3 C3            -1.1577    -0.4503     0.9156 C.3     
   4 N4            -2.4411     0.2653     0.9440 N.am    
   5 C5            -2.4339     1.7344     0.9043 C.3     
   6 C6            -1.6472     2.1876    -0.3263 C.3     
   7 C7             0.7986     2.1507    -0.4212 C.2     
   8 C8             2.0837     1.4255    -0.3296 C.2     
   9 N9             3.2779     1.9731    -0.2606 N.2     
  10 N10            2.2376     0.0891    -0.2962 N.2     
  11 C11            3.5210    -0.1526    -0.2125 C.2     
  12 N12            4.1591     1.0356    -0.1912 N.pl3   
  13 O13            0.7907     3.3593    -0.5515 O.2     
  14 C14           -3.6038    -0.4136     1.0048 C.2     
  15 C15           -3.6011    -1.8940     0.9481 C.ar    
  16 O16           -4.6544     0.1886     1.1063 O.2     
  17 C17           -1.3944     3.6945    -0.2479 C.3     
  18 C18           -2.4421     1.8620    -1.5925 C.3     
  19 C19            5.5459     1.2193    -0.1080 C.ar    
  20 C20            6.0779     2.5013    -0.0947 C.ar    
  21 C21            7.4465     2.6792    -0.0121 C.ar    
  22 C22            8.2849     1.5805     0.0567 C.ar    
  23 C23            7.7568     0.3026     0.0436 C.ar    
  24 C24            6.3902     0.1192    -0.0330 C.ar    
  25 C25           -4.4943    -2.5829     0.1224 C.ar    
  26 C26           -4.4572    -3.9639     0.1004 C.ar    
  27 N27           -3.5960    -4.6297     0.8434 N.ar    
  28 C28           -2.7369    -4.0193     1.6354 C.ar    
  29 C29           -2.7010    -2.6408     1.7146 C.ar    
  30 C30           -5.4148    -4.7192    -0.7848 C.3     
  31 F31           -4.8331    -4.9136    -2.0422 F       
  32 F32           -5.7034    -5.9604    -0.2075 F       
  33 Cl33           8.1135     4.2819     0.0047 Cl      
  34 F34           -6.5970    -3.9846    -0.9265 F       
  35 H35           -0.8488    -0.3851    -1.2205 H       
  36 H36            0.6524    -0.3665    -0.2587 H       
  37 H37           -1.3386    -1.5238     0.8610 H       
  38 H38           -0.5893    -0.2179     1.8161 H       
  39 H39           -3.4575     2.1037     0.8423 H       
  40 H40           -1.9563     2.1223     1.8041 H       
  41 H41            3.9850    -1.1268    -0.1659 H       
  42 H42           -0.7350     3.9090     0.5931 H       
  43 H43           -0.9261     4.0330    -1.1722 H       
  44 H44           -2.3418     4.2151    -0.1088 H       
  45 H45           -3.4000     2.3812    -1.5637 H       
  46 H46           -1.8794     2.1859    -2.4680 H       
  47 H47           -2.6130     0.7869    -1.6477 H       
  48 H48            5.4236     3.3588    -0.1492 H       
  49 H49            9.3538     1.7214     0.1205 H       
  50 H50            8.4136    -0.5530     0.0971 H       
  51 H51            5.9787    -0.8793    -0.0429 H       
  52 H52           -5.2030    -2.0438    -0.4888 H       
  53 H53           -2.0490    -4.6050     2.2272 H       
  54 H54           -1.9945    -2.1474     2.3657 H       
@<TRIPOS>BOND
   1    1    2 1
   2    1    7 am
   3    1    6 1
   4    2    3 1
   5    2   35 1
   6    2   36 1
   7    3    4 1
   8    3   37 1
   9    3   38 1
  10    4    5 1
  11    4   14 am
  12    5    6 1
  13    5   39 1
  14    5   40 1
  15    6   17 1
  16    6   18 1
  17    7    8 1
  18    7   13 2
  19    8    9 2
  20    8   10 1
  21    9   12 1
  22   10   11 2
  23   11   12 1
  24   11   41 1
  25   12   19 1
  26   14   15 1
  27   14   16 2
  28   15   25 ar
  29   15   29 ar
  30   17   42 1
  31   17   43 1
  32   17   44 1
  33   18   45 1
  34   18   46 1
  35   18   47 1
  36   19   20 ar
  37   19   24 ar
  38   20   21 ar
  39   20   48 1
  40   21   22 ar
  41   21   33 1
  42   22   23 ar
  43   22   49 1
  44   23   24 ar
  45   23   50 1
  46   24   51 1
  47   25   26 ar
  48   25   52 1
  49   26   27 ar
  50   26   30 1
  51   27   28 ar
  52   28   29 ar
  53   28   53 1
  54   29   54 1
  55   30   31 1
  56   30   34 1
  57   30   32 1

#	End of record

