#	Name: ASD02030622
#	Creating user name:	WinNT
#	Creation time:	15. 06. 2019 20:15

#	Modifying user name:	WinNT
#	Modification time:	15. 06. 2019 20:15

#	Program:	/corina/corina34_cracker 3.40 0067  02.08.2006

@<TRIPOS>MOLECULE
ASD02030622
  64   67    0    0    0
SMALL
NO_CHARGES


@<TRIPOS>ATOM
   1 C1            -0.3619     0.2651     0.0200 C.ar    
   2 C2            -0.3726    -1.0491     0.4365 C.ar    
   3 C3             0.8089    -1.6483     0.8492 C.ar    
   4 C4             1.9856    -0.9198     0.8444 C.ar    
   5 C5             1.9931     0.4061     0.4305 C.ar    
   6 C6             0.8205     0.9936     0.0104 C.ar    
   7 C7             0.7639     2.4178    -0.4828 C.3     
   8 C8             3.3049     1.1444     0.4793 C.3     
   9 C9             3.2735     2.3701    -0.4322 C.3     
  10 N10            2.0235     3.1002    -0.1679 N.am    
  11 C11            0.5465     2.4238    -1.9973 C.3     
  12 O12            1.5631     1.6420    -2.6276 O.3     
  13 C13            1.5149     1.5436    -3.9830 C.ar    
  14 C14            2.0359     4.3469     0.3439 C.2     
  15 O15            0.9970     4.9681     0.4565 O.2     
  16 C16            3.3117     4.9584     0.7680 C.ar    
  17 C17            1.4165     1.3429    -6.7422 C.ar    
  18 C18            0.4640     2.0915    -6.0669 C.ar    
  19 C19            0.5129     2.1914    -4.6901 C.ar    
  20 C20            2.4711     0.8002    -4.6588 C.ar    
  21 C21            2.4222     0.7002    -6.0356 C.ar    
  22 C22            3.6421     6.2527     0.3547 C.ar    
  23 C23            4.1915     4.2490     1.5884 C.ar    
  24 C24            5.3804     4.8257     1.9811 C.ar    
  25 C25            5.7049     6.1059     1.5651 C.ar    
  26 C26            4.8388     6.8178     0.7570 C.ar    
  27 O27            1.3683     1.2446    -8.0976 O.3     
  28 C28            2.3811     0.4574    -8.7274 C.3     
  29 C29            2.1643     0.4642   -10.2419 C.3     
  30 O30            0.8106    -2.9448     1.2568 O.3     
  31 C31           -0.4587    -3.5921     1.3661 C.3     
  32 C32           -0.8425    -4.1939     0.0128 C.3     
  33 C33           -0.3756    -4.7041     2.4136 C.3     
  34 F34            2.7955     6.9488    -0.4352 F       
  35 H35           -1.2802     0.7308    -0.3058 H       
  36 H36           -1.2960    -1.6092     0.4418 H       
  37 H37            2.9055    -1.3858     1.1654 H       
  38 H38           -0.0616     2.9375     0.0035 H       
  39 H39            3.4985     1.4639     1.5032 H       
  40 H40            4.1039     0.4773     0.1555 H       
  41 H41            4.1280     3.0116    -0.2170 H       
  42 H42            3.3017     2.0548    -1.4752 H       
  43 H43           -0.4315     2.0002    -2.2256 H       
  44 H44            0.5942     3.4480    -2.3671 H       
  45 H45           -0.3191     2.5919    -6.6171 H       
  46 H46           -0.2293     2.7736    -4.1642 H       
  47 H47            3.2542     0.2997    -4.1085 H       
  48 H48            3.1639     0.1173    -6.5614 H       
  49 H49            3.9406     3.2506     1.9150 H       
  50 H50            6.0609     4.2773     2.6156 H       
  51 H51            6.6379     6.5517     1.8767 H       
  52 H52            5.0966     7.8174     0.4394 H       
  53 H53            3.3612     0.8759    -8.4988 H       
  54 H54            2.3279    -0.5665    -8.3574 H       
  55 H55            1.1841     0.0457   -10.4706 H       
  56 H56            2.2174     1.4881   -10.6119 H       
  57 H57            2.9368    -0.1363   -10.7223 H       
  58 H58           -1.2127    -2.8648     1.6672 H       
  59 H59           -0.9017    -3.4017    -0.7335 H       
  60 H60           -0.0885    -4.9212    -0.2884 H       
  61 H61           -1.8107    -4.6877     0.0961 H       
  62 H62           -0.1022    -4.2754     3.3777 H       
  63 H63           -1.3438    -5.1979     2.4970 H       
  64 H64            0.3784    -5.4314     2.1125 H       
@<TRIPOS>BOND
   1    1    2 ar
   2    1    6 ar
   3    1   35 1
   4    2    3 ar
   5    2   36 1
   6    3    4 ar
   7    3   30 1
   8    4    5 ar
   9    4   37 1
  10    5    6 ar
  11    5    8 1
  12    6    7 1
  13    7   10 1
  14    7   11 1
  15    7   38 1
  16    8    9 1
  17    8   39 1
  18    8   40 1
  19    9   10 1
  20    9   41 1
  21    9   42 1
  22   10   14 am
  23   11   12 1
  24   11   43 1
  25   11   44 1
  26   12   13 1
  27   13   20 ar
  28   13   19 ar
  29   14   15 2
  30   14   16 1
  31   16   23 ar
  32   16   22 ar
  33   17   18 ar
  34   17   21 ar
  35   17   27 1
  36   18   19 ar
  37   18   45 1
  38   19   46 1
  39   20   21 ar
  40   20   47 1
  41   21   48 1
  42   22   26 ar
  43   22   34 1
  44   23   24 ar
  45   23   49 1
  46   24   25 ar
  47   24   50 1
  48   25   26 ar
  49   25   51 1
  50   26   52 1
  51   27   28 1
  52   28   29 1
  53   28   53 1
  54   28   54 1
  55   29   55 1
  56   29   56 1
  57   29   57 1
  58   30   31 1
  59   31   32 1
  60   31   33 1
  61   31   58 1
  62   32   59 1
  63   32   60 1
  64   32   61 1
  65   33   62 1
  66   33   63 1
  67   33   64 1

#	End of record

