#	Name: ASD01811614
#	Creating user name:	WinNT
#	Creation time:	15. 06. 2019 19:27

#	Modifying user name:	WinNT
#	Modification time:	15. 06. 2019 19:27

#	Program:	/corina/corina34_cracker 3.40 0067  02.08.2006

@<TRIPOS>MOLECULE
ASD01811614
  73   77    0    0    0
SMALL
NO_CHARGES


@<TRIPOS>ATOM
   1 C1            -0.8358     1.5267    -1.2930 C.3     
   2 C2            -0.6151     0.0676    -0.9799 C.2     
   3 C3             0.5845    -0.5528    -1.0571 C.2     
   4 C4             1.8697     0.1282    -1.4589 C.3     
   5 C5             1.5314     1.4407    -2.1762 C.3     
   6 N6             0.4933     2.1530    -1.4162 N.am    
   7 C7            -0.8544    -2.0376    -0.4290 C.2     
   8 N8            -1.5286    -0.8586    -0.5815 N.pl3   
   9 N9             0.4129    -1.8321    -0.7202 N.2     
  10 S10            0.8085     3.6211    -0.7179 S.o2    
  11 O11            1.8944     4.1845    -1.4407 O.2     
  12 O12           -0.4459     4.2716    -0.5677 O.2     
  13 N13            1.3683     3.3259     0.8124 N.am    
  14 C14            2.8040     3.1511     1.0461 C.3     
  15 C15            0.4280     3.2396     1.9325 C.3     
  16 C16           -1.4477    -3.3256    -0.0079 C.ar    
  17 C17           -0.6769    -4.4900    -0.0252 C.ar    
  18 C18           -1.2290    -5.6931     0.3675 C.ar    
  19 C19           -2.5454    -5.7537     0.7801 C.ar    
  20 C20           -3.3273    -4.5969     0.8022 C.ar    
  21 C21           -2.7744    -3.3786     0.4121 C.ar    
  22 C22           -3.1396    -7.0712     1.2070 C.3     
  23 C23            0.7606    -4.4334    -0.4740 C.3     
  24 C24           -4.7370    -4.6636     1.2434 C.2     
  25 O25           -5.0243    -5.2377     2.2755 O.2     
  26 N26           -5.7034    -4.0878     0.5010 N.am    
  27 C27           -7.0893    -4.0364     0.9860 C.3     
  28 C28           -8.0084    -4.6354    -0.0833 C.3     
  29 C29           -7.7799    -3.9099    -1.4112 C.3     
  30 C30           -6.3289    -4.1042    -1.8575 C.3     
  31 C31           -5.3898    -3.4942    -0.8059 C.3     
  32 C32           -8.7067    -4.4736    -2.4573 C.ar    
  33 C33           -9.6253    -3.6477    -3.0805 C.ar    
  34 C34          -10.4767    -4.1571    -4.0390 C.ar    
  35 C35          -10.4096    -5.5095    -4.3800 C.ar    
  36 C36           -9.4798    -6.3371    -3.7474 C.ar    
  37 C37           -8.6312    -5.8135    -2.7941 C.ar    
  38 C38          -11.2906    -6.0452    -5.3737 C.1     
  39 N39          -11.9895    -6.4703    -6.1619 N.1     
  40 H40           -1.3813     1.6264    -2.2314 H       
  41 H41           -1.3951     1.9991    -0.4855 H       
  42 H42            2.4639     0.3404    -0.5700 H       
  43 H43            2.4323    -0.5205    -2.1303 H       
  44 H44            2.4253     2.0610    -2.2413 H       
  45 H45            1.1641     1.2233    -3.1792 H       
  46 H46           -2.4758    -0.7106    -0.4338 H       
  47 H47            3.2571     4.1183     1.2635 H       
  48 H48            2.9554     2.4806     1.8921 H       
  49 H49            3.2676     2.7244     0.1567 H       
  50 H50            0.0977     2.2076     2.0508 H       
  51 H51            0.9206     3.5705     2.8468 H       
  52 H52           -0.4339     3.8763     1.7332 H       
  53 H53           -0.6287    -6.5907     0.3515 H       
  54 H54           -3.3735    -2.4802     0.4315 H       
  55 H55           -2.9280    -7.2401     2.2629 H       
  56 H56           -4.2183    -7.0507     1.0514 H       
  57 H57           -2.7024    -7.8756     0.6156 H       
  58 H58            1.3886    -4.1145     0.3578 H       
  59 H59            1.0758    -5.4216    -0.8092 H       
  60 H60            0.8571    -3.7233    -1.2953 H       
  61 H61           -7.1758    -4.6131     1.9069 H       
  62 H62           -7.3728    -3.0007     1.1730 H       
  63 H63           -7.7835    -5.6950    -0.2042 H       
  64 H64           -9.0479    -4.5162     0.2223 H       
  65 H65           -7.9811    -2.8463    -1.2833 H       
  66 H66           -6.1198    -5.1688    -1.9618 H       
  67 H67           -6.1731    -3.6069    -2.8149 H       
  68 H68           -5.5375    -2.4152    -0.7620 H       
  69 H69           -4.3545    -3.7130    -1.0677 H       
  70 H70           -9.6761    -2.6019    -2.8158 H       
  71 H71          -11.1937    -3.5115    -4.5242 H       
  72 H72           -9.4226    -7.3841    -4.0064 H       
  73 H73           -7.9088    -6.4516    -2.3070 H       
@<TRIPOS>BOND
   1    1    2 1
   2    1    6 1
   3    1   40 1
   4    1   41 1
   5    2    3 2
   6    2    8 1
   7    3    4 1
   8    3    9 1
   9    4    5 1
  10    4   42 1
  11    4   43 1
  12    5    6 1
  13    5   44 1
  14    5   45 1
  15    6   10 am
  16    7    8 1
  17    7    9 2
  18    7   16 1
  19    8   46 1
  20   10   11 2
  21   10   12 2
  22   10   13 am
  23   13   14 1
  24   13   15 1
  25   14   47 1
  26   14   48 1
  27   14   49 1
  28   15   50 1
  29   15   51 1
  30   15   52 1
  31   16   17 ar
  32   16   21 ar
  33   17   18 ar
  34   17   23 1
  35   18   19 ar
  36   18   53 1
  37   19   20 ar
  38   19   22 1
  39   20   21 ar
  40   20   24 1
  41   21   54 1
  42   22   55 1
  43   22   56 1
  44   22   57 1
  45   23   58 1
  46   23   59 1
  47   23   60 1
  48   24   25 2
  49   24   26 am
  50   26   27 1
  51   26   31 1
  52   27   28 1
  53   27   61 1
  54   27   62 1
  55   28   29 1
  56   28   63 1
  57   28   64 1
  58   29   30 1
  59   29   32 1
  60   29   65 1
  61   30   31 1
  62   30   66 1
  63   30   67 1
  64   31   68 1
  65   31   69 1
  66   32   33 ar
  67   32   37 ar
  68   33   34 ar
  69   33   70 1
  70   34   35 ar
  71   34   71 1
  72   35   36 ar
  73   35   38 1
  74   36   37 ar
  75   36   72 1
  76   37   73 1
  77   38   39 3

#	End of record

