#	Name: ASD04910110
#	Creating user name:	WinNT
#	Creation time:	15. 06. 2019 20:55

#	Modifying user name:	WinNT
#	Modification time:	15. 06. 2019 20:55

#	Program:	/corina/corina34_cracker 3.40 0067  02.08.2006

@<TRIPOS>MOLECULE
ASD04910110
  24   25    0    0    0
SMALL
NO_CHARGES


@<TRIPOS>ATOM
   1 N1            -0.0169     1.3967     0.0097 N.pl3   
   2 N2             0.0021    -0.0041     0.0020 N.2     
   3 C3             1.2506    -0.3963    -0.0120 C.2     
   4 C4             2.0668     0.7402    -0.0137 C.2     
   5 C5             1.2641     1.8296    -0.0002 C.2     
   6 C6             3.5737     0.7495    -0.0280 C.3     
   7 F7             4.0480    -0.5666    -0.0402 F       
   8 F8             4.0251     1.4184    -1.1708 F       
   9 F9             4.0469     1.4052     1.1136 F       
  10 C10           -1.1613     2.2062     0.0198 C.ar    
  11 C11           -2.4231     1.6269     0.0234 C.ar    
  12 C12           -3.5488     2.4272     0.0333 C.ar    
  13 C13           -3.4200     3.8040     0.0396 C.ar    
  14 C14           -2.1647     4.3838     0.0360 C.ar    
  15 C15           -1.0352     3.5888     0.0319 C.ar    
  16 N16           -4.6284     4.6588     0.0497 N.pl3   
  17 O17           -5.7348     4.1493     0.0525 O.2     
  18 O18           -4.5164     5.8716     0.0552 O.2     
  19 H19            1.5921    -1.4208    -0.0202 H       
  20 H20            1.5884     2.8598     0.0019 H       
  21 H21           -2.5243     0.5517     0.0182 H       
  22 H22           -4.5306     1.9772     0.0358 H       
  23 H23           -2.0673     5.4594     0.0406 H       
  24 H24           -0.0550     4.0422     0.0339 H       
@<TRIPOS>BOND
   1    1    2 1
   2    1    5 1
   3    1   10 1
   4    2    3 2
   5    3    4 1
   6    3   19 1
   7    4    5 2
   8    4    6 1
   9    5   20 1
  10    6    7 1
  11    6    8 1
  12    6    9 1
  13   10   11 ar
  14   10   15 ar
  15   11   12 ar
  16   11   21 1
  17   12   13 ar
  18   12   22 1
  19   13   14 ar
  20   13   16 1
  21   14   15 ar
  22   14   23 1
  23   15   24 1
  24   16   17 2
  25   16   18 2

#	End of record

