#	Name: ASD09720064
#	Creating user name:	WinNT
#	Creation time:	15. 06. 2019 21:22

#	Modifying user name:	WinNT
#	Modification time:	15. 06. 2019 21:22

#	Program:	/corina/corina34_cracker 3.40 0067  02.08.2006

@<TRIPOS>MOLECULE
ASD09720064
  39   40    0    0    0
SMALL
NO_CHARGES


@<TRIPOS>ATOM
   1 C1             0.0171     1.5123    -0.1122 C.2     
   2 C2             0.0829     0.0699    -0.3911 C.2     
   3 N3             1.2186    -0.4830    -0.6789 N.2     
   4 C4            -1.1707    -0.7650    -0.3420 C.3     
   5 O5             2.3965     0.3015    -0.7251 O.3     
   6 S6            -0.7792    -2.4720    -0.8146 S.3     
   7 C7            -2.3394    -3.2827    -0.7004 C.ar    
   8 C8            -2.4440    -4.6368    -0.9948 C.ar    
   9 C9            -3.6684    -5.2688    -0.9043 C.ar    
  10 C10           -4.7899    -4.5557    -0.5216 C.ar    
  11 C11           -4.6897    -3.2079    -0.2282 C.ar    
  12 C12           -3.4674    -2.5707    -0.3102 C.ar    
  13 C13            1.0891     2.3650     0.0557 C.2     
  14 C14            0.5813     3.6393     0.3008 C.2     
  15 N15           -0.7265     3.5812     0.2859 N.2     
  16 N16           -1.1165     2.2620     0.0235 N.pl3   
  17 C17           -2.4934     1.7720    -0.0772 C.3     
  18 C18           -2.9328     1.7831    -1.5427 C.3     
  19 C19           -4.3709     1.2713    -1.6478 C.3     
  20 C20            1.4021     4.8796     0.5439 C.3     
  21 F21            1.6605     5.5142    -0.6759 F       
  22 F22            0.6959     5.7494     1.3817 F       
  23 F23            2.6118     4.5266     1.1513 F       
  24 H24           -1.5765    -0.7520     0.6696 H       
  25 H25           -1.9069    -0.3561    -1.0340 H       
  26 H26            3.1936    -0.1985    -0.9479 H       
  27 H27           -1.5688    -5.1941    -1.2945 H       
  28 H28           -3.7504    -6.3211    -1.1330 H       
  29 H29           -5.7463    -5.0525    -0.4519 H       
  30 H30           -5.5677    -2.6541     0.0700 H       
  31 H31           -3.3899    -1.5182    -0.0810 H       
  32 H32            2.1332     2.0936     0.0067 H       
  33 H33           -2.5463     0.7546     0.3103 H       
  34 H34           -3.1520     2.4170     0.5045 H       
  35 H35           -2.8800     2.8005    -1.9301 H       
  36 H36           -2.2742     1.1381    -2.1243 H       
  37 H37           -4.4237     0.2539    -1.2603 H       
  38 H38           -5.0295     1.9163    -1.0661 H       
  39 H39           -4.6839     1.2792    -2.6918 H       
@<TRIPOS>BOND
   1    1    2 1
   2    1   13 2
   3    1   16 1
   4    2    3 2
   5    2    4 1
   6    3    5 1
   7    4    6 1
   8    4   24 1
   9    4   25 1
  10    5   26 1
  11    6    7 1
  12    7    8 ar
  13    7   12 ar
  14    8    9 ar
  15    8   27 1
  16    9   10 ar
  17    9   28 1
  18   10   11 ar
  19   10   29 1
  20   11   12 ar
  21   11   30 1
  22   12   31 1
  23   13   14 1
  24   13   32 1
  25   14   15 2
  26   14   20 1
  27   15   16 1
  28   16   17 1
  29   17   18 1
  30   17   33 1
  31   17   34 1
  32   18   19 1
  33   18   35 1
  34   18   36 1
  35   19   37 1
  36   19   38 1
  37   19   39 1
  38   20   21 1
  39   20   22 1
  40   20   23 1

#	End of record

