#	Name: ASD00069184
#	Creating user name:	WinNT
#	Creation time:	15. 06. 2019 18:29

#	Modifying user name:	WinNT
#	Modification time:	15. 06. 2019 18:29

#	Program:	/corina/corina34_cracker 3.40 0067  02.08.2006

@<TRIPOS>MOLECULE
ASD00069184
  70   74    0    0    0
SMALL
NO_CHARGES


@<TRIPOS>ATOM
   1 C1             0.6548     0.4719     0.0355 C.2     
   2 N2             0.4809    -0.7071     0.5902 N.2     
   3 C3             1.6692    -1.3126     0.7094 C.2     
   4 C4             2.6240    -0.4729     0.2068 C.2     
   5 N5             1.9883     0.6430    -0.2145 N.pl3   
   6 C6            -0.4101     1.4441    -0.2714 C.2     
   7 O7            -0.1308     2.5091    -0.7881 O.2     
   8 N8            -1.6932     1.1528     0.0207 N.am    
   9 C9             1.1145    -4.6759     2.2996 C.ar    
  10 C10            0.8481    -3.4295     1.7717 C.ar    
  11 C11            1.9079    -2.6581     1.2862 C.ar    
  12 C12            3.1991    -3.1896     1.3588 C.ar    
  13 C13            3.3765    -4.4447     1.9022 C.ar    
  14 N14            2.3483    -5.1406     2.3495 N.ar    
  15 C15           -0.0181    -5.5153     2.8321 C.3     
  16 C16           -2.6884     2.1227    -0.1527 C.ar    
  17 C17           -3.9974     1.7376    -0.4393 C.ar    
  18 C18           -4.9793     2.7044    -0.6100 C.ar    
  19 C19           -4.6562     4.0455    -0.4954 C.ar    
  20 C20           -3.3575     4.4257    -0.2115 C.ar    
  21 C21           -2.3756     3.4690    -0.0340 C.ar    
  22 F22           -6.2491     2.3364    -0.8883 F       
  23 N23           -4.3209     0.3796    -0.5551 N.3     
  24 C24           -5.3367    -0.0056     0.4329 C.3     
  25 C25           -5.5584    -1.5187     0.3752 C.3     
  26 C26           -6.0153    -1.9093    -1.0331 C.3     
  27 C27           -4.9625    -1.4540    -2.0474 C.3     
  28 C28           -4.7580     0.0573    -1.9195 C.3     
  29 C29           -6.1776    -3.4054    -1.1130 C.2     
  30 O30           -5.6212    -4.1197    -0.3061 O.2     
  31 N31           -6.9412    -3.9497    -2.0811 N.am    
  32 C32           -7.2290    -5.3927    -2.0974 C.3     
  33 C33           -6.9097    -5.9336    -3.4958 C.3     
  34 O34           -7.5867    -5.1401    -4.4733 O.3     
  35 C35           -7.1789    -3.7701    -4.4996 C.3     
  36 C36           -7.5167    -3.1175    -3.1495 C.3     
  37 C37           -6.3589    -6.1035    -1.0589 C.3     
  38 N38           -6.8125    -5.7411     0.2905 N.3     
  39 H39            3.6857    -0.6648     0.1564 H       
  40 H40            2.4016     1.4213    -0.6198 H       
  41 H41           -1.9273     0.2713     0.3509 H       
  42 H42           -0.1643    -3.0554     1.7336 H       
  43 H43            4.0451    -2.6257     0.9943 H       
  44 H44            4.3701    -4.8637     1.9622 H       
  45 H45           -0.4166    -6.1381     2.0312 H       
  46 H46            0.3484    -6.1507     3.6384 H       
  47 H47           -0.8055    -4.8642     3.2120 H       
  48 H48           -5.4206     4.7969    -0.6283 H       
  49 H49           -3.1104     5.4734    -0.1234 H       
  50 H50           -1.3634     3.7700     0.1923 H       
  51 H51           -4.9975     0.2740     1.4303 H       
  52 H52           -6.2724     0.5073     0.2106 H       
  53 H53           -4.6264    -2.0323     0.6110 H       
  54 H54           -6.3237    -1.8022     1.0978 H       
  55 H55           -6.9671    -1.4264    -1.2543 H       
  56 H56           -4.0211    -1.9666    -1.8497 H       
  57 H57           -5.3020    -1.6912    -3.0556 H       
  58 H58           -5.6965     0.5699    -2.1308 H       
  59 H59           -3.9986     0.3825    -2.6305 H       
  60 H60           -8.2820    -5.5596    -1.8709 H       
  61 H61           -5.8345    -5.8847    -3.6683 H       
  62 H62           -7.2445    -6.9681    -3.5712 H       
  63 H63           -6.1048    -3.7133    -4.6758 H       
  64 H64           -7.7076    -3.2481    -5.2973 H       
  65 H65           -8.5982    -3.0592    -3.0271 H       
  66 H66           -7.0874    -2.1165    -3.1067 H       
  67 H67           -6.4415    -7.1821    -1.1926 H       
  68 H68           -5.3197    -5.8001    -1.1866 H       
  69 H69           -7.7913    -5.9535     0.4122 H       
  70 H70           -6.2531    -6.1983     0.9950 H       
@<TRIPOS>BOND
   1    1    2 2
   2    1    5 1
   3    1    6 1
   4    2    3 1
   5    3    4 2
   6    3   11 1
   7    4    5 1
   8    4   39 1
   9    5   40 1
  10    6    7 2
  11    6    8 am
  12    8   16 1
  13    8   41 1
  14    9   10 ar
  15    9   14 ar
  16    9   15 1
  17   10   11 ar
  18   10   42 1
  19   11   12 ar
  20   12   13 ar
  21   12   43 1
  22   13   14 ar
  23   13   44 1
  24   15   45 1
  25   15   46 1
  26   15   47 1
  27   16   17 ar
  28   16   21 ar
  29   17   18 ar
  30   17   23 1
  31   18   19 ar
  32   18   22 1
  33   19   20 ar
  34   19   48 1
  35   20   21 ar
  36   20   49 1
  37   21   50 1
  38   23   24 1
  39   23   28 1
  40   24   25 1
  41   24   51 1
  42   24   52 1
  43   25   26 1
  44   25   53 1
  45   25   54 1
  46   26   27 1
  47   26   29 1
  48   26   55 1
  49   27   28 1
  50   27   56 1
  51   27   57 1
  52   28   58 1
  53   28   59 1
  54   29   30 2
  55   29   31 am
  56   31   32 1
  57   31   36 1
  58   32   33 1
  59   32   37 1
  60   32   60 1
  61   33   34 1
  62   33   61 1
  63   33   62 1
  64   34   35 1
  65   35   36 1
  66   35   63 1
  67   35   64 1
  68   36   65 1
  69   36   66 1
  70   37   38 1
  71   37   67 1
  72   37   68 1
  73   38   69 1
  74   38   70 1

#	End of record

