#	Name: ASD01881552
#	Creating user name:	WinNT
#	Creation time:	15. 06. 2019 19:42

#	Modifying user name:	WinNT
#	Modification time:	15. 06. 2019 19:42

#	Program:	/corina/corina34_cracker 3.40 0067  02.08.2006

@<TRIPOS>MOLECULE
ASD01881552
  55   58    0    0    0
SMALL
NO_CHARGES


@<TRIPOS>ATOM
   1 C1            -0.2957     1.7308     0.7670 C.ar    
   2 C2            -0.4417     0.3866     1.1079 C.ar    
   3 C3            -1.7015    -0.1020     1.4075 C.ar    
   4 C4            -2.7781     0.7739     1.3559 C.ar    
   5 C5            -2.5627     2.1120     1.0064 C.ar    
   6 N6            -1.3445     2.5437     0.7316 N.ar    
   7 N7            -4.1417     0.6306     1.5886 N.am    
   8 C8            -4.7307     1.8252     1.3903 C.2     
   9 N9            -3.8038     2.7355     1.0388 N.am    
  10 C10           -4.8204    -0.6070     1.9809 C.3     
  11 C11            1.0498     2.2605     0.4456 C.ar    
  12 C12           -4.8543    -0.7082     3.5072 C.3     
  13 C13           -5.6099     0.4919     4.0813 C.3     
  14 C14           -5.5632    -2.0007     3.9169 C.3     
  15 C15           -4.0603     4.1468     0.7410 C.3     
  16 O16           -5.9209     2.0477     1.5098 O.2     
  17 C17           -3.4237    -0.7172     4.0496 C.3     
  18 C18            1.2440     3.0485    -0.7050 C.ar    
  19 C19            2.5169     3.5430    -0.9979 C.ar    
  20 C20            3.5752     3.2597    -0.1633 C.ar    
  21 C21            3.3852     2.4810     0.9737 C.ar    
  22 C22            2.1265     1.9872     1.2816 C.ar    
  23 O23            4.4361     2.2075     1.7886 O.3     
  24 C24            5.0134     0.9826     1.6946 C.ar    
  25 C25            4.5437     0.0411     0.7833 C.ar    
  26 C26            6.0937     0.6393     2.5037 C.ar    
  27 C27            6.6581    -0.6171     2.3822 C.ar    
  28 N28            6.1894    -1.4896     1.5149 N.ar    
  29 C29            5.1642    -1.2034     0.7191 C.ar    
  30 C30            0.1417     3.3410    -1.5711 C.1     
  31 N31           -0.7327     3.5730    -2.2582 N.1     
  32 C32            4.6896    -2.1861    -0.2081 C.1     
  33 N33            4.3131    -2.9656    -0.9437 N.1     
  34 H34            0.4184    -0.2658     1.1374 H       
  35 H35           -1.8439    -1.1388     1.6744 H       
  36 H36           -5.8396    -0.6006     1.5945 H       
  37 H37           -4.2821    -1.4620     1.5719 H       
  38 H38           -6.6291     0.4983     3.6949 H       
  39 H39           -5.6340     0.4198     5.1686 H       
  40 H40           -5.1049     1.4127     3.7894 H       
  41 H41           -5.0249    -2.8557     3.5079 H       
  42 H42           -5.5873    -2.0729     5.0043 H       
  43 H43           -6.5824    -1.9943     3.5305 H       
  44 H44           -5.1254     4.3527     0.8470 H       
  45 H45           -3.4985     4.7724     1.4346 H       
  46 H46           -3.7479     4.3653    -0.2801 H       
  47 H47           -2.9187     0.2036     3.7577 H       
  48 H48           -3.4478    -0.7893     5.1369 H       
  49 H49           -2.8854    -1.5722     3.6406 H       
  50 H50            2.6715     4.1476    -1.8793 H       
  51 H51            4.5581     3.6439    -0.3930 H       
  52 H52            1.9844     1.3834     2.1657 H       
  53 H53            3.7105     0.2725     0.1362 H       
  54 H54            6.4867     1.3472     3.2184 H       
  55 H55            7.4962    -0.8865     3.0078 H       
@<TRIPOS>BOND
   1    1    2 ar
   2    1   11 1
   3    1    6 ar
   4    2    3 ar
   5    2   34 1
   6    3    4 ar
   7    3   35 1
   8    4    5 ar
   9    4    7 1
  10    5    6 ar
  11    5    9 1
  12    7    8 am
  13    7   10 1
  14    8    9 am
  15    8   16 2
  16    9   15 1
  17   10   12 1
  18   10   36 1
  19   10   37 1
  20   11   18 ar
  21   11   22 ar
  22   12   13 1
  23   12   17 1
  24   12   14 1
  25   13   38 1
  26   13   39 1
  27   13   40 1
  28   14   41 1
  29   14   42 1
  30   14   43 1
  31   15   44 1
  32   15   45 1
  33   15   46 1
  34   17   47 1
  35   17   48 1
  36   17   49 1
  37   18   30 1
  38   18   19 ar
  39   19   20 ar
  40   19   50 1
  41   20   21 ar
  42   20   51 1
  43   21   22 ar
  44   21   23 1
  45   22   52 1
  46   23   24 1
  47   24   25 ar
  48   24   26 ar
  49   25   29 ar
  50   25   53 1
  51   26   27 ar
  52   26   54 1
  53   27   28 ar
  54   27   55 1
  55   28   29 ar
  56   29   32 1
  57   30   31 3
  58   32   33 3

#	End of record

