#	Name: ASD09116279
#	Creating user name:	WinNT
#	Creation time:	15. 06. 2019 21:21

#	Modifying user name:	WinNT
#	Modification time:	15. 06. 2019 21:21

#	Program:	/corina/corina34_cracker 3.40 0067  02.08.2006

@<TRIPOS>MOLECULE
ASD09116279
  72   78    0    0    0
SMALL
NO_CHARGES


@<TRIPOS>ATOM
   1 N1            -0.0567     1.5281    -0.5285 N.pl3   
   2 N2            -0.0776     0.2496    -1.1088 N.2     
   3 C3             1.2415     1.9102    -0.4924 C.2     
   4 N4             1.9638     0.9400    -1.0112 N.2     
   5 C5             1.1651    -0.0660    -1.3847 C.2     
   6 N6             1.7235     3.1085     0.0019 N.pl3   
   7 C7             3.1017     3.3275     0.0825 C.ar    
   8 C8             3.6089     4.6168    -0.0250 C.ar    
   9 C9             5.8246     3.7628     0.2416 C.ar    
  10 C10            5.3279     2.4753     0.3555 C.ar    
  11 C11            3.9661     2.2571     0.2759 C.ar    
  12 C12           -1.1572     2.2622    -0.0828 C.ar    
  13 N13           -1.0024     3.1839     0.8559 N.ar    
  14 N14           -1.9839     3.8800     1.3082 N.ar    
  15 C15           -3.2175     3.7138     0.8588 C.ar    
  16 C16           -3.4730     2.7780    -0.1476 C.ar    
  17 C17           -2.4211     2.0288    -0.6308 C.ar    
  18 C18           -4.3588     4.4760     1.4161 C.ar    
  19 C19           -5.5074     3.7839     1.8035 C.ar    
  20 C20           -5.5356     2.2837     1.6979 C.3     
  21 C21           -5.7437     1.8309     0.2553 C.3     
  22 C22           -4.8628     2.6356    -0.6966 C.3     
  23 C23           -4.3006     5.8586     1.5522 C.ar    
  24 C24           -5.3908     6.5427     2.0541 C.ar    
  25 C25           -6.5349     5.8554     2.4168 C.ar    
  26 C26           -6.5936     4.4782     2.2913 C.ar    
  27 N27            1.5862    -1.2587    -1.9720 N.pl3   
  28 C28            4.9739     4.8219     0.0557 C.ar    
  29 C29            5.5241     6.2280    -0.0640 C.3     
  30 C30            6.0418     6.6645     1.3088 C.3     
  31 C31            7.4681     6.1980     1.5232 C.3     
  32 C32            7.6231     4.6959     1.6561 C.3     
  33 C33            7.3190     3.9949     0.3299 C.3     
  34 N34            7.9864     6.8297     2.7440 N.3     
  35 C35            9.3761     6.4123     3.0058 C.3     
  36 C36           10.2314     7.6943     3.0845 C.3     
  37 C37            9.1882     8.7899     3.4285 C.3     
  38 C38            7.9503     8.3036     2.6342 C.3     
  39 H39            1.1052     3.7970     0.2926 H       
  40 H40            2.9413     5.4530    -0.1710 H       
  41 H41            6.0026     1.6447     0.5015 H       
  42 H42            3.5735     1.2549     0.3644 H       
  43 H43           -2.5700     1.2836    -1.3982 H       
  44 H44           -4.5908     1.8826     2.0648 H       
  45 H45           -6.3484     1.8982     2.3134 H       
  46 H46           -5.4910     0.7739     0.1710 H       
  47 H47           -6.7894     1.9720    -0.0178 H       
  48 H48           -5.2965     3.6259    -0.8355 H       
  49 H49           -4.8174     2.1268    -1.6595 H       
  50 H50           -3.4075     6.3948     1.2673 H       
  51 H51           -5.3495     7.6163     2.1637 H       
  52 H52           -7.3874     6.3964     2.8002 H       
  53 H53           -7.4903     3.9477     2.5756 H       
  54 H54            2.5294    -1.4096    -2.1408 H       
  55 H55            0.9359    -1.9373    -2.2118 H       
  56 H56            6.3415     6.2414    -0.7849 H       
  57 H57            4.7336     6.9043    -0.3894 H       
  58 H58            6.0067     7.7519     1.3757 H       
  59 H59            5.4051     6.2380     2.0839 H       
  60 H60            8.0723     6.5347     0.6808 H       
  61 H61            8.6455     4.4665     1.9562 H       
  62 H62            6.9361     4.3311     2.4197 H       
  63 H63            7.8410     3.0387     0.2928 H       
  64 H64            7.6416     4.6242    -0.4996 H       
  65 H65            9.4292     5.8724     3.9512 H       
  66 H66            9.7321     5.7783     2.1938 H       
  67 H67           10.9781     7.6116     3.8743 H       
  68 H68           10.7052     7.9010     2.1249 H       
  69 H69            8.9821     8.8105     4.4986 H       
  70 H70            9.5183     9.7674     3.0771 H       
  71 H71            8.0255     8.6083     1.5904 H       
  72 H72            7.0358     8.6950     3.0798 H       
@<TRIPOS>BOND
   1    1    2 1
   2    1    3 1
   3    1   12 1
   4    2    5 2
   5    3    4 2
   6    3    6 1
   7    4    5 1
   8    5   27 1
   9    6    7 1
  10    6   39 1
  11    7    8 ar
  12    7   11 ar
  13    8   28 ar
  14    8   40 1
  15    9   10 ar
  16    9   28 ar
  17    9   33 1
  18   10   11 ar
  19   10   41 1
  20   11   42 1
  21   12   13 ar
  22   12   17 ar
  23   13   14 ar
  24   14   15 ar
  25   15   16 ar
  26   15   18 1
  27   16   17 ar
  28   16   22 1
  29   17   43 1
  30   18   19 ar
  31   18   23 ar
  32   19   20 1
  33   19   26 ar
  34   20   21 1
  35   20   44 1
  36   20   45 1
  37   21   22 1
  38   21   46 1
  39   21   47 1
  40   22   48 1
  41   22   49 1
  42   23   24 ar
  43   23   50 1
  44   24   25 ar
  45   24   51 1
  46   25   26 ar
  47   25   52 1
  48   26   53 1
  49   27   54 1
  50   27   55 1
  51   28   29 1
  52   29   30 1
  53   29   56 1
  54   29   57 1
  55   30   31 1
  56   30   58 1
  57   30   59 1
  58   31   32 1
  59   31   34 1
  60   31   60 1
  61   32   33 1
  62   32   61 1
  63   32   62 1
  64   33   63 1
  65   33   64 1
  66   34   35 1
  67   34   38 1
  68   35   36 1
  69   35   65 1
  70   35   66 1
  71   36   37 1
  72   36   67 1
  73   36   68 1
  74   37   38 1
  75   37   69 1
  76   37   70 1
  77   38   71 1
  78   38   72 1

#	End of record

