#	Name: ASD00310223
#	Creating user name:	WinNT
#	Creation time:	15. 06. 2019 18:34

#	Modifying user name:	WinNT
#	Modification time:	15. 06. 2019 18:34

#	Program:	/corina/corina34_cracker 3.40 0067  02.08.2006

@<TRIPOS>MOLECULE
ASD00310223
  40   43    0    0    0
SMALL
NO_CHARGES


@<TRIPOS>ATOM
   1 N1             0.3990     3.4132    -3.4001 N.pl3   
   2 C2             0.2193     2.0996    -3.6793 C.2     
   3 C3             1.3551     1.4052    -3.3817 C.2     
   4 C4             2.3255     2.3922    -2.8698 C.ar    
   5 C5             3.6371     2.3065    -2.4094 C.ar    
   6 C6             4.2920     3.4580    -1.9848 C.ar    
   7 C7             3.6322     4.6922    -2.0223 C.ar    
   8 C8             2.3353     4.7774    -2.4774 C.ar    
   9 C9             1.6680     3.6320    -2.9055 C.ar    
  10 C10            1.5695    -0.0378    -3.5393 C.2     
  11 O11            2.6379    -0.5307    -3.2328 O.2     
  12 O12            0.5817    -0.8172    -4.0242 O.3     
  13 C13            5.6888     3.3781    -1.4921 C.ar    
  14 C14            6.7149     4.0086    -2.1934 C.ar    
  15 C15            8.0127     3.9313    -1.7301 C.ar    
  16 C16            8.2958     3.2294    -0.5722 C.ar    
  17 C17            7.2813     2.6013     0.1276 C.ar    
  18 C18            5.9791     2.6771    -0.3231 C.ar    
  19 C19            9.7149     3.1483    -0.0717 C.3     
  20 C20           10.4286     4.4640     0.2450 C.3     
  21 C21            9.9750     3.5469     1.3824 C.3     
  22 C22           10.5561     2.0106    -0.6541 C.3     
  23 O23           10.0134     0.7558    -0.2381 O.3     
  24 F24            4.2723     5.8077    -1.6084 F       
  25 F25            4.2690     1.1129    -2.3749 F       
  26 H26           -0.2693     4.1034    -3.5333 H       
  27 H27           -0.6869     1.6674    -4.0774 H       
  28 H28            1.8345     5.7339    -2.5022 H       
  29 H29            0.7699    -1.7618    -4.1101 H       
  30 H30            6.4951     4.5563    -3.0979 H       
  31 H31            8.8087     4.4195    -2.2727 H       
  32 H32            7.5081     2.0543     1.0308 H       
  33 H33            5.1871     2.1904     0.2267 H       
  34 H34           11.4975     4.5191     0.0387 H       
  35 H35            9.8718     5.3883     0.0912 H       
  36 H36            9.1196     3.8678     1.9770 H       
  37 H37           10.7454     2.9985     1.9245 H       
  38 H38           10.5428     2.0694    -1.7424 H       
  39 H39           11.5825     2.0986    -0.2979 H       
  40 H40           10.4978    -0.0120    -0.5712 H       
@<TRIPOS>BOND
   1    1    2 1
   2    1    9 1
   3    1   26 1
   4    2    3 2
   5    2   27 1
   6    3    4 1
   7    3   10 1
   8    4    5 ar
   9    4    9 ar
  10    5    6 ar
  11    5   25 1
  12    6    7 ar
  13    6   13 1
  14    7    8 ar
  15    7   24 1
  16    8    9 ar
  17    8   28 1
  18   10   11 2
  19   10   12 1
  20   12   29 1
  21   13   14 ar
  22   13   18 ar
  23   14   15 ar
  24   14   30 1
  25   15   16 ar
  26   15   31 1
  27   16   17 ar
  28   16   19 1
  29   17   18 ar
  30   17   32 1
  31   18   33 1
  32   19   20 1
  33   19   21 1
  34   19   22 1
  35   20   21 1
  36   20   34 1
  37   20   35 1
  38   21   36 1
  39   21   37 1
  40   22   23 1
  41   22   38 1
  42   22   39 1
  43   23   40 1

#	End of record

