#	Name: ASD02039208
#	Creating user name:	WinNT
#	Creation time:	15. 06. 2019 20:17

#	Modifying user name:	WinNT
#	Modification time:	15. 06. 2019 20:17

#	Program:	/corina/corina34_cracker 3.40 0067  02.08.2006

@<TRIPOS>MOLECULE
ASD02039208
  36   38    0    0    0
SMALL
NO_CHARGES


@<TRIPOS>ATOM
   1 N1            -0.0009     1.2803     0.2562 N.2     
   2 C2             0.0074    -0.0199     0.1294 C.2     
   3 N3             1.2987    -0.4143     0.1381 N.2     
   4 C4             2.0014     0.6837     0.2712 C.2     
   5 O5             1.1345     1.6988     0.3387 O.3     
   6 C6             3.5037     0.7832     0.3360 C.3     
   7 N7            -1.1051    -0.8435     0.0088 N.pl3   
   8 C8            -2.3896    -0.3053     0.1297 C.ar    
   9 C9            -3.4559    -0.8917    -0.5399 C.ar    
  10 C10           -4.7236    -0.3574    -0.4183 C.ar    
  11 C11           -4.9320     0.7601     0.3690 C.ar    
  12 C12           -3.8726     1.3464     1.0371 C.ar    
  13 C13           -2.6034     0.8138     0.9243 C.ar    
  14 C14            4.0563     0.9546    -1.0555 C.ar    
  15 C15            4.3877    -0.1569    -1.8082 C.ar    
  16 C16            4.2257     2.2228    -1.5795 C.ar    
  17 C17            4.7316     2.3825    -2.8551 C.ar    
  18 C18            5.0702     1.2691    -3.6102 C.ar    
  19 C19            4.8944    -0.0025    -3.0840 C.ar    
  20 O20            5.5677     1.4235    -4.8654 O.3     
  21 C21           -6.3166     1.3407     0.4990 C.3     
  22 F22           -6.9728     0.7440     1.5809 F       
  23 F23           -6.2256     2.7204     0.7121 F       
  24 F24           -7.0367     1.0967    -0.6754 F       
  25 H25            3.7850     1.6411     0.9468 H       
  26 H26            3.9094    -0.1265     0.7786 H       
  27 H27           -0.9906    -1.7919    -0.1593 H       
  28 H28           -3.2938    -1.7644    -1.1553 H       
  29 H29           -5.5531    -0.8127    -0.9390 H       
  30 H30           -4.0387     2.2194     1.6509 H       
  31 H31           -1.7765     1.2720     1.4466 H       
  32 H32            4.2507    -1.1466    -1.3981 H       
  33 H33            3.9619     3.0893    -0.9913 H       
  34 H34            4.8630     3.3733    -3.2642 H       
  35 H35            5.1577    -0.8709    -3.6697 H       
  36 H36            6.5314     1.4950    -4.9005 H       
@<TRIPOS>BOND
   1    1    2 2
   2    1    5 1
   3    2    3 1
   4    2    7 1
   5    3    4 2
   6    4    5 1
   7    4    6 1
   8    6   14 1
   9    6   25 1
  10    6   26 1
  11    7    8 1
  12    7   27 1
  13    8    9 ar
  14    8   13 ar
  15    9   10 ar
  16    9   28 1
  17   10   11 ar
  18   10   29 1
  19   11   12 ar
  20   11   21 1
  21   12   13 ar
  22   12   30 1
  23   13   31 1
  24   14   16 ar
  25   14   15 ar
  26   15   19 ar
  27   15   32 1
  28   16   17 ar
  29   16   33 1
  30   17   18 ar
  31   17   34 1
  32   18   19 ar
  33   18   20 1
  34   19   35 1
  35   20   36 1
  36   21   22 1
  37   21   23 1
  38   21   24 1

#	End of record

