#	Name: ASD03080127
#	Creating user name:	WinNT
#	Creation time:	15. 06. 2019 20:26

#	Modifying user name:	WinNT
#	Modification time:	15. 06. 2019 20:26

#	Program:	/corina/corina34_cracker 3.40 0067  02.08.2006

@<TRIPOS>MOLECULE
ASD03080127
  26   28    0    0    0
SMALL
NO_CHARGES


@<TRIPOS>ATOM
   1 Br1            0.0021    -0.0041     0.0020 Br      
   2 C2            -0.0236     1.8867     0.0124 C.ar    
   3 C3             1.1653     2.5942     0.0049 C.ar    
   4 C4             1.1501     3.9770     0.0120 C.ar    
   5 C5            -0.0524     4.6559     0.0266 C.ar    
   6 C6            -1.2477     3.9489     0.0343 C.ar    
   7 C7            -1.2302     2.5610     0.0218 C.ar    
   8 N8            -2.4698     4.6358     0.0496 N.pl3   
   9 N9            -2.6043     5.9160     0.0573 N.2     
  10 N10           -3.8612     6.2052     0.0711 N.2     
  11 C11           -4.5361     5.0467     0.0719 C.2     
  12 N12           -3.6347     4.0845     0.0526 N.2     
  13 C13           -6.0111     4.8797     0.0859 C.ar    
  14 C14           -6.8516     5.9955     0.0996 C.ar    
  15 C15           -8.2203     5.7865     0.1124 C.ar    
  16 C16           -8.7069     4.4923     0.1112 C.ar    
  17 N17           -7.8880     3.4581     0.0980 N.ar    
  18 C18           -6.5795     3.6078     0.0797 C.ar    
  19 H19            2.1070     2.0656    -0.0062 H       
  20 H20            2.0798     4.5266     0.0064 H       
  21 H21           -0.0633     5.7358     0.0325 H       
  22 H22           -2.1582     2.0086     0.0273 H       
  23 H23           -6.4441     6.9957     0.1006 H       
  24 H24           -8.9004     6.6254     0.1236 H       
  25 H25           -9.7739     4.3255     0.1215 H       
  26 H26           -5.9413     2.7366     0.0694 H       
@<TRIPOS>BOND
   1    1    2 1
   2    2    3 ar
   3    2    7 ar
   4    3    4 ar
   5    3   19 1
   6    4    5 ar
   7    4   20 1
   8    5    6 ar
   9    5   21 1
  10    6    7 ar
  11    6    8 1
  12    7   22 1
  13    8    9 1
  14    8   12 1
  15    9   10 2
  16   10   11 1
  17   11   12 2
  18   11   13 1
  19   13   14 ar
  20   13   18 ar
  21   14   15 ar
  22   14   23 1
  23   15   16 ar
  24   15   24 1
  25   16   17 ar
  26   16   25 1
  27   17   18 ar
  28   18   26 1

#	End of record

