#	Name: ASD01884161
#	Creating user name:	WinNT
#	Creation time:	15. 06. 2019 19:47

#	Modifying user name:	WinNT
#	Modification time:	15. 06. 2019 19:47

#	Program:	/corina/corina34_cracker 3.40 0067  02.08.2006

@<TRIPOS>MOLECULE
ASD01884161
  17   18    0    0    0
SMALL
NO_CHARGES


@<TRIPOS>ATOM
   1 C1            -0.0167     1.3820     0.0096 C.ar    
   2 C2             0.0021    -0.0041     0.0020 C.ar    
   3 C3            -1.1863    -0.7017     0.0101 C.ar    
   4 C4            -2.3992     0.0202     0.0260 C.ar    
   5 C5            -2.3298     1.4179     0.0328 C.ar    
   6 N6            -1.1560     2.0410     0.0295 N.ar    
   7 N7            -3.6633    -0.4451     0.0365 N.2     
   8 C8            -4.6216     0.4177     0.0510 C.2     
   9 S9            -3.9746     2.0522     0.0531 S.3     
  10 S10           -6.3369     0.0153     0.0665 S.3     
  11 Cl11           1.4811     2.2597     0.0001 Cl      
  12 C12           -7.0499     1.6788     0.0828 C.3     
  13 H13            0.9429    -0.5343    -0.0105 H       
  14 H14           -1.1897    -1.7817     0.0040 H       
  15 H15           -8.1376     1.6079     0.0936 H       
  16 H16           -6.7117     2.2104     0.9722 H       
  17 H17           -6.7300     2.2200    -0.8077 H       
@<TRIPOS>BOND
   1    1    2 ar
   2    1   11 1
   3    1    6 ar
   4    2    3 ar
   5    2   13 1
   6    3    4 ar
   7    3   14 1
   8    4    5 ar
   9    4    7 1
  10    5    6 ar
  11    5    9 1
  12    7    8 2
  13    8    9 1
  14    8   10 1
  15   10   12 1
  16   12   15 1
  17   12   16 1
  18   12   17 1

#	End of record

