#	Name: ASD01814543
#	Creating user name:	WinNT
#	Creation time:	15. 06. 2019 19:32

#	Modifying user name:	WinNT
#	Modification time:	15. 06. 2019 19:32

#	Program:	/corina/corina34_cracker 3.40 0067  02.08.2006

@<TRIPOS>MOLECULE
ASD01814543
  45   47    0    0    0
SMALL
NO_CHARGES


@<TRIPOS>ATOM
   1 C1            -0.5829     0.6615     0.3203 C.ar    
   2 C2            -0.3218    -0.7054     0.2760 C.ar    
   3 C3             0.9541    -1.1726     0.1762 C.ar    
   4 C4             2.0246    -0.2663     0.1170 C.ar    
   5 C5             1.7583     1.1244     0.1621 C.ar    
   6 C6             0.4310     1.5698     0.2651 C.ar    
   7 C7             3.3544    -0.7204     0.0142 C.ar    
   8 C8             4.3766     0.1681    -0.0415 C.ar    
   9 C9             4.1336     1.5545     0.0023 C.ar    
  10 C10            2.8307     2.0383     0.1033 C.ar    
  11 O11            2.5969     3.3716     0.1454 O.3     
  12 C12            2.3956     4.0347    -1.1043 C.3     
  13 C13            5.2617     2.4976    -0.0595 C.2     
  14 O14            5.0557     3.6948    -0.0220 O.2     
  15 O15            6.5234     2.0336    -0.1577 O.3     
  16 C16            3.6414    -2.1990    -0.0334 C.3     
  17 C17            3.5156    -2.6897    -1.4528 C.ar    
  18 C18            4.6195    -2.6830    -2.2855 C.ar    
  19 C19            2.2978    -3.1509    -1.9179 C.ar    
  20 C20            2.1792    -3.6012    -3.2182 C.ar    
  21 C21            3.2846    -3.5905    -4.0587 C.ar    
  22 C22            4.5074    -3.1315    -3.5869 C.ar    
  23 N23            3.1677    -4.0460    -5.3765 N.am    
  24 C24            2.0318    -3.8255    -6.0676 C.2     
  25 O25            1.0806    -3.3078    -5.5215 O.2     
  26 C26            1.9436    -4.2221    -7.5188 C.3     
  27 H27           -1.6035     1.0066     0.3950 H       
  28 H28           -1.1428    -1.4056     0.3217 H       
  29 H29            1.1412    -2.2357     0.1432 H       
  30 H30            0.2147     2.6273     0.3004 H       
  31 H31            5.3916    -0.1922    -0.1202 H       
  32 H32            3.2814     3.9123    -1.7275 H       
  33 H33            1.5326     3.6019    -1.6104 H       
  34 H34            2.2191     5.0959    -0.9282 H       
  35 H35            7.2314     2.6912    -0.1952 H       
  36 H36            4.6533    -2.3845     0.3268 H       
  37 H37            2.9281    -2.7281     0.5985 H       
  38 H38            5.5703    -2.3262    -1.9179 H       
  39 H39            1.4385    -3.1593    -1.2636 H       
  40 H40            1.2278    -3.9616    -3.5808 H       
  41 H41            5.3690    -3.1220    -4.2381 H       
  42 H42            3.9043    -4.5205    -5.7928 H       
  43 H43            2.8878    -4.6680    -7.8316 H       
  44 H44            1.1391    -4.9457    -7.6494 H       
  45 H45            1.7402    -3.3393    -8.1250 H       
@<TRIPOS>BOND
   1    1    2 ar
   2    1    6 ar
   3    1   27 1
   4    2    3 ar
   5    2   28 1
   6    3    4 ar
   7    3   29 1
   8    4    5 ar
   9    4    7 ar
  10    5    6 ar
  11    5   10 ar
  12    6   30 1
  13    7    8 ar
  14    7   16 1
  15    8    9 ar
  16    8   31 1
  17    9   10 ar
  18    9   13 1
  19   10   11 1
  20   11   12 1
  21   12   32 1
  22   12   33 1
  23   12   34 1
  24   13   14 2
  25   13   15 1
  26   15   35 1
  27   16   17 1
  28   16   36 1
  29   16   37 1
  30   17   18 ar
  31   17   19 ar
  32   18   22 ar
  33   18   38 1
  34   19   20 ar
  35   19   39 1
  36   20   21 ar
  37   20   40 1
  38   21   22 ar
  39   21   23 1
  40   22   41 1
  41   23   24 am
  42   23   42 1
  43   24   25 2
  44   24   26 1
  45   26   43 1
  46   26   44 1
  47   26   45 1

#	End of record

