#	Name: ASD01918303
#	Creating user name:	WinNT
#	Creation time:	15. 06. 2019 20:11

#	Modifying user name:	WinNT
#	Modification time:	15. 06. 2019 20:11

#	Program:	/corina/corina34_cracker 3.40 0067  02.08.2006

@<TRIPOS>MOLECULE
ASD01918303
  45   48    0    0    0
SMALL
NO_CHARGES


@<TRIPOS>ATOM
   1 C1            -0.0184     1.5028     0.0103 C.3     
   2 C2             0.0021    -0.0041     0.0020 C.2     
   3 C3             0.0084    -0.7956    -1.0958 C.2     
   4 N4             0.0285    -2.0936    -0.6944 N.pl3   
   5 H5             0.0373    -2.8671    -1.2796 H       
   6 C6             0.0350    -2.1271     0.6801 C.2     
   7 C7             0.0241    -0.8352     1.1286 C.2     
   8 C8             0.0550    -3.3339     1.5168 C.2     
   9 N9             0.0759    -4.5900     1.0951 N.2     
  10 C10            0.0891    -5.3411     2.2061 C.2     
  11 N11            0.0761    -4.5361     3.2278 N.2     
  12 O12            0.0616    -3.3806     2.8597 O.3     
  13 C13            0.1141    -6.8469     2.2609 C.3     
  14 C14            1.3789    -7.3004     2.9670 C.3     
  15 C15            1.5962    -8.8021     2.9304 C.3     
  16 C16            0.5286    -9.5277     3.7516 C.3     
  17 N17           -0.6443    -9.7651     2.8946 N.am    
  18 C18           -0.9324   -11.0627     2.4534 C.ar    
  19 C19           -1.7564   -11.8867     3.2075 C.ar    
  20 C20           -2.0401   -13.1665     2.7707 C.ar    
  21 C21           -1.5044   -13.6292     1.5834 C.ar    
  22 C22           -0.6811   -12.8117     0.8269 C.ar    
  23 F23           -0.1586   -13.2667    -0.3328 F       
  24 C24           -0.3982   -11.5260     1.2565 C.ar    
  25 F25            0.4002   -10.7256     0.5169 F       
  26 C26           -1.4348    -8.7526     2.5358 C.2     
  27 O27           -2.4020    -8.9601     1.8340 O.2     
  28 C28           -1.1290    -7.3448     3.0023 C.3     
  29 H29            1.0042     1.8801     0.0026 H       
  30 H30           -0.5455     1.8639    -0.8728 H       
  31 H31           -0.5286     1.8543     0.9071 H       
  32 H32           -0.0013    -0.4528    -2.1199 H       
  33 H33            0.0294    -0.5155     2.1602 H       
  34 H34            0.1090    -7.2430     1.2454 H       
  35 H35            2.2334    -6.8137     2.4969 H       
  36 H36            1.3298    -6.9812     4.0080 H       
  37 H37            1.5488    -9.1461     1.8972 H       
  38 H38            2.5803    -9.0319     3.3390 H       
  39 H39            0.9232   -10.4808     4.1037 H       
  40 H40            0.2406    -8.9113     4.6032 H       
  41 H41           -2.1755   -11.5276     4.1359 H       
  42 H42           -2.6814   -13.8068     3.3583 H       
  43 H43           -1.7280   -14.6302     1.2452 H       
  44 H44           -0.9386    -7.3479     4.0755 H       
  45 H45           -1.9740    -6.6934     2.7791 H       
@<TRIPOS>BOND
   1    1    2 1
   2    1   29 1
   3    1   30 1
   4    1   31 1
   5    2    7 1
   6    2    3 2
   7    3    4 1
   8    3   32 1
   9    4    5 1
  10    4    6 1
  11    6    7 2
  12    6    8 1
  13    7   33 1
  14    8   12 1
  15    8    9 2
  16    9   10 1
  17   10   11 2
  18   10   13 1
  19   11   12 1
  20   13   28 1
  21   13   14 1
  22   13   34 1
  23   14   15 1
  24   14   35 1
  25   14   36 1
  26   15   16 1
  27   15   37 1
  28   15   38 1
  29   16   17 1
  30   16   39 1
  31   16   40 1
  32   17   18 1
  33   17   26 am
  34   18   24 ar
  35   18   19 ar
  36   19   20 ar
  37   19   41 1
  38   20   21 ar
  39   20   42 1
  40   21   22 ar
  41   21   43 1
  42   22   23 1
  43   22   24 ar
  44   24   25 1
  45   26   27 2
  46   26   28 1
  47   28   44 1
  48   28   45 1

#	End of record

