#	Name: ASD02030198
#	Creating user name:	WinNT
#	Creation time:	15. 06. 2019 20:14

#	Modifying user name:	WinNT
#	Modification time:	15. 06. 2019 20:14

#	Program:	/corina/corina34_cracker 3.40 0067  02.08.2006

@<TRIPOS>MOLECULE
ASD02030198
  55   58    0    0    0
SMALL
NO_CHARGES


@<TRIPOS>ATOM
   1 N1            -0.1363     1.6278    -0.2921 N.am    
   2 C2            -0.2334     0.1644    -0.3864 C.3     
   3 C3            -1.0511    -0.3503     0.8047 C.3     
   4 N4            -2.2884     0.4370     0.9001 N.am    
   5 C5            -2.1914     1.9004     0.9944 C.3     
   6 C6            -1.3734     2.4147    -0.1910 C.3     
   7 C7             1.0660     2.2370    -0.2926 C.2     
   8 C8             2.3036     1.4298    -0.2472 C.2     
   9 N9             3.5264     1.8953    -0.1089 N.2     
  10 N10            2.3776     0.0890    -0.3344 N.2     
  11 C11            3.6425    -0.2368    -0.2529 C.2     
  12 N12            4.3490     0.9034    -0.1121 N.pl3   
  13 O13            1.1326     3.4502    -0.3303 O.2     
  14 C14           -3.4907    -0.1722     0.9006 C.2     
  15 C15           -3.5717    -1.6512     0.8702 C.ar    
  16 O16           -4.5082     0.4917     0.9261 O.2     
  17 C17           -1.0293     3.8899     0.0239 C.3     
  18 C18           -2.1815     2.2549    -1.4804 C.3     
  19 N19           -2.4989    -2.3752     1.1687 N.ar    
  20 C20           -2.5296    -3.6940     1.1532 C.ar    
  21 C21           -3.6975    -4.3754     0.8207 C.ar    
  22 C22           -4.8354    -3.6546     0.5038 C.ar    
  23 C23           -4.7728    -2.2689     0.5346 C.ar    
  24 O24           -1.4102    -4.3944     1.4645 O.3     
  25 C25           -0.2436    -3.6389     1.7966 C.3     
  26 C26            5.7425     0.9942     0.0102 C.ar    
  27 C27            6.3488     2.2344     0.1499 C.ar    
  28 C28            7.7245     2.3208     0.2703 C.ar    
  29 C29            8.4961     1.1712     0.2511 C.ar    
  30 C30            7.8947    -0.0661     0.1115 C.ar    
  31 C31            6.5197    -0.1592    -0.0026 C.ar    
  32 F32            5.9328    -1.3684    -0.1384 F       
  33 F33            8.3156     3.5280     0.4064 F       
  34 H34           -0.7300    -0.1101    -1.3170 H       
  35 H35            0.7656    -0.2710    -0.3597 H       
  36 H36           -1.2970    -1.4013     0.6528 H       
  37 H37           -0.4732    -0.2361     1.7218 H       
  38 H38           -3.1903     2.3357     0.9678 H       
  39 H39           -1.6947     2.1748     1.9250 H       
  40 H40            4.0471    -1.2375    -0.2891 H       
  41 H41           -0.2739     3.9767     0.8049 H       
  42 H42           -0.6429     4.3118    -0.9038 H       
  43 H43           -1.9260     4.4321     0.3239 H       
  44 H44           -3.1061     2.8270    -1.4030 H       
  45 H45           -1.5966     2.6220    -2.3236 H       
  46 H46           -2.4176     1.2018    -1.6330 H       
  47 H47           -3.7150    -5.4552     0.8098 H       
  48 H48           -5.7535    -4.1598     0.2426 H       
  49 H49           -5.6430    -1.6769     0.2926 H       
  50 H50            0.5772    -4.3191     2.0240 H       
  51 H51            0.0319    -3.0063     0.9528 H       
  52 H52           -0.4501    -3.0151     2.6663 H       
  53 H53            5.7476     3.1315     0.1643 H       
  54 H54            9.5697     1.2411     0.3449 H       
  55 H55            8.4991    -0.9610     0.0965 H       
@<TRIPOS>BOND
   1    1    2 1
   2    1    7 am
   3    1    6 1
   4    2    3 1
   5    2   34 1
   6    2   35 1
   7    3    4 1
   8    3   36 1
   9    3   37 1
  10    4    5 1
  11    4   14 am
  12    5    6 1
  13    5   38 1
  14    5   39 1
  15    6   17 1
  16    6   18 1
  17    7    8 1
  18    7   13 2
  19    8    9 2
  20    8   10 1
  21    9   12 1
  22   10   11 2
  23   11   12 1
  24   11   40 1
  25   12   26 1
  26   14   15 1
  27   14   16 2
  28   15   19 ar
  29   15   23 ar
  30   17   41 1
  31   17   42 1
  32   17   43 1
  33   18   44 1
  34   18   45 1
  35   18   46 1
  36   19   20 ar
  37   20   21 ar
  38   20   24 1
  39   21   22 ar
  40   21   47 1
  41   22   23 ar
  42   22   48 1
  43   23   49 1
  44   24   25 1
  45   25   50 1
  46   25   51 1
  47   25   52 1
  48   26   27 ar
  49   26   31 ar
  50   27   28 ar
  51   27   53 1
  52   28   29 ar
  53   28   33 1
  54   29   30 ar
  55   29   54 1
  56   30   31 ar
  57   30   55 1
  58   31   32 1

#	End of record

