#	Name: ASD01885332
#	Creating user name:	WinNT
#	Creation time:	15. 06. 2019 19:49

#	Modifying user name:	WinNT
#	Modification time:	15. 06. 2019 19:49

#	Program:	/corina/corina34_cracker 3.40 0067  02.08.2006

@<TRIPOS>MOLECULE
ASD01885332
  59   62    0    0    0
SMALL
NO_CHARGES


@<TRIPOS>ATOM
   1 C1            -0.0263     0.8674     1.4119 C.ar    
   2 C2             0.1628    -0.3658     0.8687 C.ar    
   3 C3             1.4291    -0.7895     0.4715 C.ar    
   4 C4             2.5149     0.0214     0.6165 C.ar    
   5 C5             2.3579     1.2977     1.1718 C.ar    
   6 C6             1.0712     1.7334     1.5776 C.ar    
   7 C7             3.4641     2.1691     1.3378 C.ar    
   8 C8             3.2290     3.4187     1.8953 C.ar    
   9 C9             1.9285     3.7728     2.2697 C.ar    
  10 N10            0.9117     2.9470     2.1069 N.ar    
  11 C11            4.8272     1.7590     0.9298 C.2     
  12 C12            1.6861     5.1094     2.8644 C.2     
  13 O13            2.6112     5.8814     3.0210 O.2     
  14 N14            0.4397     5.4678     3.2311 N.am    
  15 C15           -1.0162    -1.2881     0.6946 C.3     
  16 N16           -1.6117    -1.0766    -0.6316 N.3     
  17 C17           -2.7118    -2.0217    -0.8720 C.3     
  18 C18           -3.2628    -1.8066    -2.2841 C.3     
  19 O19           -3.6776    -0.4454    -2.4263 O.3     
  20 C20           -2.6307     0.5022    -2.1996 C.3     
  21 C21           -2.0733     0.3105    -0.7867 C.3     
  22 C22            5.6892     2.4794     0.1509 C.2     
  23 N23            6.8176     1.7567     0.0170 N.pl3   
  24 N24            6.6595     0.5599     0.7260 N.2     
  25 C25            5.4761     0.5565     1.2787 C.2     
  26 C26            8.0065     2.1543    -0.7410 C.3     
  27 C27           -2.1925    -3.4547    -0.7390 C.3     
  28 C28           -1.2047    -3.7463    -1.8704 C.3     
  29 C29            0.0268    -2.8517    -1.7155 C.3     
  30 C30           -0.7792    -5.2147    -1.8102 C.3     
  31 H31           -1.0152     1.1824     1.7106 H       
  32 H32            1.5520    -1.7734     0.0434 H       
  33 H33            3.4916    -0.3186     0.3050 H       
  34 H34            4.0443     4.1123     2.0392 H       
  35 H35           -0.2987     4.8515     3.1060 H       
  36 H36            0.2812     6.3421     3.6201 H       
  37 H37           -0.6844    -2.3226     0.7831 H       
  38 H38           -1.7589    -1.0776     1.4641 H       
  39 H39           -3.5036    -1.8517    -0.1425 H       
  40 H40           -2.4859    -2.0287    -3.0157 H       
  41 H41           -4.1155    -2.4659    -2.4463 H       
  42 H42           -1.8355     0.3473    -2.9287 H       
  43 H43           -3.0264     1.5128    -2.3008 H       
  44 H44           -2.8550     0.5178    -0.0558 H       
  45 H45           -1.2373     0.9921    -0.6296 H       
  46 H46            5.4996     3.4517    -0.2794 H       
  47 H47            5.0652    -0.2309     1.8931 H       
  48 H48            8.6877     2.7003    -0.0883 H       
  49 H49            8.5063     1.2653    -1.1257 H       
  50 H50            7.7101     2.7932    -1.5729 H       
  51 H51           -1.6899    -3.5714     0.2212 H       
  52 H52           -3.0288    -4.1512    -0.7983 H       
  53 H53           -1.6815    -3.5452    -2.8298 H       
  54 H54           -0.2554    -1.8125    -1.8845 H       
  55 H55            0.4299    -2.9596    -0.7086 H       
  56 H56            0.7833    -3.1457    -2.4432 H       
  57 H57           -1.6566    -5.8520    -1.9206 H       
  58 H58           -0.0755    -5.4224    -2.6163 H       
  59 H59           -0.3024    -5.4158    -0.8509 H       
@<TRIPOS>BOND
   1    1    2 ar
   2    1    6 ar
   3    1   31 1
   4    2    3 ar
   5    2   15 1
   6    3    4 ar
   7    3   32 1
   8    4    5 ar
   9    4   33 1
  10    5    7 ar
  11    5    6 ar
  12    6   10 ar
  13    7    8 ar
  14    7   11 1
  15    8    9 ar
  16    8   34 1
  17    9   10 ar
  18    9   12 1
  19   11   22 2
  20   11   25 1
  21   12   13 2
  22   12   14 am
  23   14   35 1
  24   14   36 1
  25   15   16 1
  26   15   37 1
  27   15   38 1
  28   16   17 1
  29   16   21 1
  30   17   18 1
  31   17   27 1
  32   17   39 1
  33   18   19 1
  34   18   40 1
  35   18   41 1
  36   19   20 1
  37   20   21 1
  38   20   42 1
  39   20   43 1
  40   21   44 1
  41   21   45 1
  42   22   23 1
  43   22   46 1
  44   23   24 1
  45   23   26 1
  46   24   25 2
  47   25   47 1
  48   26   48 1
  49   26   49 1
  50   26   50 1
  51   27   28 1
  52   27   51 1
  53   27   52 1
  54   28   29 1
  55   28   30 1
  56   28   53 1
  57   29   54 1
  58   29   55 1
  59   29   56 1
  60   30   57 1
  61   30   58 1
  62   30   59 1

#	End of record

