#	Name: ASD01911274
#	Creating user name:	WinNT
#	Creation time:	15. 06. 2019 19:57

#	Modifying user name:	WinNT
#	Modification time:	15. 06. 2019 19:57

#	Program:	/corina/corina34_cracker 3.40 0067  02.08.2006

@<TRIPOS>MOLECULE
ASD01911274
  47   50    0    0    0
SMALL
NO_CHARGES


@<TRIPOS>ATOM
   1 C1            -0.4990     1.1648    -1.6307 C.3     
   2 C2            -0.3075    -0.2948    -1.1676 C.3     
   3 N3             1.1397    -0.5400    -1.0842 N.am    
   4 C4             1.8511     0.6839    -1.4961 C.3     
   5 C5             0.8451     1.8332    -1.2379 C.3     
   6 C6             1.7200    -1.6925    -0.6949 C.2     
   7 O7             2.9253    -1.8144    -0.7532 O.2     
   8 C8             0.8712    -2.8295    -0.1873 C.3     
   9 C9             3.0915     0.8753    -0.6620 C.2     
  10 N10            4.2811     1.2038    -1.1009 N.2     
  11 C11            5.0701     1.2599    -0.0043 C.2     
  12 N12            4.3207     0.9652     1.0259 N.2     
  13 O13            3.1833     0.7476     0.6654 O.3     
  14 C14            6.5161     1.5932     0.0246 C.ar    
  15 C15            7.2047     1.6127     1.2355 C.ar    
  16 C16            8.5497     1.9232     1.2581 C.ar    
  17 C17            9.2148     2.2150     0.0817 C.ar    
  18 C18            8.5358     2.1978    -1.1260 C.ar    
  19 C19            7.1905     1.8820    -1.1597 C.ar    
  20 F20            9.1906     2.4846    -2.2724 F       
  21 C21            1.5065    -4.1609    -0.5932 C.3     
  22 C22            0.6448    -5.3153    -0.0778 C.3     
  23 C23            0.5499    -5.2395     1.4473 C.3     
  24 C24           -0.0854    -3.9082     1.8532 C.3     
  25 C25            0.7763    -2.7537     1.3378 C.3     
  26 H26           -0.6517     1.2105    -2.7090 H       
  27 H27           -1.3305     1.6311    -1.1023 H       
  28 H28           -0.7644    -0.4359    -0.1882 H       
  29 H29           -0.7577    -0.9751    -1.8905 H       
  30 H30            2.1082     0.6353    -2.5542 H       
  31 H31            1.0574     2.6894    -1.8780 H       
  32 H32            0.8447     2.1234    -0.1872 H       
  33 H33           -0.1277    -2.7575    -0.6176 H       
  34 H34            6.6868     1.3854     2.1556 H       
  35 H35            9.0833     1.9386     2.1969 H       
  36 H36           10.2671     2.4574     0.1042 H       
  37 H37            6.6612     1.8687    -2.1010 H       
  38 H38            1.5742    -4.2149    -1.6798 H       
  39 H39            2.5054    -4.2329    -0.1630 H       
  40 H40           -0.3541    -5.2433    -0.5081 H       
  41 H41            1.0974    -6.2638    -0.3670 H       
  42 H42           -0.0640    -6.0619     1.8145 H       
  43 H43            1.5488    -5.3115     1.8776 H       
  44 H44           -1.0844    -3.8361     1.4230 H       
  45 H45           -0.1531    -3.8541     2.9398 H       
  46 H46            1.7752    -2.8258     1.7681 H       
  47 H47            0.3237    -1.8052     1.6270 H       
@<TRIPOS>BOND
   1    1    2 1
   2    1    5 1
   3    1   26 1
   4    1   27 1
   5    2    3 1
   6    2   28 1
   7    2   29 1
   8    3    4 1
   9    3    6 am
  10    4    5 1
  11    4    9 1
  12    4   30 1
  13    5   31 1
  14    5   32 1
  15    6    7 2
  16    6    8 1
  17    8   21 1
  18    8   25 1
  19    8   33 1
  20    9   10 2
  21    9   13 1
  22   10   11 1
  23   11   12 2
  24   11   14 1
  25   12   13 1
  26   14   15 ar
  27   14   19 ar
  28   15   16 ar
  29   15   34 1
  30   16   17 ar
  31   16   35 1
  32   17   18 ar
  33   17   36 1
  34   18   19 ar
  35   18   20 1
  36   19   37 1
  37   21   22 1
  38   21   38 1
  39   21   39 1
  40   22   23 1
  41   22   40 1
  42   22   41 1
  43   23   24 1
  44   23   42 1
  45   23   43 1
  46   24   25 1
  47   24   44 1
  48   24   45 1
  49   25   46 1
  50   25   47 1

#	End of record

