#	Name: ASD01882818
#	Creating user name:	WinNT
#	Creation time:	15. 06. 2019 19:45

#	Modifying user name:	WinNT
#	Modification time:	15. 06. 2019 19:45

#	Program:	/corina/corina34_cracker 3.40 0067  02.08.2006

@<TRIPOS>MOLECULE
ASD01882818
  44   47    0    0    0
SMALL
NO_CHARGES


@<TRIPOS>ATOM
   1 C1            -0.1997     1.6051    -0.0801 C.2     
   2 C2             0.0031     0.2118    -0.1041 C.2     
   3 C3            -1.0665    -0.6175     0.0308 C.2     
   4 C4            -2.3533    -0.0755     0.1914 C.2     
   5 C5            -2.5325     1.2620     0.2121 C.2     
   6 N6            -1.4698     2.1052     0.0718 N.pl3   
   7 C7            -0.8728    -2.1118     0.0075 C.3     
   8 O8            -1.4583    -2.6863     1.1776 O.3     
   9 C9             1.3891    -0.3538    -0.2777 C.3     
  10 C10           -0.9916    -3.9020     1.5679 C.ar    
  11 C11           -1.5450    -2.6939    -1.2375 C.3     
  12 N12            0.6118     2.6450    -0.1829 N.2     
  13 N13           -0.0710     3.7324    -0.0984 N.2     
  14 C14           -1.3410     3.4596     0.0561 C.2     
  15 C15           -2.4579     4.4625     0.1898 C.3     
  16 F16            1.4117    -1.1987    -1.3925 F       
  17 F17            2.2993     0.6917    -0.4664 F       
  18 F18            1.7430    -1.0796     0.8647 F       
  19 C19           -2.3932     5.4394     1.3656 C.3     
  20 C20           -2.1191     5.9341    -0.0560 C.3     
  21 C21            0.0396    -4.5082     0.8652 C.ar    
  22 C22            0.5131    -5.7432     1.2632 C.ar    
  23 C23           -0.0413    -6.3766     2.3628 C.ar    
  24 C24           -1.0704    -5.7729     3.0649 C.ar    
  25 C25           -1.5421    -4.5349     2.6724 C.ar    
  26 C26           -2.6585    -3.8754     3.4404 C.3     
  27 F27            0.4221    -7.5849     2.7504 F       
  28 H28           -3.2034    -0.7329     0.2986 H       
  29 H29           -3.5257     1.6677     0.3357 H       
  30 H30            0.1929    -2.3397    -0.0148 H       
  31 H31           -1.4048    -3.7747    -1.2543 H       
  32 H32           -2.6107    -2.4661    -1.2152 H       
  33 H33           -1.0984    -2.2557    -2.1301 H       
  34 H34           -3.4426     4.1137    -0.1212 H       
  35 H35           -3.3355     5.7335     1.8279 H       
  36 H36           -1.5429     5.3567     2.0424 H       
  37 H37           -1.0884     6.1769    -0.3144 H       
  38 H38           -2.8810     6.5538    -0.5290 H       
  39 H39            0.4717    -4.0148     0.0072 H       
  40 H40            1.3159    -6.2153     0.7163 H       
  41 H41           -1.5019    -6.2679     3.9223 H       
  42 H42           -3.6172    -4.1764     3.0183 H       
  43 H43           -2.6099    -4.1803     4.4858 H       
  44 H44           -2.5557    -2.7923     3.3727 H       
@<TRIPOS>BOND
   1    1    2 1
   2    1   12 2
   3    1    6 1
   4    2    9 1
   5    2    3 2
   6    3    4 1
   7    3    7 1
   8    4    5 2
   9    4   28 1
  10    5    6 1
  11    5   29 1
  12    6   14 1
  13    7    8 1
  14    7   11 1
  15    7   30 1
  16    8   10 1
  17    9   16 1
  18    9   17 1
  19    9   18 1
  20   10   21 ar
  21   10   25 ar
  22   11   31 1
  23   11   32 1
  24   11   33 1
  25   12   13 1
  26   13   14 2
  27   14   15 1
  28   15   19 1
  29   15   20 1
  30   15   34 1
  31   19   20 1
  32   19   35 1
  33   19   36 1
  34   20   37 1
  35   20   38 1
  36   21   22 ar
  37   21   39 1
  38   22   23 ar
  39   22   40 1
  40   23   24 ar
  41   23   27 1
  42   24   25 ar
  43   24   41 1
  44   25   26 1
  45   26   42 1
  46   26   43 1
  47   26   44 1

#	End of record

