#	Name: ASD00311170
#	Creating user name:	WinNT
#	Creation time:	15. 06. 2019 18:34

#	Modifying user name:	WinNT
#	Modification time:	15. 06. 2019 18:34

#	Program:	/corina/corina34_cracker 3.40 0067  02.08.2006

@<TRIPOS>MOLECULE
ASD00311170
  44   47    0    0    0
SMALL
NO_CHARGES


@<TRIPOS>ATOM
   1 C1            -0.0167     1.3773     0.0096 C.2     
   2 C2             0.0021    -0.0041     0.0020 C.2     
   3 C3             1.2588    -0.6767    -0.0136 C.2     
   4 C4             2.4313     0.0669    -0.0208 C.2     
   5 C5             2.3575     1.4745    -0.0125 C.2     
   6 N6             1.1651     2.0898     0.0022 N.am    
   7 C7            -1.3434    -0.5755     0.0118 C.2     
   8 C8            -2.3233     0.3267     0.0260 C.2     
   9 S9            -1.6790     1.9564     0.0358 S.3     
  10 O10            3.3826     2.1365    -0.0187 O.2     
  11 C11           -1.5959    -2.0355     0.0056 C.ar    
  12 C12           -2.2068    -2.6449     1.1011 C.ar    
  13 C13           -2.4398    -4.0049     1.0893 C.ar    
  14 C14           -2.0687    -4.7636    -0.0065 C.ar    
  15 C15           -1.4619    -4.1648    -1.0960 C.ar    
  16 C16           -1.2289    -2.8047    -1.0982 C.ar    
  17 C17            3.7478    -0.6129    -0.0365 C.ar    
  18 C18            4.5925    -0.4746    -1.1378 C.ar    
  19 C19            5.8205    -1.1109    -1.1482 C.ar    
  20 C20            6.2111    -1.8878    -0.0604 C.ar    
  21 C21            5.3715    -2.0249     1.0337 C.ar    
  22 C22            4.1470    -1.3873     1.0519 C.ar    
  23 O23            7.4189    -2.5136    -0.0719 O.3     
  24 C24            7.7560    -3.2943     1.0765 C.3     
  25 O25            6.6460    -0.9784    -2.2207 O.3     
  26 C26            6.1808    -0.1671    -3.3012 C.3     
  27 O27            1.3086    -2.0295    -0.0209 O.3     
  28 Cl28          -4.0154    -0.0609     0.0395 Cl      
  29 H29            1.1330     3.0593     0.0073 H       
  30 H30           -2.4966    -2.0537     1.9572 H       
  31 H31           -2.9125    -4.4781     1.9372 H       
  32 H32           -2.2531    -5.8277    -0.0111 H       
  33 H33           -1.1741    -4.7622    -1.9484 H       
  34 H34           -0.7593    -2.3376    -1.9512 H       
  35 H35            4.2881     0.1279    -1.9809 H       
  36 H36            5.6775    -2.6281     1.8757 H       
  37 H37            3.4965    -1.4917     1.9077 H       
  38 H38            7.0176    -4.0852     1.2077 H       
  39 H39            8.7422    -3.7373     0.9380 H       
  40 H40            7.7653    -2.6558     1.9599 H       
  41 H41            5.2536    -0.5832    -3.6950 H       
  42 H42            6.0009     0.8466    -2.9431 H       
  43 H43            6.9332    -0.1457    -4.0896 H       
  44 H44            2.2059    -2.3900    -0.0314 H       
@<TRIPOS>BOND
   1    1    2 2
   2    1    6 1
   3    1    9 1
   4    2    3 1
   5    2    7 1
   6    3    4 2
   7    3   27 1
   8    4    5 1
   9    4   17 1
  10    5    6 am
  11    5   10 2
  12    6   29 1
  13    7    8 2
  14    7   11 1
  15    8    9 1
  16    8   28 1
  17   11   12 ar
  18   11   16 ar
  19   12   13 ar
  20   12   30 1
  21   13   14 ar
  22   13   31 1
  23   14   15 ar
  24   14   32 1
  25   15   16 ar
  26   15   33 1
  27   16   34 1
  28   17   18 ar
  29   17   22 ar
  30   18   19 ar
  31   18   35 1
  32   19   20 ar
  33   19   25 1
  34   20   21 ar
  35   20   23 1
  36   21   22 ar
  37   21   36 1
  38   22   37 1
  39   23   24 1
  40   24   38 1
  41   24   39 1
  42   24   40 1
  43   25   26 1
  44   26   41 1
  45   26   42 1
  46   26   43 1
  47   27   44 1

#	End of record

