#	Name: ASD01230840
#	Creating user name:	WinNT
#	Creation time:	15. 06. 2019 19:15

#	Modifying user name:	WinNT
#	Modification time:	15. 06. 2019 19:15

#	Program:	/corina/corina34_cracker 3.40 0067  02.08.2006

@<TRIPOS>MOLECULE
ASD01230840
  48   51    0    0    0
SMALL
NO_CHARGES


@<TRIPOS>ATOM
   1 C1             0.0244     1.5934    -0.8735 C.3     
   2 C2            -0.1152     0.1870    -0.2845 C.3     
   3 C3            -1.5088    -0.3758    -0.5258 C.3     
   4 C4            -2.5700     0.7101    -0.6368 C.3     
   5 N5            -2.1903     1.9053     0.1200 N.pl3   
   6 C6            -0.9769     2.4809    -0.1541 C.2     
   7 C7            -3.0686     2.4392     1.1579 C.3     
   8 C8            -3.3027     3.9303     0.9103 C.3     
   9 S9            -1.7053     4.7790     0.8020 S.o2    
  10 N10           -0.6754     3.6888     0.1214 N.am    
  11 C11            1.4225     2.1083    -0.6475 C.ar    
  12 O12           -1.7685     5.8355    -0.1462 O.2     
  13 O13           -1.1709     4.9976     2.1004 O.2     
  14 C14            2.2165     2.4463    -1.7278 C.ar    
  15 C15            3.4983     2.9190    -1.5234 C.ar    
  16 C16            3.9888     3.0546    -0.2325 C.ar    
  17 C17            3.1899     2.7147     0.8499 C.ar    
  18 C18            1.9070     2.2474     0.6401 C.ar    
  19 O19            5.2495     3.5189    -0.0287 O.3     
  20 C20            5.4247     4.8619     0.0810 C.ar    
  21 C21            4.3246     5.7074     0.0937 C.ar    
  22 C22            4.5057     7.0733     0.2053 C.ar    
  23 C23            5.7832     7.5968     0.3042 C.ar    
  24 C24            6.8801     6.7558     0.2912 C.ar    
  25 C25            6.7036     5.3895     0.1861 C.ar    
  26 C26            7.9003     4.4736     0.1725 C.3     
  27 Cl27           3.1304     8.1325     0.2208 Cl      
  28 H28           -0.1956     1.5726    -1.9409 H       
  29 H29            0.6204    -0.4695    -0.7492 H       
  30 H30            0.0722     0.2289     0.7884 H       
  31 H31           -1.4996    -0.9546    -1.4494 H       
  32 H32           -1.7685    -1.0385     0.2998 H       
  33 H33           -2.6983     0.9776    -1.6856 H       
  34 H34           -3.5141     0.3273    -0.2492 H       
  35 H35           -4.0226     1.9126     1.1329 H       
  36 H36           -2.6031     2.3016     2.1339 H       
  37 H37           -3.8489     4.0625    -0.0236 H       
  38 H38           -3.8820     4.3491     1.7333 H       
  39 H39            1.8344     2.3403    -2.7324 H       
  40 H40            4.1182     3.1825    -2.3676 H       
  41 H41            3.5694     2.8189     1.8556 H       
  42 H42            1.2847     1.9828     1.4822 H       
  43 H43            3.3279     5.2989     0.0161 H       
  44 H44            5.9232     8.6642     0.3914 H       
  45 H45            7.8759     7.1668     0.3678 H       
  46 H46            8.1445     4.1797     1.1934 H       
  47 H47            7.6715     3.5854    -0.4164 H       
  48 H48            8.7506     4.9933    -0.2692 H       
@<TRIPOS>BOND
   1    1    2 1
   2    1   11 1
   3    1    6 1
   4    1   28 1
   5    2    3 1
   6    2   29 1
   7    2   30 1
   8    3    4 1
   9    3   31 1
  10    3   32 1
  11    4    5 1
  12    4   33 1
  13    4   34 1
  14    5    6 1
  15    5    7 1
  16    6   10 2
  17    7    8 1
  18    7   35 1
  19    7   36 1
  20    8    9 1
  21    8   37 1
  22    8   38 1
  23    9   10 am
  24    9   12 2
  25    9   13 2
  26   11   14 ar
  27   11   18 ar
  28   14   15 ar
  29   14   39 1
  30   15   16 ar
  31   15   40 1
  32   16   17 ar
  33   16   19 1
  34   17   18 ar
  35   17   41 1
  36   18   42 1
  37   19   20 1
  38   20   21 ar
  39   20   25 ar
  40   21   22 ar
  41   21   43 1
  42   22   23 ar
  43   22   27 1
  44   23   24 ar
  45   23   44 1
  46   24   25 ar
  47   24   45 1
  48   25   26 1
  49   26   46 1
  50   26   47 1
  51   26   48 1

#	End of record

