#	Name: ASD01150085
#	Creating user name:	WinNT
#	Creation time:	15. 06. 2019 19:03

#	Modifying user name:	WinNT
#	Modification time:	15. 06. 2019 19:03

#	Program:	/corina/corina34_cracker 3.40 0067  02.08.2006

@<TRIPOS>MOLECULE
ASD01150085
  31   31    0    0    0
SMALL
NO_CHARGES


@<TRIPOS>ATOM
   1 C1            -0.2860     1.4233     0.0235 C.3     
   2 N2             2.9552     2.8576    -0.8925 N.2     
   3 C3             1.7601     2.3096    -0.9955 C.2     
   4 N4             1.0869     1.9238     0.1279 N.pl3   
   5 C5             1.7084     2.0065     1.3794 C.ar    
   6 O6             1.2034     2.1304    -2.2096 O.3     
   7 C7             1.9117     2.6873    -3.3483 C.3     
   8 C8             2.9129     1.3523     1.6022 C.ar    
   9 C9             3.5244     1.4352     2.8377 C.ar    
  10 C10            2.9371     2.1696     3.8542 C.ar    
  11 C11            1.7360     2.8227     3.6342 C.ar    
  12 C12            1.1242     2.7475     2.3982 C.ar    
  13 F13            3.5365     2.2486     5.0624 F       
  14 C14            3.6994     3.0740    -2.0039 C.1     
  15 N15            4.3234     3.2554    -2.9358 N.1     
  16 C16           -0.2625    -0.0710    -0.1704 C.2     
  17 O17           -1.4139    -0.7503    -0.2917 O.3     
  18 O18            0.7928    -0.6577    -0.2166 O.2     
  19 C19           -1.3153    -2.1871    -0.4759 C.3     
  20 H20           -0.8304     1.6626     0.9369 H       
  21 H21           -0.7800     1.8923    -0.8274 H       
  22 H22            1.2751     2.6379    -4.2317 H       
  23 H23            2.1687     3.7266    -3.1434 H       
  24 H24            2.8228     2.1156    -3.5245 H       
  25 H25            3.3710     0.7789     0.8099 H       
  26 H26            4.4612     0.9266     3.0114 H       
  27 H27            1.2794     3.3946     4.4284 H       
  28 H28            0.1876     3.2572     2.2270 H       
  29 H29           -0.7530    -2.3991    -1.3853 H       
  30 H30           -0.8034    -2.6288     0.3791 H       
  31 H31           -2.3155    -2.6121    -0.5598 H       
@<TRIPOS>BOND
   1    1   16 1
   2    1    4 1
   3    1   20 1
   4    1   21 1
   5    2    3 2
   6    2   14 1
   7    3    4 1
   8    3    6 1
   9    4    5 1
  10    5    8 ar
  11    5   12 ar
  12    6    7 1
  13    7   22 1
  14    7   23 1
  15    7   24 1
  16    8    9 ar
  17    8   25 1
  18    9   10 ar
  19    9   26 1
  20   10   11 ar
  21   10   13 1
  22   11   12 ar
  23   11   27 1
  24   12   28 1
  25   14   15 3
  26   16   17 1
  27   16   18 2
  28   17   19 1
  29   19   29 1
  30   19   30 1
  31   19   31 1

#	End of record

