#	Name: ASD01910595
#	Creating user name:	WinNT
#	Creation time:	15. 06. 2019 19:56

#	Modifying user name:	WinNT
#	Modification time:	15. 06. 2019 19:56

#	Program:	/corina/corina34_cracker 3.40 0067  02.08.2006

@<TRIPOS>MOLECULE
ASD01910595
  44   47    0    0    0
SMALL
NO_CHARGES


@<TRIPOS>ATOM
   1 C1            -0.6690     1.8331    -1.9790 C.ar    
   2 C2            -0.7389     0.4742    -1.7124 C.ar    
   3 C3             0.3301    -0.1772    -1.1188 C.ar    
   4 C4             1.4730     0.5255    -0.7895 C.ar    
   5 C5             1.5480     1.8965    -1.0571 C.ar    
   6 C6             0.4658     2.5454    -1.6551 C.ar    
   7 C7             2.7658     2.6545    -0.7076 C.2     
   8 N8             2.9753     3.9455    -0.9008 N.2     
   9 C9             4.2095     4.1837    -0.4310 C.2     
  10 N10            4.6850     3.0587     0.0155 N.2     
  11 O11            3.8738     2.1683    -0.1266 O.3     
  12 C12            4.9169     5.5143    -0.4228 C.3     
  13 C13            5.2540     5.9047     1.0180 C.3     
  14 C14            5.9431     7.2712     1.0301 C.3     
  15 C15            7.2491     7.1870     0.2338 C.3     
  16 N16            6.9514     6.6733    -1.1101 N.am    
  17 C17            6.2113     5.4102    -1.2356 C.3     
  18 C18            7.3495     7.3478    -2.2069 C.2     
  19 C19            8.0187     8.6572    -2.0663 C.ar    
  20 O20            7.1579     6.8786    -3.3119 O.2     
  21 C21            9.1020     8.8008    -1.1968 C.ar    
  22 C22            9.7231    10.0247    -1.0698 C.ar    
  23 C23            9.2741    11.1123    -1.8034 C.ar    
  24 C24            8.1986    10.9754    -2.6678 C.ar    
  25 C25            7.5739     9.7546    -2.8067 C.ar    
  26 F26            9.8864    12.3097    -1.6752 F       
  27 F27           -1.8544    -0.2176    -2.0325 F       
  28 F28            2.5153    -0.1096    -0.2102 F       
  29 H29           -1.5043     2.3340    -2.4457 H       
  30 H30            0.2698    -1.2356    -0.9129 H       
  31 H31            0.5182     3.6037    -1.8643 H       
  32 H32            4.2701     6.2729    -0.8635 H       
  33 H33            4.3367     5.9555     1.6046 H       
  34 H34            5.9203     5.1582     1.4502 H       
  35 H35            5.2871     8.0135     0.5756 H       
  36 H36            6.1619     7.5592     2.0584 H       
  37 H37            7.6939     8.1790     0.1555 H       
  38 H38            7.9415     6.5126     0.7377 H       
  39 H39            6.8190     4.5909    -0.8515 H       
  40 H40            5.9713     5.2299    -2.2834 H       
  41 H41            9.4523     7.9544    -0.6246 H       
  42 H42           10.5607    10.1369    -0.3973 H       
  43 H43            7.8527    11.8258    -3.2367 H       
  44 H44            6.7366     9.6489    -3.4806 H       
@<TRIPOS>BOND
   1    1    2 ar
   2    1    6 ar
   3    1   29 1
   4    2    3 ar
   5    2   27 1
   6    3    4 ar
   7    3   30 1
   8    4    5 ar
   9    4   28 1
  10    5    6 ar
  11    5    7 1
  12    6   31 1
  13    7    8 2
  14    7   11 1
  15    8    9 1
  16    9   10 2
  17    9   12 1
  18   10   11 1
  19   12   13 1
  20   12   17 1
  21   12   32 1
  22   13   14 1
  23   13   33 1
  24   13   34 1
  25   14   15 1
  26   14   35 1
  27   14   36 1
  28   15   16 1
  29   15   37 1
  30   15   38 1
  31   16   17 1
  32   16   18 am
  33   17   39 1
  34   17   40 1
  35   18   19 1
  36   18   20 2
  37   19   21 ar
  38   19   25 ar
  39   21   22 ar
  40   21   41 1
  41   22   23 ar
  42   22   42 1
  43   23   24 ar
  44   23   26 1
  45   24   25 ar
  46   24   43 1
  47   25   44 1

#	End of record

