#	Name: ASD01884492
#	Creating user name:	WinNT
#	Creation time:	15. 06. 2019 19:48

#	Modifying user name:	WinNT
#	Modification time:	15. 06. 2019 19:48

#	Program:	/corina/corina34_cracker 3.40 0067  02.08.2006

@<TRIPOS>MOLECULE
ASD01884492
  42   44    0    0    0
SMALL
NO_CHARGES


@<TRIPOS>ATOM
   1 C1            -0.0164     1.3576     0.0095 C.2     
   2 C2             0.0021    -0.0041     0.0020 C.2     
   3 C3             1.2439    -0.6751    -0.0134 C.2     
   4 C4             2.4023     0.0464    -0.0206 C.2     
   5 N5             2.3700     1.4024    -0.0126 N.am    
   6 C6             1.1986     2.0652     0.0017 C.2     
   7 C7             3.6266     2.1555    -0.0196 C.3     
   8 O8             1.1910     3.2857     0.0083 O.2     
   9 C9             4.0447     2.4218    -1.4427 C.ar    
  10 C10            3.6209     3.5710    -2.0838 C.ar    
  11 C11            4.0041     3.8158    -3.3890 C.ar    
  12 C12            4.8119     2.9105    -4.0539 C.ar    
  13 C13            5.2356     1.7606    -3.4118 C.ar    
  14 C14            4.8564     1.5197    -2.1047 C.ar    
  15 Cl15           5.2930     3.2170    -5.6935 Cl      
  16 C16            1.2896    -2.1585    -0.0214 C.ar    
  17 C17            0.8126    -2.8885     1.0727 C.ar    
  18 C18            1.8022    -2.8426    -1.1197 C.ar    
  19 N19            1.8441    -4.1600    -1.1319 N.ar    
  20 C20            1.4056    -4.8808    -0.1109 C.ar    
  21 C21            0.8751    -4.2674     1.0201 C.ar    
  22 N22            1.4714    -6.2680    -0.1720 N.pl3   
  23 C23            0.8901    -7.0768     0.9023 C.3     
  24 C24            2.1219    -6.9211    -1.3106 C.3     
  25 H25           -0.9563     1.8895     0.0169 H       
  26 H26           -0.9217    -0.5635     0.0082 H       
  27 H27            3.3527    -0.4666    -0.0325 H       
  28 H28            3.4854     3.1027     0.5010 H       
  29 H29            4.4003     1.5759     0.4840 H       
  30 H30            2.9901     4.2774    -1.5647 H       
  31 H31            3.6727     4.7134    -3.8898 H       
  32 H32            5.8662     1.0536    -3.9303 H       
  33 H33            5.1872     0.6221    -1.6033 H       
  34 H34            0.4057    -2.3860     1.9377 H       
  35 H35            2.1691    -2.2884    -1.9709 H       
  36 H36            0.5197    -4.8624     1.8483 H       
  37 H37           -0.1512    -7.2979     0.6679 H       
  38 H38            1.4470    -8.0090     0.9973 H       
  39 H39            0.9420    -6.5254     1.8411 H       
  40 H40            2.4906    -6.1634    -2.0020 H       
  41 H41            2.9565    -7.5252    -0.9547 H       
  42 H42            1.4027    -7.5607    -1.8222 H       
@<TRIPOS>BOND
   1    1    2 2
   2    1    6 1
   3    1   25 1
   4    2    3 1
   5    2   26 1
   6    3    4 2
   7    3   16 1
   8    4    5 1
   9    4   27 1
  10    5    6 am
  11    5    7 1
  12    6    8 2
  13    7    9 1
  14    7   28 1
  15    7   29 1
  16    9   10 ar
  17    9   14 ar
  18   10   11 ar
  19   10   30 1
  20   11   12 ar
  21   11   31 1
  22   12   13 ar
  23   12   15 1
  24   13   14 ar
  25   13   32 1
  26   14   33 1
  27   16   17 ar
  28   16   18 ar
  29   17   21 ar
  30   17   34 1
  31   18   19 ar
  32   18   35 1
  33   19   20 ar
  34   20   21 ar
  35   20   22 1
  36   21   36 1
  37   22   23 1
  38   22   24 1
  39   23   37 1
  40   23   38 1
  41   23   39 1
  42   24   40 1
  43   24   41 1
  44   24   42 1

#	End of record

