#	Name: ASD03092984
#	Creating user name:	WinNT
#	Creation time:	15. 06. 2019 20:33

#	Modifying user name:	WinNT
#	Modification time:	15. 06. 2019 20:33

#	Program:	/corina/corina34_cracker 3.40 0067  02.08.2006

@<TRIPOS>MOLECULE
ASD03092984
  42   45    0    0    0
SMALL
NO_CHARGES


@<TRIPOS>ATOM
   1 C1            -0.0187     1.5258     0.0104 C.3     
   2 C2             0.0021    -0.0041     0.0020 C.3     
   3 C3            -1.2387    -0.6776    -0.5878 C.3     
   4 C4             1.3513    -0.6911    -0.2180 C.3     
   5 H5             1.3553    -1.6231    -0.7832 H       
   6 C6             0.7014    -0.7075     1.1670 C.3     
   7 H7             1.1466    -0.0804     1.9393 H       
   8 C8             0.1156    -2.0110     1.6453 C.ar    
   9 C9             0.0219    -3.0853     0.7804 C.ar    
  10 C10           -0.5154    -4.2810     1.2192 C.ar    
  11 C11           -0.9585    -4.4026     2.5230 C.ar    
  12 C12           -0.8639    -3.3286     3.3881 C.ar    
  13 C13           -0.3227    -2.1342     2.9505 C.ar    
  14 S14           -1.6444    -5.9263     3.0819 S.o2    
  15 N15           -0.3964    -6.8351     3.6812 N.am    
  16 O16           -2.4775    -5.6094     4.1886 O.2     
  17 O17           -2.1141    -6.6035     1.9243 O.2     
  18 C18            2.5581     0.1909    -0.4104 C.2     
  19 N19            2.9952     1.0507     0.4594 N.2     
  20 C20            4.0986     1.6654    -0.0478 C.ar    
  21 C21            4.9614     2.6512     0.4331 C.ar    
  22 C22            6.0179     3.0727    -0.3429 C.ar    
  23 C23            6.2292     2.5230    -1.6007 C.ar    
  24 F24            7.2694     2.9460    -2.3519 F       
  25 C25            5.3828     1.5461    -2.0884 C.ar    
  26 C26            4.3149     1.1115    -1.3190 C.ar    
  27 O27            3.3383     0.1960    -1.5030 O.3     
  28 H28            1.0039     1.9031     0.0027 H       
  29 H29           -0.5459     1.8868    -0.8726 H       
  30 H30           -0.5289     1.8773     0.9072 H       
  31 H31           -1.6281    -0.0702    -1.4047 H       
  32 H32           -0.9716    -1.6650    -0.9644 H       
  33 H33           -2.0001    -0.7775     0.1857 H       
  34 H34            0.3681    -2.9904    -0.2382 H       
  35 H35           -0.5893    -5.1201     0.5433 H       
  36 H36           -1.2104    -3.4234     4.4066 H       
  37 H37           -0.2453    -1.2962     3.6275 H       
  38 H38           -0.5584    -7.4691     4.3972 H       
  39 H39            0.4965    -6.7334     3.3162 H       
  40 H40            4.8008     3.0822     1.4103 H       
  41 H41            6.6860     3.8355     0.0287 H       
  42 H42            5.5526     1.1223    -3.0672 H       
@<TRIPOS>BOND
   1    1    2 1
   2    1   28 1
   3    1   29 1
   4    1   30 1
   5    2    6 1
   6    2    3 1
   7    2    4 1
   8    3   31 1
   9    3   32 1
  10    3   33 1
  11    4    5 1
  12    4    6 1
  13    4   18 1
  14    6    7 1
  15    6    8 1
  16    8   13 ar
  17    8    9 ar
  18    9   10 ar
  19    9   34 1
  20   10   11 ar
  21   10   35 1
  22   11   12 ar
  23   11   14 1
  24   12   13 ar
  25   12   36 1
  26   13   37 1
  27   14   15 am
  28   14   16 2
  29   14   17 2
  30   15   38 1
  31   15   39 1
  32   18   27 1
  33   18   19 2
  34   19   20 1
  35   20   26 ar
  36   20   21 ar
  37   21   22 ar
  38   21   40 1
  39   22   23 ar
  40   22   41 1
  41   23   24 1
  42   23   25 ar
  43   25   26 ar
  44   25   42 1
  45   26   27 1

#	End of record

