#	Name: ASD01028022
#	Creating user name:	WinNT
#	Creation time:	15. 06. 2019 18:56

#	Modifying user name:	WinNT
#	Modification time:	15. 06. 2019 18:56

#	Program:	/corina/corina34_cracker 3.40 0067  02.08.2006

@<TRIPOS>MOLECULE
ASD01028022
  45   46    0    0    0
SMALL
NO_CHARGES


@<TRIPOS>ATOM
   1 C1             0.0157     0.1821     1.2685 C.1     
   2 C2            -0.0083     1.5503     0.8467 C.ar    
   3 C3             1.1890     2.2362     0.6256 C.ar    
   4 C4             1.1602     3.5562     0.2182 C.ar    
   5 C5            -0.0610     4.2007     0.0291 C.ar    
   6 C6            -1.2502     3.5195     0.2487 C.ar    
   7 C7            -1.2291     2.2010     0.6496 C.ar    
   8 O8            -0.0874     5.4987    -0.3706 O.3     
   9 C9            -1.3730     6.0978    -0.5452 C.3     
  10 O10            2.3236     4.2266     0.0021 O.3     
  11 C11            3.5340     3.4732     0.0980 C.3     
  12 C12            4.6238     4.1468    -0.7405 C.3     
  13 C13            5.9332     3.3700    -0.5854 C.3     
  14 N14            6.3245     3.3453     0.8297 N.3     
  15 C15            5.3151     2.6611     1.6479 C.3     
  16 C16            3.9872     3.4168     1.5595 C.3     
  17 C17            7.6466     2.7279     0.9997 C.3     
  18 C18            8.1212     2.9384     2.4144 C.2     
  19 N19            9.3176     2.4545     2.8029 N.am    
  20 O20            7.4265     3.5432     3.2035 O.2     
  21 C21            9.7790     2.6591     4.1782 C.3     
  22 N22            0.0348    -0.9033     1.6031 N.1     
  23 N23           -2.4993     1.4778     0.8828 N.pl3   
  24 O24           -3.5634     2.0479     0.7203 O.2     
  25 O25           -2.4806     0.3126     1.2371 O.2     
  26 H26            2.1347     1.7358     0.7731 H       
  27 H27           -2.1944     4.0227     0.1014 H       
  28 H28           -1.9175     6.0708     0.3987 H       
  29 H29           -1.2512     7.1327    -0.8649 H       
  30 H30           -1.9308     5.5467    -1.3023 H       
  31 H31            3.3637     2.4617    -0.2708 H       
  32 H32            4.3255     4.1516    -1.7889 H       
  33 H33            4.7658     5.1716    -0.3973 H       
  34 H34            5.7944     2.3493    -0.9417 H       
  35 H35            6.7149     3.8553    -1.1699 H       
  36 H36            5.1791     1.6437     1.2812 H       
  37 H37            5.6478     2.6316     2.6855 H       
  38 H38            4.1192     4.4301     1.9389 H       
  39 H39            3.2341     2.9000     2.1543 H       
  40 H40            7.5777     1.6596     0.7947 H       
  41 H41            8.3532     3.1859     0.3075 H       
  42 H42            9.8732     1.9708     2.1718 H       
  43 H43            9.8478     3.7275     4.3832 H       
  44 H44            9.0724     2.2012     4.8704 H       
  45 H45           10.7600     2.2010     4.3043 H       
@<TRIPOS>BOND
   1    1    2 1
   2    1   22 3
   3    2    3 ar
   4    2    7 ar
   5    3    4 ar
   6    3   26 1
   7    4    5 ar
   8    4   10 1
   9    5    6 ar
  10    5    8 1
  11    6    7 ar
  12    6   27 1
  13    7   23 1
  14    8    9 1
  15    9   28 1
  16    9   29 1
  17    9   30 1
  18   10   11 1
  19   11   12 1
  20   11   16 1
  21   11   31 1
  22   12   13 1
  23   12   32 1
  24   12   33 1
  25   13   14 1
  26   13   34 1
  27   13   35 1
  28   14   15 1
  29   14   17 1
  30   15   16 1
  31   15   36 1
  32   15   37 1
  33   16   38 1
  34   16   39 1
  35   17   18 1
  36   17   40 1
  37   17   41 1
  38   18   19 am
  39   18   20 2
  40   19   21 1
  41   19   42 1
  42   21   43 1
  43   21   44 1
  44   21   45 1
  45   23   24 2
  46   23   25 2

#	End of record

