#	Name: ASD01200072
#	Creating user name:	WinNT
#	Creation time:	15. 06. 2019 19:08

#	Modifying user name:	WinNT
#	Modification time:	15. 06. 2019 19:08

#	Program:	/corina/corina34_cracker 3.40 0067  02.08.2006

@<TRIPOS>MOLECULE
ASD01200072
  30   32    0    0    0
SMALL
NO_CHARGES


@<TRIPOS>ATOM
   1 C1            -0.0167     1.3785     0.0096 C.ar    
   2 C2             0.0021    -0.0041     0.0020 C.ar    
   3 C3             1.2138    -0.6713     0.0003 C.ar    
   4 C4             2.3954     0.0397     0.0061 C.ar    
   5 C5             2.3929     1.4268    -0.0130 C.ar    
   6 C6             1.1626     2.0908     0.0022 C.ar    
   7 S7             3.9347    -0.8309     0.0707 S.o2    
   8 N8             5.0825     0.3685    -0.1199 N.am    
   9 C9             4.7464     1.6544     0.5268 C.3     
  10 N10            3.5421     2.2013    -0.0846 N.3     
  11 C11            3.2859     3.5684     0.3883 C.3     
  12 O12            4.0729    -1.3286     1.3945 O.2     
  13 O13            3.9956    -1.6494    -1.0893 O.2     
  14 C14            3.0500     3.7648     1.8872 C.3     
  15 C15            4.3616     4.2305     1.2516 C.3     
  16 C16            1.2428    -2.1780    -0.0076 C.3     
  17 H17           -0.9608     1.9028     0.0169 H       
  18 H18           -0.9240    -0.5598    -0.0022 H       
  19 H19            1.1365     3.1704     0.0078 H       
  20 H20            5.9048     0.2315    -0.6158 H       
  21 H21            4.5728     1.4922     1.5906 H       
  22 H22            5.5714     2.3545     0.3950 H       
  23 H23            2.7271     4.2058    -0.2969 H       
  24 H24            2.3364     4.5319     2.1881 H       
  25 H25            3.0849     2.8798     2.5224 H       
  26 H26            5.2594     3.6518     1.4688 H       
  27 H27            4.5108     5.3038     1.1344 H       
  28 H28            1.2512    -2.5359    -1.0371 H       
  29 H29            2.1388    -2.5269     0.5057 H       
  30 H30            0.3592    -2.5610     0.5030 H       
@<TRIPOS>BOND
   1    1    2 ar
   2    1    6 ar
   3    1   17 1
   4    2    3 ar
   5    2   18 1
   6    3    4 ar
   7    3   16 1
   8    4    5 ar
   9    4    7 1
  10    5    6 ar
  11    5   10 1
  12    6   19 1
  13    7    8 am
  14    7   12 2
  15    7   13 2
  16    8    9 1
  17    8   20 1
  18    9   10 1
  19    9   21 1
  20    9   22 1
  21   10   11 1
  22   11   14 1
  23   11   15 1
  24   11   23 1
  25   14   15 1
  26   14   24 1
  27   14   25 1
  28   15   26 1
  29   15   27 1
  30   16   28 1
  31   16   29 1
  32   16   30 1

#	End of record

