#	Name: ASD03731259
#	Creating user name:	WinNT
#	Creation time:	15. 06. 2019 20:45

#	Modifying user name:	WinNT
#	Modification time:	15. 06. 2019 20:45

#	Program:	/corina/corina34_cracker 3.40 0067  02.08.2006

@<TRIPOS>MOLECULE
ASD03731259
  60   66    0    0    0
SMALL
NO_CHARGES


@<TRIPOS>ATOM
   1 N1            -0.0162     1.3436     0.0094 N.am    
   2 C2            -0.1013    -0.0015     0.0162 C.2     
   3 O3             0.9062    -0.6749    -0.0819 O.2     
   4 N4            -1.3033    -0.6001     0.1318 N.am    
   5 C5            -1.3959    -2.0621     0.1392 C.3     
   6 C6            -2.8610    -2.4797     0.2805 C.3     
   7 O7             1.7364    -7.7396     1.9799 O.3     
   8 C8             2.0737    -9.1237     2.1891 C.3     
   9 O9             0.9016    -9.6696     2.8224 O.3     
  10 C10           -0.1390    -8.8948     2.3961 C.ar    
  11 C11            0.3750    -7.7078     1.8790 C.ar    
  12 C12           -1.5054    -9.1103     2.4066 C.ar    
  13 C13           -2.3750    -8.1468     1.9047 C.ar    
  14 C14           -1.8503    -6.9615     1.3984 C.ar    
  15 C15           -0.4880    -6.7463     1.3809 C.ar    
  16 O16           -3.7353    -8.1665     1.8064 O.3     
  17 C17           -3.0234    -6.1237     0.9650 C.3     
  18 C18           -4.2184    -6.8209     1.6293 C.3     
  19 N19           -2.9535    -3.9418     0.2879 N.am    
  20 C20           -2.8939    -4.6939     1.4049 C.2     
  21 C21           -3.1659    -6.0695    -0.5272 C.ar    
  22 C22           -3.3209    -7.0280    -1.5036 C.ar    
  23 C23           -3.4287    -6.6537    -2.8311 C.ar    
  24 C24           -3.3797    -5.3150    -3.1750 C.ar    
  25 C25           -3.2236    -4.3512    -2.2007 C.ar    
  26 C26           -3.1147    -4.7188    -0.8618 C.ar    
  27 O27           -2.7619    -4.2941     2.5424 O.2     
  28 C28            1.4090     3.1448    -0.6871 C.ar    
  29 C29            1.2371     1.9651     0.0027 C.ar    
  30 C30            2.3030     1.3819     0.6972 C.ar    
  31 C31            3.5316     1.9638     0.7079 C.ar    
  32 C32            3.7426     3.1679     0.0142 C.ar    
  33 C33            5.0020     3.7917     0.0075 C.ar    
  34 C34            5.1735     4.9570    -0.6744 C.ar    
  35 C35            4.1174     5.5447    -1.3684 C.ar    
  36 C36            2.8838     4.9702    -1.3843 C.ar    
  37 C37            2.6684     3.7656    -0.6921 C.ar    
  38 H38           -0.8239     1.8806     0.0052 H       
  39 H39           -2.1072    -0.0628     0.2102 H       
  40 H40           -0.9941    -2.4563    -0.7942 H       
  41 H41           -0.8227    -2.4582     0.9775 H       
  42 H42           -3.2628    -2.0855     1.2139 H       
  43 H43           -3.4341    -2.0836    -0.5578 H       
  44 H44            2.2611    -9.6203     1.2371 H       
  45 H45            2.9397    -9.2118     2.8452 H       
  46 H46           -1.8999   -10.0325     2.8071 H       
  47 H47           -0.0934    -5.8252     0.9779 H       
  48 H48           -5.0891    -6.8053     0.9738 H       
  49 H49           -4.4483    -6.3624     2.5911 H       
  50 H50           -3.3587    -8.0728    -1.2328 H       
  51 H51           -3.5512    -7.4052    -3.5971 H       
  52 H52           -3.4638    -5.0229    -4.2113 H       
  53 H53           -3.1857    -3.3079    -2.4771 H       
  54 H54            0.5826     3.5865    -1.2240 H       
  55 H55            2.1473     0.4569     1.2325 H       
  56 H56            4.3442     1.5017     1.2488 H       
  57 H57            5.8298     3.3486     0.5413 H       
  58 H58            6.1426     5.4336    -0.6775 H       
  59 H59            4.2803     6.4699    -1.9013 H       
  60 H60            2.0745     5.4373    -1.9258 H       
@<TRIPOS>BOND
   1    1    2 am
   2    1   29 1
   3    1   38 1
   4    2    3 2
   5    2    4 am
   6    4    5 1
   7    4   39 1
   8    5    6 1
   9    5   40 1
  10    5   41 1
  11    6   19 1
  12    6   42 1
  13    6   43 1
  14    7    8 1
  15    7   11 1
  16    8    9 1
  17    8   44 1
  18    8   45 1
  19    9   10 1
  20   10   11 ar
  21   10   12 ar
  22   11   15 ar
  23   12   13 ar
  24   12   46 1
  25   13   14 ar
  26   13   16 1
  27   14   15 ar
  28   14   17 1
  29   15   47 1
  30   16   18 1
  31   17   18 1
  32   17   20 1
  33   17   21 1
  34   18   48 1
  35   18   49 1
  36   19   20 am
  37   19   26 1
  38   20   27 2
  39   21   22 ar
  40   21   26 ar
  41   22   23 ar
  42   22   50 1
  43   23   24 ar
  44   23   51 1
  45   24   25 ar
  46   24   52 1
  47   25   26 ar
  48   25   53 1
  49   28   29 ar
  50   28   37 ar
  51   28   54 1
  52   29   30 ar
  53   30   31 ar
  54   30   55 1
  55   31   32 ar
  56   31   56 1
  57   32   33 ar
  58   32   37 ar
  59   33   34 ar
  60   33   57 1
  61   34   35 ar
  62   34   58 1
  63   35   36 ar
  64   35   59 1
  65   36   37 ar
  66   36   60 1

#	End of record

