#	Name: ASD01903333
#	Creating user name:	WinNT
#	Creation time:	15. 06. 2019 19:54

#	Modifying user name:	WinNT
#	Modification time:	15. 06. 2019 19:54

#	Program:	/corina/corina34_cracker 3.40 0067  02.08.2006

@<TRIPOS>MOLECULE
ASD01903333
  32   35    0    0    0
SMALL
NO_CHARGES


@<TRIPOS>ATOM
   1 N1            -0.0111     0.9658     0.0074 N.pl3   
   2 H2             0.0021    -0.0041     0.0020 H       
   3 C3             1.1812     1.6760    -0.0002 C.2     
   4 C4            -1.2207     1.6425     0.0168 C.ar    
   5 S5             2.7373     0.9681    -0.0189 S.3     
   6 C6             3.4810     2.5569    -0.0061 C.2     
   7 C7             2.4843     3.4907    -0.0113 C.2     
   8 N8             1.2711     2.9688     0.0003 N.2     
   9 N9            -2.3496     0.9490     0.0184 N.ar    
  10 C10           -3.5207     1.5636     0.0272 C.ar    
  11 C11           -3.5570     2.9493     0.0350 C.ar    
  12 C12           -2.3572     3.6436     0.0330 C.ar    
  13 N13           -1.2205     2.9673     0.0294 N.ar    
  14 C14            4.9481     2.8935     0.0302 C.3     
  15 C15            5.2381     4.2062    -0.6997 C.3     
  16 C16            4.1965     5.2428    -0.3761 C.2     
  17 C17            2.8921     4.9251    -0.0735 C.2     
  18 N18            4.2966     6.5779    -0.3215 N.pl3   
  19 N19            3.0304     7.1008    -0.0123 N.2     
  20 C20            2.1886     6.1033     0.1330 C.2     
  21 C21            5.3962     3.0217     1.4875 C.3     
  22 H22           -4.4375     0.9929     0.0281 H       
  23 H23           -4.4995     3.4765     0.0419 H       
  24 H24           -2.3506     4.7235     0.0385 H       
  25 H25            5.5101     2.0896    -0.4451 H       
  26 H26            6.2176     4.5758    -0.3965 H       
  27 H27            5.2415     4.0252    -1.7746 H       
  28 H28            5.1043     7.0941    -0.4700 H       
  29 H29            1.1381     6.1852     0.3703 H       
  30 H30            5.2236     2.0780     2.0050 H       
  31 H31            6.4581     3.2654     1.5209 H       
  32 H32            4.8263     3.8128     1.9746 H       
@<TRIPOS>BOND
   1    1    2 1
   2    1    3 1
   3    1    4 1
   4    3    5 1
   5    3    8 2
   6    4    9 ar
   7    4   13 ar
   8    5    6 1
   9    6    7 2
  10    6   14 1
  11    7    8 1
  12    7   17 1
  13    9   10 ar
  14   10   11 ar
  15   10   22 1
  16   11   12 ar
  17   11   23 1
  18   12   13 ar
  19   12   24 1
  20   14   15 1
  21   14   21 1
  22   14   25 1
  23   15   16 1
  24   15   26 1
  25   15   27 1
  26   16   17 2
  27   16   18 1
  28   17   20 1
  29   18   19 1
  30   18   28 1
  31   19   20 2
  32   20   29 1
  33   21   30 1
  34   21   31 1
  35   21   32 1

#	End of record

