#	Name: ASD00310110
#	Creating user name:	WinNT
#	Creation time:	15. 06. 2019 18:33

#	Modifying user name:	WinNT
#	Modification time:	15. 06. 2019 18:33

#	Program:	/corina/corina34_cracker 3.40 0067  02.08.2006

@<TRIPOS>MOLECULE
ASD00310110
  44   46    0    0    0
SMALL
NO_CHARGES


@<TRIPOS>ATOM
   1 N1            -0.0163     1.3499     0.0095 N.pl3   
   2 C2             0.0021    -0.0041     0.0020 C.2     
   3 C3             1.2922    -0.4483    -0.0127 C.2     
   4 C4             2.1476     0.7538    -0.0144 C.ar    
   5 C5             3.5232     0.9581    -0.0260 C.ar    
   6 C6             4.0242     2.2536    -0.0235 C.ar    
   7 C7             3.1468     3.3435    -0.0092 C.ar    
   8 C8             1.7853     3.1435     0.0023 C.ar    
   9 C9             1.2697     1.8501    -0.0001 C.ar    
  10 C10            1.7402    -1.8454    -0.0237 C.2     
  11 O11            2.9286    -2.1027    -0.0361 O.2     
  12 O12            0.8342    -2.8441    -0.0202 O.3     
  13 C13            5.4901     2.4818    -0.0353 C.ar    
  14 C14            6.0523     3.3606    -0.9600 C.ar    
  15 C15            7.4192     3.5711    -0.9675 C.ar    
  16 C16            8.2309     2.9052    -0.0522 C.ar    
  17 C17            7.6708     2.0316     0.8668 C.ar    
  18 C18            6.3062     1.8226     0.8814 C.ar    
  19 O19            7.9706     4.4274    -1.8687 O.3     
  20 C20            7.0786     5.0753    -2.7778 C.3     
  21 O21            9.5748     3.1122    -0.0604 O.3     
  22 C22           10.3472     2.3968     0.9059 C.3     
  23 C23           11.8257     2.7558     0.7440 C.3     
  24 C24           12.6527     1.9899     1.7785 C.3     
  25 O25           14.0336     2.3252     1.6273 O.3     
  26 Cl26           3.7804     4.9597    -0.0055 Cl      
  27 H27           -0.8206     1.8921     0.0164 H       
  28 H28           -0.8729    -0.6372     0.0073 H       
  29 H29            4.1977     0.1147    -0.0366 H       
  30 H30            1.1158     3.9909     0.0132 H       
  31 H31            1.1773    -3.7482    -0.0278 H       
  32 H32            5.4216     3.8759    -1.6693 H       
  33 H33            8.3026     1.5167     1.5754 H       
  34 H34            5.8717     1.1446     1.6011 H       
  35 H35            7.6463     5.7289    -3.4401 H       
  36 H36            6.5546     4.3248    -3.3697 H       
  37 H37            6.3544     5.6664    -2.2172 H       
  38 H38           10.0154     2.6668     1.9084 H       
  39 H39           10.2150     1.3253     0.7557 H       
  40 H40           12.1575     2.4858    -0.2585 H       
  41 H41           11.9579     3.8273     0.8942 H       
  42 H42           12.3209     2.2599     2.7811 H       
  43 H43           12.5205     0.9184     1.6283 H       
  44 H44           14.6183     1.8751     2.2523 H       
@<TRIPOS>BOND
   1    1    2 1
   2    1    9 1
   3    1   27 1
   4    2    3 2
   5    2   28 1
   6    3    4 1
   7    3   10 1
   8    4    5 ar
   9    4    9 ar
  10    5    6 ar
  11    5   29 1
  12    6    7 ar
  13    6   13 1
  14    7    8 ar
  15    7   26 1
  16    8    9 ar
  17    8   30 1
  18   10   11 2
  19   10   12 1
  20   12   31 1
  21   13   14 ar
  22   13   18 ar
  23   14   15 ar
  24   14   32 1
  25   15   16 ar
  26   15   19 1
  27   16   17 ar
  28   16   21 1
  29   17   18 ar
  30   17   33 1
  31   18   34 1
  32   19   20 1
  33   20   35 1
  34   20   36 1
  35   20   37 1
  36   21   22 1
  37   22   23 1
  38   22   38 1
  39   22   39 1
  40   23   24 1
  41   23   40 1
  42   23   41 1
  43   24   25 1
  44   24   42 1
  45   24   43 1
  46   25   44 1

#	End of record

