#	Name: ASD00960179
#	Creating user name:	WinNT
#	Creation time:	15. 06. 2019 18:53

#	Modifying user name:	WinNT
#	Modification time:	15. 06. 2019 18:53

#	Program:	/corina/corina34_cracker 3.40 0067  02.08.2006

@<TRIPOS>MOLECULE
ASD00960179
  34   36    0    0    0
SMALL
NO_CHARGES


@<TRIPOS>ATOM
   1 C1            -0.0168     1.3892     0.0097 C.2     
   2 C2             0.0021    -0.0041     0.0020 C.2     
   3 N3             1.2749     1.8338    -0.0003 N.pl3   
   4 C4             2.1084     0.7473    -0.0140 C.2     
   5 C5             1.3253    -0.4026    -0.0128 C.2     
   6 N6             1.8429     3.1154     0.0012 N.2     
   7 C7             3.1495     3.2547    -0.0105 C.2     
   8 N8             3.9709     2.2028    -0.0240 N.2     
   9 C9             3.5076     0.9659    -0.0258 C.2     
  10 N10            4.3795    -0.1043    -0.0395 N.pl3   
  11 N11            3.6909     4.5324    -0.0093 N.pl3   
  12 C12           -1.1768     2.2049     0.0199 C.2     
  13 O13           -2.2806     1.6929     0.0230 O.2     
  14 O14           -1.0564     3.5491     0.0261 O.3     
  15 C15           -2.2667     4.3088     0.0362 C.3     
  16 C16           -1.9368     5.7792     0.0420 C.ar    
  17 C17           -1.7917     6.4597    -1.1525 C.ar    
  18 C18           -1.4890     7.8085    -1.1472 C.ar    
  19 C19           -1.3319     8.4769     0.0525 C.ar    
  20 C20           -1.4778     7.7966     1.2470 C.ar    
  21 C21           -1.7848     6.4488     1.2418 C.ar    
  22 H22           -0.8603    -0.6542     0.0071 H       
  23 H23            1.6856    -1.4207    -0.0213 H       
  24 H24            5.3371     0.0504    -0.0478 H       
  25 H25            4.0346    -1.0109    -0.0408 H       
  26 H26            3.1067     5.3067     0.0001 H       
  27 H27            4.6535     4.6512    -0.0179 H       
  28 H28           -2.8522     4.0712    -0.8519 H       
  29 H29           -2.8430     4.0622     0.9280 H       
  30 H30           -1.9145     5.9375    -2.0898 H       
  31 H31           -1.3750     8.3400    -2.0804 H       
  32 H32           -1.0947     9.5305     0.0567 H       
  33 H33           -1.3547     8.3187     2.1844 H       
  34 H34           -1.9025     5.9181     2.1750 H       
@<TRIPOS>BOND
   1    1    2 2
   2    1    3 1
   3    1   12 1
   4    2    5 1
   5    2   22 1
   6    3    4 1
   7    3    6 1
   8    4    5 2
   9    4    9 1
  10    5   23 1
  11    6    7 2
  12    7    8 1
  13    7   11 1
  14    8    9 2
  15    9   10 1
  16   10   24 1
  17   10   25 1
  18   11   26 1
  19   11   27 1
  20   12   13 2
  21   12   14 1
  22   14   15 1
  23   15   16 1
  24   15   28 1
  25   15   29 1
  26   16   17 ar
  27   16   21 ar
  28   17   18 ar
  29   17   30 1
  30   18   19 ar
  31   18   31 1
  32   19   20 ar
  33   19   32 1
  34   20   21 ar
  35   20   33 1
  36   21   34 1

#	End of record

