#	Name: ASD01880372
#	Creating user name:	WinNT
#	Creation time:	15. 06. 2019 19:40

#	Modifying user name:	WinNT
#	Modification time:	15. 06. 2019 19:40

#	Program:	/corina/corina34_cracker 3.40 0067  02.08.2006

@<TRIPOS>MOLECULE
ASD01880372
  32   34    0    0    0
SMALL
NO_CHARGES


@<TRIPOS>ATOM
   1 C1            -0.0158     1.3166     0.0093 C.ar    
   2 N2             0.0021    -0.0041     0.0020 N.ar    
   3 C3             1.1445    -0.6746    -0.0125 C.ar    
   4 C4             2.3648     0.0485    -0.0202 C.ar    
   5 C5             2.2891     1.4440    -0.0120 C.ar    
   6 N6             1.0857     2.0309     0.0026 N.ar    
   7 C7             3.7373    -0.4211    -0.0353 C.2     
   8 C8             4.6485     0.5323    -0.0385 C.2     
   9 S9             3.9102     2.1228    -0.0232 S.3     
  10 C10            6.1352     0.2862    -0.0535 C.3     
  11 N11            1.1474    -2.0578    -0.0195 N.pl3   
  12 C12           -0.1198    -2.7930    -0.0109 C.3     
  13 O13            6.5928     0.2157    -1.4054 O.3     
  14 C14            0.1587    -4.2740    -0.0210 C.ar    
  15 C15            0.2980    -4.9593     1.1714 C.ar    
  16 C16            0.5534    -6.3178     1.1621 C.ar    
  17 C17            0.6691    -6.9911    -0.0397 C.ar    
  18 C18            0.5289    -6.3060    -1.2321 C.ar    
  19 C19            0.2691    -4.9483    -1.2227 C.ar    
  20 H20           -0.9682     1.8258     0.0165 H       
  21 H21            3.9931    -1.4704    -0.0429 H       
  22 H22            6.6437     1.1022     0.4601 H       
  23 H23            6.3530    -0.6539     0.4533 H       
  24 H24            1.9884    -2.5410    -0.0301 H       
  25 H25           -0.6832    -2.5354     0.8859 H       
  26 H26           -0.7005    -2.5264    -0.8939 H       
  27 H27            7.5431     0.0587    -1.4913 H       
  28 H28            0.2076    -4.4333     2.1103 H       
  29 H29            0.6630    -6.8531     2.0937 H       
  30 H30            0.8693    -8.0524    -0.0470 H       
  31 H31            0.6196    -6.8320    -2.1710 H       
  32 H32            0.1596    -4.4130    -2.1543 H       
@<TRIPOS>BOND
   1    1    2 ar
   2    1    6 ar
   3    1   20 1
   4    2    3 ar
   5    3    4 ar
   6    3   11 1
   7    4    5 ar
   8    4    7 1
   9    5    6 ar
  10    5    9 1
  11    7    8 2
  12    7   21 1
  13    8    9 1
  14    8   10 1
  15   10   13 1
  16   10   22 1
  17   10   23 1
  18   11   12 1
  19   11   24 1
  20   12   14 1
  21   12   25 1
  22   12   26 1
  23   13   27 1
  24   14   15 ar
  25   14   19 ar
  26   15   16 ar
  27   15   28 1
  28   16   17 ar
  29   16   29 1
  30   17   18 ar
  31   17   30 1
  32   18   19 ar
  33   18   31 1
  34   19   32 1

#	End of record

