#	Name: ASD05503043
#	Creating user name:	WinNT
#	Creation time:	15. 06. 2019 21:01

#	Modifying user name:	WinNT
#	Modification time:	15. 06. 2019 21:01

#	Program:	/corina/corina34_cracker 3.40 0067  02.08.2006

@<TRIPOS>MOLECULE
ASD05503043
  43   45    0    0    0
SMALL
NO_CHARGES


@<TRIPOS>ATOM
   1 C1             0.1105     1.3472     0.2863 C.ar    
   2 C2             0.0671    -0.0207     0.0485 C.ar    
   3 C3             1.2398    -0.7161    -0.2098 C.ar    
   4 C4             2.4525    -0.0422    -0.2296 C.ar    
   5 C5             2.4890     1.3263     0.0090 C.ar    
   6 C6             1.3198     2.0156     0.2658 C.ar    
   7 N7            -1.1578    -0.6967     0.0698 N.am    
   8 C8            -1.2258    -1.9530     0.5531 C.2     
   9 O9            -0.2132    -2.5277     0.8929 O.2     
  10 N10            3.6366    -0.7394    -0.4891 N.am    
  11 C11            4.6247    -0.1513    -1.1921 C.2     
  12 C12            5.8329    -0.9209    -1.5541 C.ar    
  13 O13            4.5219     1.0124    -1.5285 O.2     
  14 C14            5.9544    -2.2573    -1.1696 C.ar    
  15 C15            7.0851    -2.9702    -1.5107 C.ar    
  16 C16            8.0982    -2.3638    -2.2322 C.ar    
  17 C17            7.9856    -1.0398    -2.6166 C.ar    
  18 C18            6.8567    -0.3161    -2.2878 C.ar    
  19 Br19           6.7038     1.4936    -2.8145 Br      
  20 C20           -2.5600    -2.6437     0.6713 C.3     
  21 C21           -2.3719    -4.0587     1.2458 C.3     
  22 C22           -3.1676    -4.1075     2.5665 C.3     
  23 C23           -4.2372    -2.9986     2.4068 C.3     
  24 C24           -3.4633    -1.8819     1.6630 C.3     
  25 H25           -0.8024     1.8897     0.4829 H       
  26 H26            1.2087    -1.7797    -0.3946 H       
  27 H27            3.4326     1.8515    -0.0059 H       
  28 H28            1.3509     3.0791     0.4510 H       
  29 H29           -1.9580    -0.2612    -0.2632 H       
  30 H30            3.7469    -1.6463    -0.1630 H       
  31 H31            5.1650    -2.7321    -0.6058 H       
  32 H32            7.1799    -4.0042    -1.2137 H       
  33 H33            8.9813    -2.9268    -2.4961 H       
  34 H34            8.7803    -0.5725    -3.1792 H       
  35 H35           -3.0398    -2.6981    -0.3059 H       
  36 H36           -2.7612    -4.7998     0.5478 H       
  37 H37           -1.3156    -4.2459     1.4391 H       
  38 H38           -3.6426    -5.0807     2.6900 H       
  39 H39           -2.5159    -3.8899     3.4127 H       
  40 H40           -5.0749    -3.3536     1.8066 H       
  41 H41           -4.5792    -2.6487     3.3808 H       
  42 H42           -2.8594    -1.3049     2.3633 H       
  43 H43           -4.1542    -1.2310     1.1272 H       
@<TRIPOS>BOND
   1    1    2 ar
   2    1    6 ar
   3    1   25 1
   4    2    3 ar
   5    2    7 1
   6    3    4 ar
   7    3   26 1
   8    4    5 ar
   9    4   10 1
  10    5    6 ar
  11    5   27 1
  12    6   28 1
  13    7    8 am
  14    7   29 1
  15    8    9 2
  16    8   20 1
  17   10   11 am
  18   10   30 1
  19   11   12 1
  20   11   13 2
  21   12   14 ar
  22   12   18 ar
  23   14   15 ar
  24   14   31 1
  25   15   16 ar
  26   15   32 1
  27   16   17 ar
  28   16   33 1
  29   17   18 ar
  30   17   34 1
  31   18   19 1
  32   20   21 1
  33   20   24 1
  34   20   35 1
  35   21   22 1
  36   21   36 1
  37   21   37 1
  38   22   23 1
  39   22   38 1
  40   22   39 1
  41   23   24 1
  42   23   40 1
  43   23   41 1
  44   24   42 1
  45   24   43 1

#	End of record

