#	Name: ASD05390001
#	Creating user name:	WinNT
#	Creation time:	15. 06. 2019 20:59

#	Modifying user name:	WinNT
#	Modification time:	15. 06. 2019 20:59

#	Program:	/corina/corina34_cracker 3.40 0067  02.08.2006

@<TRIPOS>MOLECULE
ASD05390001
  18   18    0    0    0
SMALL
NO_CHARGES


@<TRIPOS>ATOM
   1 C1            -0.0127     1.0858     0.0080 C.3     
   2 C2            -0.7416     1.5850    -1.2129 C.ar    
   3 C3            -0.0581     1.8320    -2.3964 C.ar    
   4 C4            -0.7548     2.2883    -3.4970 C.ar    
   5 N5            -2.0574     2.4918    -3.4368 N.ar    
   6 C6            -2.7444     2.2682    -2.3273 C.ar    
   7 N7            -4.1155     2.4961    -2.3084 N.pl3   
   8 C8            -2.1071     1.8020    -1.1817 C.ar    
   9 N9            -2.8138     1.5686    -0.0494 N.pl3   
  10 O10           -2.9663     2.4589     0.7677 O.2     
  11 O11           -3.2967     0.4686     0.1512 O.2     
  12 H12            0.0021    -0.0041     0.0020 H       
  13 H13            1.0099     1.4631     0.0003 H       
  14 H14           -0.5229     1.4373     0.9048 H       
  15 H15            1.0080     1.6690    -2.4548 H       
  16 H16           -0.2272     2.4816    -4.4193 H       
  17 H17           -4.5647     2.8175    -3.1058 H       
  18 H18           -4.6230     2.3337    -1.4979 H       
@<TRIPOS>BOND
   1    1   12 1
   2    1   13 1
   3    1   14 1
   4    1    2 1
   5    2    8 ar
   6    2    3 ar
   7    3   15 1
   8    3    4 ar
   9    4    5 ar
  10    4   16 1
  11    5    6 ar
  12    6    8 ar
  13    6    7 1
  14    7   17 1
  15    7   18 1
  16    8    9 1
  17    9   10 2
  18    9   11 2

#	End of record

