#	Name: ASD01814697
#	Creating user name:	WinNT
#	Creation time:	15. 06. 2019 19:32

#	Modifying user name:	WinNT
#	Modification time:	15. 06. 2019 19:32

#	Program:	/corina/corina34_cracker 3.40 0067  02.08.2006

@<TRIPOS>MOLECULE
ASD01814697
  41   44    0    0    0
SMALL
NO_CHARGES


@<TRIPOS>ATOM
   1 N1             0.0154     1.3169    -0.4312 N.2     
   2 C2             0.0390     0.0118    -0.5660 C.2     
   3 C3             1.2588    -0.6600    -0.7323 C.2     
   4 C4             2.4131     0.0497    -0.7527 C.2     
   5 C5             1.1500     2.0290    -0.4499 C.2     
   6 N6             2.3613     1.4067    -0.6104 N.pl3   
   7 C7             2.7780     3.5695    -0.4250 C.2     
   8 N8             3.3512     2.3946    -0.5901 N.2     
   9 N9             1.8082     5.7477    -0.1265 N.am    
  10 C10            3.0816     5.0424    -0.3013 C.3     
  11 C11            1.4079     3.3894    -0.3329 C.2     
  12 C12            0.7503     4.7323    -0.1440 C.3     
  13 C13            1.6414     7.0769     0.0212 C.2     
  14 O14            0.5216     7.5472     0.0701 O.2     
  15 C15            2.8200     7.9626     0.1237 C.ar    
  16 C16            3.8685     7.8434    -0.7906 C.ar    
  17 C17            2.8876     8.9266     1.1320 C.ar    
  18 C18            3.9923     9.7507     1.2215 C.ar    
  19 C19            5.0290     9.6229     0.3153 C.ar    
  20 C20            4.9655     8.6730    -0.6894 C.ar    
  21 C21           -1.2500    -0.7684    -0.5414 C.3     
  22 C22            1.2857    -2.1588    -0.8865 C.3     
  23 C23            3.7363    -0.6495    -0.9296 C.3     
  24 Br24           1.4701     9.1033     2.3711 Br      
  25 H25            3.7214     5.2154     0.5641 H       
  26 H26            3.5782     5.3952    -1.2052 H       
  27 H27            0.2072     4.7482     0.8009 H       
  28 H28            0.0647     4.9272    -0.9687 H       
  29 H29            3.8207     7.1028    -1.5752 H       
  30 H30            4.0464    10.4967     2.0006 H       
  31 H31            5.8903    10.2702     0.3892 H       
  32 H32            5.7771     8.5812    -1.3960 H       
  33 H33           -2.0868    -0.0835    -0.4042 H       
  34 H34           -1.3690    -1.3033    -1.4837 H       
  35 H35           -1.2266    -1.4829     0.2815 H       
  36 H36            0.2680    -2.5468    -0.8439 H       
  37 H37            1.7333    -2.4174    -1.8461 H       
  38 H38            1.8753    -2.5964    -0.0809 H       
  39 H39            3.5703    -1.7226    -1.0252 H       
  40 H40            4.2272    -0.2763    -1.8284 H       
  41 H41            4.3686    -0.4554    -0.0632 H       
@<TRIPOS>BOND
   1    1    2 2
   2    1    5 1
   3    2    3 1
   4    2   21 1
   5    3    4 2
   6    3   22 1
   7    4    6 1
   8    4   23 1
   9    5   11 2
  10    5    6 1
  11    6    8 1
  12    7    8 2
  13    7   11 1
  14    7   10 1
  15    9   10 1
  16    9   12 1
  17    9   13 am
  18   10   25 1
  19   10   26 1
  20   11   12 1
  21   12   27 1
  22   12   28 1
  23   13   14 2
  24   13   15 1
  25   15   17 ar
  26   15   16 ar
  27   16   20 ar
  28   16   29 1
  29   17   18 ar
  30   17   24 1
  31   18   19 ar
  32   18   30 1
  33   19   20 ar
  34   19   31 1
  35   20   32 1
  36   21   33 1
  37   21   34 1
  38   21   35 1
  39   22   36 1
  40   22   37 1
  41   22   38 1
  42   23   39 1
  43   23   40 1
  44   23   41 1

#	End of record

