#	Name: ASD07301361
#	Creating user name:	WinNT
#	Creation time:	15. 06. 2019 21:11

#	Modifying user name:	WinNT
#	Modification time:	15. 06. 2019 21:11

#	Program:	/corina/corina34_cracker 3.40 0067  02.08.2006

@<TRIPOS>MOLECULE
ASD07301361
  51   53    0    0    0
SMALL
NO_CHARGES


@<TRIPOS>ATOM
   1 C1             1.3138    -0.5617    -0.0636 C.2     
   2 C2            -0.0272     0.0405     0.0009 C.2     
   3 C3            -0.0999     1.4560     0.0589 C.2     
   4 C4             1.0634     2.1498     0.0510 C.2     
   5 N5             2.2550     1.5070    -0.0109 N.pl3   
   6 N6             2.3644     0.2309    -0.0642 N.2     
   7 O7            -1.0350    -0.6492     0.0039 O.2     
   8 C8             1.4781    -2.0297    -0.1204 C.2     
   9 C9             2.7717    -2.5938    -0.1819 C.2     
  10 C10            2.9219    -3.9365    -0.2339 C.2     
  11 O11            0.4977    -2.7531    -0.1141 O.2     
  12 N12            4.1722    -4.4817    -0.2934 N.pl3   
  13 C13            5.3510    -3.6118    -0.3010 C.3     
  14 C14            4.3350    -5.9365    -0.3497 C.3     
  15 C15            3.4243     2.2747    -0.0170 C.ar    
  16 C16            3.3481     3.6585    -0.1132 C.ar    
  17 C17            4.5044     4.4134    -0.1190 C.ar    
  18 C18            5.7373     3.7934    -0.0292 C.ar    
  19 C19            5.8168     2.4160     0.0666 C.ar    
  20 C20            4.6642     1.6555     0.0787 C.ar    
  21 C21            6.9971     4.6204    -0.0364 C.3     
  22 C22            7.7700     4.3836     1.2627 C.3     
  23 C23            9.0489     5.2233     1.2554 C.3     
  24 C24            9.9184     4.8180     0.0635 C.3     
  25 C25            9.1455     5.0547    -1.2355 C.3     
  26 C26            7.8665     4.2151    -1.2283 C.3     
  27 H27           -1.0518     1.9640     0.1075 H       
  28 H28            1.0412     3.2287     0.0943 H       
  29 H29            3.6407    -1.9525    -0.1875 H       
  30 H30            2.0529    -4.5777    -0.2283 H       
  31 H31            5.6765    -3.4321     0.7237 H       
  32 H32            6.1544    -4.0936    -0.8582 H       
  33 H33            5.0991    -2.6627    -0.7739 H       
  34 H34            4.3422    -6.2613    -1.3901 H       
  35 H35            5.2760    -6.2154     0.1245 H       
  36 H36            3.5079    -6.4152     0.1746 H       
  37 H37            2.3856     4.1433    -0.1837 H       
  38 H38            4.4459     5.4892    -0.1941 H       
  39 H39            6.7812     1.9349     0.1362 H       
  40 H40            4.7268     0.5802     0.1581 H       
  41 H41            6.7382     5.6761    -0.1178 H       
  42 H42            7.1505     4.6724     2.1118 H       
  43 H43            8.0289     3.3280     1.3441 H       
  44 H44            8.7900     6.2790     1.1739 H       
  45 H45            9.5996     5.0546     2.1809 H       
  46 H46           10.8296     5.4162     0.0584 H       
  47 H47           10.1773     3.7623     0.1450 H       
  48 H48            8.8866     6.1104    -1.3170 H       
  49 H49            9.7649     4.7660    -2.0846 H       
  50 H50            8.1254     3.1594    -1.1468 H       
  51 H51            7.3159     4.3837    -2.1537 H       
@<TRIPOS>BOND
   1    1    2 1
   2    1    6 2
   3    1    8 1
   4    2    3 1
   5    2    7 2
   6    3    4 2
   7    3   27 1
   8    4    5 1
   9    4   28 1
  10    5    6 1
  11    5   15 1
  12    8    9 1
  13    8   11 2
  14    9   10 2
  15    9   29 1
  16   10   12 1
  17   10   30 1
  18   12   13 1
  19   12   14 1
  20   13   31 1
  21   13   32 1
  22   13   33 1
  23   14   34 1
  24   14   35 1
  25   14   36 1
  26   15   16 ar
  27   15   20 ar
  28   16   17 ar
  29   16   37 1
  30   17   18 ar
  31   17   38 1
  32   18   19 ar
  33   18   21 1
  34   19   20 ar
  35   19   39 1
  36   20   40 1
  37   21   22 1
  38   21   26 1
  39   21   41 1
  40   22   23 1
  41   22   42 1
  42   22   43 1
  43   23   24 1
  44   23   44 1
  45   23   45 1
  46   24   25 1
  47   24   46 1
  48   24   47 1
  49   25   26 1
  50   25   48 1
  51   25   49 1
  52   26   50 1
  53   26   51 1

#	End of record

