#	Name: ASD02038824
#	Creating user name:	WinNT
#	Creation time:	15. 06. 2019 20:17

#	Modifying user name:	WinNT
#	Modification time:	15. 06. 2019 20:17

#	Program:	/corina/corina34_cracker 3.40 0067  02.08.2006

@<TRIPOS>MOLECULE
ASD02038824
  51   53    0    0    0
SMALL
NO_CHARGES


@<TRIPOS>ATOM
   1 C1            -1.2824    -0.8521     0.4662 C.2     
   2 C2            -0.0611    -0.0348     0.3020 C.2     
   3 N3             1.1365    -0.6349     0.1537 N.am    
   4 C4             1.2422    -2.0929     0.2500 C.3     
   5 C5             1.2144    -2.6911    -1.1330 C.ar    
   6 C6             2.3327     0.1707    -0.1040 C.3     
   7 O7            -0.1372     1.1784     0.3009 O.2     
   8 N8            -1.3373    -2.1961     0.4980 N.2     
   9 C9            -2.5926    -2.5300     0.6578 C.2     
  10 N10           -3.3111    -1.3939     0.7246 N.pl3   
  11 N11           -2.5062    -0.3939     0.6128 N.2     
  12 C12            2.3962    -3.0109    -1.7670 C.ar    
  13 C13            2.1203     1.0149    -1.3644 C.3     
  14 C14            3.3426     1.9107    -1.5812 C.3     
  15 O15            3.5422     2.7295    -0.4271 O.3     
  16 C16            3.7927     1.9952     0.7730 C.3     
  17 C17            2.5884     1.1028     1.0844 C.3     
  18 C18            0.0023    -2.9227    -1.7601 C.ar    
  19 C19           -0.0344    -3.4719    -3.0283 C.ar    
  20 C20            1.1422    -3.7937    -3.6794 C.ar    
  21 C21            2.3701    -3.5657    -3.0486 C.ar    
  22 C22            3.6312    -3.9059    -3.7354 C.2     
  23 O23            4.8116    -3.6849    -3.1247 O.3     
  24 C24            7.2439    -3.7226    -3.0121 C.3     
  25 C25            6.0113    -4.0437    -3.8597 C.3     
  26 C26           -4.7629    -1.3086     0.9007 C.3     
  27 O27            3.6049    -4.3853    -4.8514 O.2     
  28 F28            1.1061    -4.3307    -4.9186 F       
  29 H29            2.1783    -2.3577     0.7416 H       
  30 H30            0.4047    -2.4803     0.8303 H       
  31 H31            3.1911    -0.4860    -0.2453 H       
  32 H32           -2.9816    -3.5353     0.7239 H       
  33 H33            3.3403    -2.8326    -1.2738 H       
  34 H34            1.9925     0.3584    -2.2251 H       
  35 H35            1.2317     1.6343    -1.2424 H       
  36 H36            4.2239     1.2901    -1.7433 H       
  37 H37            3.1788     2.5445    -2.4527 H       
  38 H38            4.6799     1.3758     0.6416 H       
  39 H39            3.9531     2.6900     1.5974 H       
  40 H40            1.7093     1.7240     1.2558 H       
  41 H41            2.7954     0.5093     1.9749 H       
  42 H42           -0.9197    -2.6735    -1.2558 H       
  43 H43           -0.9838    -3.6502    -3.5112 H       
  44 H44            8.1445    -3.9919    -3.5638 H       
  45 H45            7.2616    -2.6564    -2.7859 H       
  46 H46            7.2037    -4.2906    -2.0827 H       
  47 H47            5.9937    -5.1098    -4.0859 H       
  48 H48            6.0515    -3.4757    -4.7892 H       
  49 H49           -4.9982    -1.2684     1.9642 H       
  50 H50           -5.1359    -0.4086     0.4118 H       
  51 H51           -5.2349    -2.1852     0.4570 H       
@<TRIPOS>BOND
   1    1    2 1
   2    1    8 1
   3    1   11 2
   4    2    3 am
   5    2    7 2
   6    3    4 1
   7    3    6 1
   8    4    5 1
   9    4   29 1
  10    4   30 1
  11    5   12 ar
  12    5   18 ar
  13    6   13 1
  14    6   17 1
  15    6   31 1
  16    8    9 2
  17    9   10 1
  18    9   32 1
  19   10   11 1
  20   10   26 1
  21   12   21 ar
  22   12   33 1
  23   13   14 1
  24   13   34 1
  25   13   35 1
  26   14   15 1
  27   14   36 1
  28   14   37 1
  29   15   16 1
  30   16   17 1
  31   16   38 1
  32   16   39 1
  33   17   40 1
  34   17   41 1
  35   18   19 ar
  36   18   42 1
  37   19   20 ar
  38   19   43 1
  39   20   21 ar
  40   20   28 1
  41   21   22 1
  42   22   23 1
  43   22   27 2
  44   23   25 1
  45   24   25 1
  46   24   44 1
  47   24   45 1
  48   24   46 1
  49   25   47 1
  50   25   48 1
  51   26   49 1
  52   26   50 1
  53   26   51 1

#	End of record

