#	Name: ASD01917539
#	Creating user name:	WinNT
#	Creation time:	15. 06. 2019 20:09

#	Modifying user name:	WinNT
#	Modification time:	15. 06. 2019 20:09

#	Program:	/corina/corina34_cracker 3.40 0067  02.08.2006

@<TRIPOS>MOLECULE
ASD01917539
  41   44    0    0    0
SMALL
NO_CHARGES


@<TRIPOS>ATOM
   1 C1            -0.0167     1.3794     0.0096 C.ar    
   2 C2             0.0021    -0.0041     0.0020 C.ar    
   3 C3             1.2171    -0.6651    -0.0131 C.ar    
   4 N4             2.3559     0.0013    -0.0200 N.ar    
   5 C5             2.3919     1.3173    -0.0132 C.ar    
   6 C6             1.2081     2.0599     0.0016 C.ar    
   7 C7             1.2462     3.4913     0.0084 C.1     
   8 C8             1.2774     4.6649     0.0141 C.1     
   9 C9             1.3155     6.0964     0.0209 C.ar    
  10 C10            0.1283     6.8411     0.0416 C.ar    
  11 C11            2.5367     6.7748     0.0129 C.ar    
  12 N12            2.5709     8.0912     0.0196 N.ar    
  13 C13            1.4693     8.8169     0.0335 C.ar    
  14 C14            0.2205     8.2211     0.0474 C.ar    
  15 C15           -1.0263     9.0672     0.0685 C.3     
  16 C16           -0.9695    11.3545     0.0462 C.2     
  17 N17           -0.8050    10.2942     0.8490 N.am    
  18 C18           -1.3527     9.5857    -1.3454 C.3     
  19 O19           -1.2818    11.0351    -1.2147 O.3     
  20 C20           -2.7382     9.1596    -1.7576 C.ar    
  21 C21           -3.8327     9.9196    -1.3894 C.ar    
  22 C22           -2.9131     8.0120    -2.5084 C.ar    
  23 C23           -4.1832     7.6205    -2.8873 C.ar    
  24 C24           -5.2807     8.3779    -2.5144 C.ar    
  25 C25           -5.1037     9.5298    -1.7668 C.ar    
  26 O26           -0.8465    12.5012     0.4288 O.2     
  27 F27           -6.5226     7.9964    -2.8847 F       
  28 H28           -0.9512     1.9207     0.0170 H       
  29 H29           -0.9225    -0.5622     0.0082 H       
  30 H30            1.2339    -1.7449    -0.0191 H       
  31 H31            3.3439     1.8272    -0.0189 H       
  32 H32           -0.8335     6.3501     0.0524 H       
  33 H33            3.4603     6.2151     0.0015 H       
  34 H34            1.5435     9.8944     0.0390 H       
  35 H35           -1.8656     8.5005     0.4717 H       
  36 H36           -0.5774    10.3300     1.7913 H       
  37 H37           -0.6132     9.2301    -2.0629 H       
  38 H38           -3.6945    10.8181    -0.8063 H       
  39 H39           -2.0570     7.4214    -2.7992 H       
  40 H40           -4.3196     6.7244    -3.4745 H       
  41 H41           -5.9587    10.1235    -1.4788 H       
@<TRIPOS>BOND
   1    1    2 ar
   2    1    6 ar
   3    1   28 1
   4    2    3 ar
   5    2   29 1
   6    3    4 ar
   7    3   30 1
   8    4    5 ar
   9    5    6 ar
  10    5   31 1
  11    6    7 1
  12    7    8 3
  13    8    9 1
  14    9   11 ar
  15    9   10 ar
  16   10   14 ar
  17   10   32 1
  18   11   12 ar
  19   11   33 1
  20   12   13 ar
  21   13   14 ar
  22   13   34 1
  23   14   15 1
  24   15   18 1
  25   15   17 1
  26   15   35 1
  27   16   17 am
  28   16   19 1
  29   16   26 2
  30   17   36 1
  31   18   19 1
  32   18   20 1
  33   18   37 1
  34   20   22 ar
  35   20   21 ar
  36   21   25 ar
  37   21   38 1
  38   22   23 ar
  39   22   39 1
  40   23   24 ar
  41   23   40 1
  42   24   25 ar
  43   24   27 1
  44   25   41 1

#	End of record

