#	Name: ASD06600076
#	Creating user name:	WinNT
#	Creation time:	15. 06. 2019 21:07

#	Modifying user name:	WinNT
#	Modification time:	15. 06. 2019 21:07

#	Program:	/corina/corina34_cracker 3.40 0067  02.08.2006

@<TRIPOS>MOLECULE
ASD06600076
 350  350    0    0    0
SMALL
NO_CHARGES


@<TRIPOS>ATOM
   1 C1           -17.4086    -4.0422   -46.2325 C.2     
   2 O2           -16.8441    -4.9850   -45.7191 O.2     
   3 N3           -16.0858    -4.4978   -48.2194 N.3     
   4 C4           -17.2755    -3.7999   -47.7140 C.3     
   5 C5           -18.5197    -4.3282   -48.4309 C.3     
   6 C6           -18.4420    -3.9717   -49.9168 C.3     
   7 C7           -19.6861    -4.4999   -50.6337 C.3     
   8 N8           -19.6117    -4.1586   -52.0565 N.pl3   
   9 C9           -20.6247    -4.5324   -52.9068 C.2     
  10 N10          -21.6566    -5.1784   -52.4455 N.2     
  11 N11          -20.5480    -4.2226   -54.2510 N.am    
  12 C12          -19.7023    -2.9288   -43.6279 C.2     
  13 O13          -20.2058    -2.0285   -44.2658 O.2     
  14 N14          -18.1594    -3.2145   -45.4791 N.am    
  15 C15          -18.3836    -3.5144   -44.0628 C.3     
  16 C16          -17.2552    -2.9058   -43.2278 C.3     
  17 C17          -17.3788    -3.3821   -41.7791 C.3     
  18 C18          -17.0788    -4.8807   -41.7075 C.3     
  19 C19          -16.3811    -2.6199   -40.9047 C.3     
  20 C20          -21.8566    -3.0803   -40.6785 C.2     
  21 O21          -20.9851    -3.5794   -39.9986 O.2     
  22 N22          -20.3221    -3.4055   -42.5302 N.am    
  23 C23          -21.6470    -2.9016   -42.1601 C.3     
  24 C24          -22.7202    -3.6794   -42.9245 C.3     
  25 C25          -22.5842    -3.3985   -44.4223 C.3     
  26 C26          -23.6574    -4.1763   -45.1866 C.3     
  27 N27          -23.5271    -3.9073   -46.6208 N.pl3   
  28 C28          -24.3892    -4.5003   -47.5125 C.2     
  29 N29          -24.2733    -4.2610   -48.7885 N.2     
  30 N30          -25.3736    -5.3458   -47.0583 N.pl3   
  31 C31          -24.6925    -2.9389   -38.3761 C.2     
  32 O32          -25.4953    -2.8586   -39.2816 O.2     
  33 N33          -23.0126    -2.6855   -40.1090 N.am    
  34 C34          -23.2163    -2.8591   -38.6686 C.3     
  35 C35          -22.6118    -1.6690   -37.9209 C.3     
  36 C36          -21.1416    -1.5128   -38.3146 C.3     
  37 O37          -23.3255    -0.4792   -38.2629 O.3     
  38 C38          -26.8101    -2.7452   -35.4027 C.2     
  39 O39          -25.8839    -2.4062   -34.6968 O.2     
  40 N40          -25.1205    -3.0995   -37.1083 N.am    
  41 C41          -26.5556    -3.1770   -36.8239 C.3     
  42 C42          -27.0359    -4.6173   -37.0132 C.3     
  43 C43          -29.5929    -2.9425   -33.0405 C.2     
  44 O44          -30.3359    -3.4998   -33.8204 O.2     
  45 N45          -28.0669    -2.7359   -34.9160 N.am    
  46 C46          -28.3143    -2.3162   -33.5344 C.3     
  47 C47          -28.4381    -0.7922   -33.4788 C.3     
  48 C48          -27.1518    -0.1563   -34.0096 C.3     
  49 O49          -29.5431    -0.3744   -34.2829 O.3     
  50 C50          -31.5839    -2.9229   -29.9748 C.2     
  51 O51          -31.0053    -1.9502   -29.5389 O.2     
  52 N52          -29.9108    -2.8832   -31.7321 N.am    
  53 C53          -31.0916    -3.5917   -31.2323 C.3     
  54 C54          -30.7230    -5.0448   -30.9264 C.3     
  55 C55          -30.3422    -5.7586   -32.2250 C.3     
  56 C56          -29.9735    -7.2116   -31.9191 C.3     
  57 N57          -29.6089    -7.8951   -33.1625 N.pl3   
  58 C58          -29.2383    -9.2188   -33.1362 C.2     
  59 N59          -28.9139    -9.8269   -34.2425 N.2     
  60 N60          -29.2099    -9.9010   -31.9429 N.pl3   
  61 C61          -33.9084    -3.7527   -27.2783 C.2     
  62 O62          -34.3572    -4.7554   -27.7921 O.2     
  63 N63          -32.6671    -3.4057   -29.3344 N.am    
  64 C64          -33.1456    -2.7556   -28.1119 C.3     
  65 C65          -34.0652    -1.5897   -28.4808 C.3     
  66 C66          -33.2537    -0.5059   -29.1934 C.3     
  67 C67          -34.1732     0.6600   -29.5622 C.3     
  68 N68          -33.3963     1.6978   -30.2446 N.pl3   
  69 C69          -34.0139     2.8489   -30.6731 C.2     
  70 N70          -35.2908     3.0169   -30.4723 N.2     
  71 N71          -33.2848     3.8228   -31.3135 N.pl3   
  72 C72          -36.3300    -4.3985   -25.5412 C.2     
  73 O73          -36.6474    -3.7957   -26.5446 O.2     
  74 N74          -34.0920    -3.5300   -25.9618 N.am    
  75 C75          -34.9032    -4.3582   -25.0576 C.3     
  76 C76          -34.8410    -3.7068   -23.6600 C.3     
  77 C77          -34.4608    -2.2366   -23.9785 C.3     
  78 C78          -33.5074    -2.4193   -25.1885 C.3     
  79 C79          -39.5563    -5.4311   -24.1674 C.2     
  80 O80          -39.0911    -5.6868   -23.0769 O.2     
  81 N81          -37.2532    -5.1044   -24.8587 N.am    
  82 C82          -38.6401    -5.1436   -25.3288 C.3     
  83 C83          -38.7909    -6.2434   -26.3817 C.3     
  84 C84          -37.8783    -5.9390   -27.5715 C.3     
  85 O85          -38.4263    -7.5019   -25.8115 O.3     
  86 C86          -43.0974    -6.2588   -23.7948 C.2     
  87 O87          -43.2749    -6.2851   -24.9942 O.2     
  88 N88          -40.8926    -5.4041   -24.3404 N.am    
  89 C89          -41.7817    -5.7790   -23.2381 C.3     
  90 C90          -42.0209    -4.5637   -22.3399 C.3     
  91 C91          -40.7048    -4.1529   -21.6766 C.3     
  92 C92          -40.9439    -2.9375   -20.7784 C.3     
  93 N93          -39.6837    -2.5442   -20.1433 N.pl3   
  94 C94          -39.6519    -1.4695   -19.2864 C.2     
  95 N95          -38.5306    -1.1195   -18.7213 N.2     
  96 N96          -40.8027    -0.7640   -19.0256 N.pl3   
  97 C97          -46.4385    -6.9286   -22.4714 C.2     
  98 O98          -46.1454    -6.6381   -21.3309 O.2     
  99 N99          -44.0768    -6.6588   -22.9597 N.am    
 100 C100         -45.3557    -7.1253   -23.5009 C.3     
 101 C101         -45.2496    -8.6106   -23.8520 C.3     
 102 C102         -44.1080    -8.8187   -24.8492 C.3     
 103 O103         -44.9887    -9.3631   -22.6655 O.3     
 104 C104         -50.0304    -7.5506   -22.1986 C.2     
 105 O105         -50.0321    -8.2895   -23.1604 O.2     
 106 N106         -47.7326    -7.0755   -22.8180 N.am    
 107 C107         -48.7893    -6.7699   -21.8504 C.3     
 108 C108         -49.1006    -5.2725   -21.8910 C.3     
 109 C109         -47.8778    -4.4843   -21.4173 C.3     
 110 C110         -48.1890    -2.9869   -21.4579 C.3     
 111 C111         -46.9662    -2.1988   -20.9842 C.3     
 112 N112         -47.2651    -0.7610   -21.0232 N.3     
 113 C113         -53.5561    -7.4736   -21.2360 C.2     
 114 O114         -53.4244    -6.4339   -20.6257 O.2     
 115 N115         -51.1385    -7.4278   -21.4413 N.am    
 116 C116         -52.3450    -8.1867   -21.7799 C.3     
 117 C117         -52.2573    -9.5849   -21.1647 C.3     
 118 C118         -57.0761    -8.2910   -20.6844 C.2     
 119 O119         -56.9494    -9.4357   -21.0646 O.2     
 120 N120         -54.7856    -7.9914   -21.4278 N.am    
 121 C121         -55.9629    -7.2982   -20.8991 C.3     
 122 C122         -56.4170    -6.2307   -21.8967 C.3     
 123 C123         -55.3424    -5.1474   -22.0089 C.3     
 124 C124         -56.6374    -6.8742   -23.2672 C.3     
 125 C125         -60.1657    -8.7893   -21.2083 C.2     
 126 O126         -59.8525    -8.0437   -22.1122 O.2     
 127 N127         -58.2125    -7.9069   -20.0700 N.am    
 128 C128         -59.3340    -8.8422   -19.9527 C.3     
 129 C129         -60.1985    -8.4537   -18.7516 C.3     
 130 C130         -59.3903    -8.6273   -17.4641 C.3     
 131 C131         -60.2549    -8.2389   -16.2630 C.3     
 132 N132         -59.4810    -8.4051   -15.0302 N.pl3   
 133 C133         -60.0538    -8.1147   -13.8146 C.2     
 134 N134         -61.2854    -7.6916   -13.7590 N.2     
 135 N135         -59.3276    -8.2707   -12.6577 N.pl3   
 136 C136         -63.4745    -9.9549   -22.2358 C.2     
 137 O137         -63.7724   -10.2757   -21.1096 O.2     
 138 N138         -61.2575    -9.5704   -21.3269 N.am    
 139 C139         -62.0660    -9.5190   -22.5475 C.3     
 140 C140         -61.4635   -10.4539   -23.5981 C.3     
 141 C141         -62.3078   -10.4002   -24.8729 C.3     
 142 C142         -60.0335   -10.0113   -23.9145 C.3     
 143 O143         -64.3981    -9.9869   -23.2093 O.3     
 144 C144         -19.4225    -3.6778   -54.7538 C.2     
 145 O145         -18.4387    -3.5645   -54.0540 O.2     
 146 C146          -9.4488     4.1312   -68.5644 C.3     
 147 C147          -9.4852     3.6556   -67.1107 C.3     
 148 C148         -10.8685     3.0826   -66.7960 C.3     
 149 C149         -10.9049     2.6069   -65.3423 C.3     
 150 C150         -12.2882     2.0339   -65.0276 C.3     
 151 C151         -12.3246     1.5583   -63.5739 C.3     
 152 C152         -13.7079     0.9853   -63.2592 C.3     
 153 C153         -13.7443     0.5096   -61.8055 C.3     
 154 C154         -15.1276    -0.0633   -61.4908 C.3     
 155 C155         -15.1640    -0.5390   -60.0371 C.3     
 156 C156         -16.5473    -1.1120   -59.7224 C.3     
 157 C157         -16.5837    -1.5876   -58.2687 C.3     
 158 C158         -17.9670    -2.1606   -57.9540 C.3     
 159 C159         -18.0034    -2.6363   -56.5003 C.3     
 160 C160         -19.3867    -3.2093   -56.1856 C.3     
 161 H161         -16.1541    -5.4917   -48.0589 H       
 162 H162         -15.9380    -4.2988   -49.1974 H       
 163 H163         -17.1757    -2.7305   -47.8997 H       
 164 H164         -18.5709    -5.4112   -48.3193 H       
 165 H165         -19.4101    -3.8754   -47.9947 H       
 166 H166         -18.3907    -2.8886   -50.0284 H       
 167 H167         -17.5515    -4.4245   -50.3530 H       
 168 H168         -19.7373    -5.5830   -50.5221 H       
 169 H169         -20.5765    -4.0472   -50.1975 H       
 170 H170         -18.8474    -3.6688   -52.3984 H       
 171 H171         -22.4045    -5.3784   -53.0299 H       
 172 H172         -21.3042    -4.3972   -54.8329 H       
 173 H173         -18.5513    -2.4202   -45.8746 H       
 174 H174         -18.4005    -4.5947   -43.9183 H       
 175 H175         -16.2933    -3.2202   -43.6328 H       
 176 H176         -17.3251    -1.8185   -43.2600 H       
 177 H177         -18.3915    -3.1968   -41.4208 H       
 178 H178         -16.1040    -5.0778   -42.1537 H       
 179 H179         -17.0728    -5.2007   -40.6656 H       
 180 H180         -17.8457    -5.4312   -42.2524 H       
 181 H181         -16.5949    -1.5523   -40.9557 H       
 182 H182         -16.4692    -2.9592   -39.8726 H       
 183 H183         -15.3684    -2.8052   -41.2629 H       
 184 H184         -19.8910    -4.0822   -41.9851 H       
 185 H185         -21.7167    -1.8434   -42.4119 H       
 186 H186         -22.5946    -4.7467   -42.7421 H       
 187 H187         -23.7074    -3.3664   -42.5843 H       
 188 H188         -22.7098    -2.3312   -44.6046 H       
 189 H189         -21.5971    -3.7115   -44.7625 H       
 190 H190         -23.5318    -5.2435   -45.0042 H       
 191 H191         -24.6445    -3.8633   -44.8464 H       
 192 H192         -22.8326    -3.3107   -46.9412 H       
 193 H193         -24.8816    -4.6794   -49.4177 H       
 194 H194         -25.4599    -5.5240   -46.1087 H       
 195 H195         -25.9819    -5.7643   -47.6875 H       
 196 H196         -23.7096    -2.2863   -40.6527 H       
 197 H197         -22.7308    -3.7785   -38.3413 H       
 198 H198         -22.6841    -1.8401   -36.8468 H       
 199 H199         -21.0693    -1.3418   -39.3887 H       
 200 H200         -20.7109    -0.6650   -37.7819 H       
 201 H201         -20.5972    -2.4204   -38.0538 H       
 202 H202         -23.3038    -0.2648   -39.2056 H       
 203 H203         -24.4784    -3.1637   -36.3841 H       
 204 H204         -27.0970    -2.5209   -37.5054 H       
 205 H205         -28.1036    -4.6749   -36.8016 H       
 206 H206         -26.8518    -4.9295   -38.0411 H       
 207 H207         -26.4945    -5.2734   -36.3316 H       
 208 H208         -28.8076    -3.0071   -35.4806 H       
 209 H209         -27.4853    -2.6366   -32.9034 H       
 210 H210         -28.6000    -0.4783   -32.4476 H       
 211 H211         -27.0400    -0.3917   -35.0680 H       
 212 H212         -27.2012     0.9250   -33.8812 H       
 213 H213         -26.2977    -0.5491   -33.4579 H       
 214 H214         -30.3935    -0.7402   -34.0034 H       
 215 H215         -29.3577    -2.3714   -31.1213 H       
 216 H216         -31.8768    -3.5674   -31.9880 H       
 217 H217         -29.8784    -5.0681   -30.2378 H       
 218 H218         -31.5763    -5.5481   -30.4719 H       
 219 H219         -31.1868    -5.7352   -32.9136 H       
 220 H220         -29.4888    -5.2552   -32.6795 H       
 221 H221         -29.1289    -7.2350   -31.2305 H       
 222 H222         -30.8268    -7.7150   -31.4646 H       
 223 H223         -29.6289    -7.4137   -34.0044 H       
 224 H224         -28.6524   -10.7608   -34.2239 H       
 225 H225         -29.4513    -9.4485   -31.1196 H       
 226 H226         -28.9484   -10.8350   -31.9243 H       
 227 H227         -33.1298    -4.1837   -29.6830 H       
 228 H228         -32.2949    -2.3813   -27.5426 H       
 229 H229         -34.8556    -1.9453   -29.1417 H       
 230 H230         -34.5079    -1.1755   -27.5749 H       
 231 H231         -32.4633    -0.1502   -28.5325 H       
 232 H232         -32.8110    -0.9200   -30.0992 H       
 233 H233         -34.9637     0.3044   -30.2232 H       
 234 H234         -34.6160     1.0742   -28.6564 H       
 235 H235         -32.4460     1.5728   -30.3940 H       
 236 H236         -35.7266     3.8290   -30.7747 H       
 237 H237         -32.3345     3.6977   -31.4629 H       
 238 H238         -33.7205     4.6349   -31.6158 H       
 239 H239         -34.4973    -5.3690   -25.0164 H       
 240 H240         -35.8124    -3.7560   -23.1680 H       
 241 H241         -34.0730    -4.1798   -23.0479 H       
 242 H242         -35.3413    -1.6564   -24.2546 H       
 243 H243         -33.9397    -1.7771   -23.1386 H       
 244 H244         -32.5050    -2.6799   -24.8487 H       
 245 H245         -33.4806    -1.5109   -25.7903 H       
 246 H246         -36.9993    -5.5866   -24.0562 H       
 247 H247         -38.9020    -4.1812   -25.7686 H       
 248 H248         -39.8265    -6.2838   -26.7192 H       
 249 H249         -36.8368    -6.0076   -27.2574 H       
 250 H250         -38.0661    -6.6599   -28.3672 H       
 251 H251         -38.0819    -4.9326   -27.9374 H       
 252 H252         -38.9645    -7.7597   -25.0506 H       
 253 H253         -41.2657    -5.1365   -25.1949 H       
 254 H254         -41.3213    -6.5766   -22.6551 H       
 255 H255         -42.3986    -3.7365   -22.9408 H       
 256 H256         -42.7511    -4.8178   -21.5716 H       
 257 H257         -40.3270    -4.9801   -21.0756 H       
 258 H258         -39.9745    -3.8988   -22.4449 H       
 259 H259         -41.3216    -2.1103   -21.3794 H       
 260 H260         -41.6742    -3.1916   -20.0101 H       
 261 H261         -38.8717    -3.0420   -20.3273 H       
 262 H262         -38.5082    -0.3613   -18.1168 H       
 263 H263         -41.6371    -1.0245   -19.4461 H       
 264 H264         -40.7802    -0.0058   -18.4210 H       
 265 H265         -43.9348    -6.6378   -22.0004 H       
 266 H266         -45.5997    -6.5564   -24.3981 H       
 267 H267         -46.1863    -8.9467   -24.2968 H       
 268 H268         -43.1734    -8.4705   -24.4094 H       
 269 H269         -44.0239    -9.8786   -25.0894 H       
 270 H270         -44.3133    -8.2551   -25.7593 H       
 271 H271         -45.6730    -9.2783   -21.9876 H       
 272 H272         -47.9644    -7.3835   -23.7081 H       
 273 H273         -48.4561    -7.0447   -20.8496 H       
 274 H274         -49.3481    -4.9804   -22.9115 H       
 275 H275         -49.9460    -5.0593   -21.2369 H       
 276 H276         -47.6303    -4.7764   -20.3967 H       
 277 H277         -47.0323    -4.6976   -22.0714 H       
 278 H278         -48.4366    -2.6948   -22.4784 H       
 279 H279         -49.0345    -2.7737   -20.8038 H       
 280 H280         -46.7187    -2.4909   -19.9636 H       
 281 H281         -46.1208    -2.4120   -21.6383 H       
 282 H282         -48.0850    -0.5471   -20.4753 H       
 283 H283         -46.4724    -0.2184   -20.7146 H       
 284 H284         -51.1371    -6.8368   -20.6721 H       
 285 H285         -52.4291    -8.2710   -22.8633 H       
 286 H286         -52.1732    -9.5005   -20.0813 H       
 287 H287         -53.1550   -10.1495   -21.4166 H       
 288 H288         -51.3813   -10.1006   -21.5581 H       
 289 H289         -54.8909    -8.8230   -21.9159 H       
 290 H290         -55.7103    -6.8248   -19.9503 H       
 291 H291         -57.3490    -5.7835   -21.5512 H       
 292 H292         -54.4091    -5.5954   -22.3499 H       
 293 H293         -55.6638    -4.3893   -22.7230 H       
 294 H294         -55.1886    -4.6858   -21.0335 H       
 295 H295         -57.4030    -7.6459   -23.1873 H       
 296 H296         -56.9609    -6.1137   -23.9779 H       
 297 H297         -55.7054    -7.3214   -23.6127 H       
 298 H298         -58.2879    -7.0112   -19.7055 H       
 299 H299         -58.9510    -9.8530   -19.8130 H       
 300 H300         -60.5086    -7.4133   -18.8485 H       
 301 H301         -61.0801    -9.0938   -18.7163 H       
 302 H302         -59.0802    -9.6678   -17.3673 H       
 303 H303         -58.5088    -7.9872   -17.4994 H       
 304 H304         -60.5650    -7.1984   -16.3599 H       
 305 H305         -61.1364    -8.8790   -16.2277 H       
 306 H306         -58.5645    -8.7200   -15.0717 H       
 307 H307         -61.6896    -7.4867   -12.9013 H       
 308 H308         -58.4111    -8.5856   -12.6991 H       
 309 H309         -59.7318    -8.0658   -11.8001 H       
 310 H310         -61.5080   -10.1667   -20.6040 H       
 311 H311         -62.0781    -8.4994   -22.9326 H       
 312 H312         -61.4514   -11.4735   -23.2130 H       
 313 H313         -62.3199    -9.3806   -25.2580 H       
 314 H314         -61.8786   -11.0662   -25.6213 H       
 315 H315         -63.3266   -10.7155   -24.6474 H       
 316 H316         -59.4319   -10.0496   -23.0063 H       
 317 H317         -59.6042   -10.6774   -24.6630 H       
 318 H318         -60.0455    -8.9917   -24.2996 H       
 319 H319         -65.2878   -10.2733   -22.9612 H       
 320 H320          -8.4633     4.5394   -68.7886 H       
 321 H321          -9.6531     3.2902   -69.2271 H       
 322 H322         -10.2041     4.9029   -68.7132 H       
 323 H323          -8.7299     2.8839   -66.9619 H       
 324 H324          -9.2809     4.4965   -66.4480 H       
 325 H325         -11.6238     3.8542   -66.9448 H       
 326 H326         -11.0728     2.2416   -67.4587 H       
 327 H327         -10.1496     1.8353   -65.1935 H       
 328 H328         -10.7006     3.4479   -64.6796 H       
 329 H329         -13.0435     2.8056   -65.1765 H       
 330 H330         -12.4925     1.1930   -65.6903 H       
 331 H331         -11.5692     0.7866   -63.4251 H       
 332 H332         -12.1203     2.3993   -62.9112 H       
 333 H333         -14.4632     1.7569   -63.4081 H       
 334 H334         -13.9122     0.1443   -63.9219 H       
 335 H335         -12.9889    -0.2620   -61.6567 H       
 336 H336         -13.5400     1.3506   -61.1428 H       
 337 H337         -15.8829     0.7083   -61.6397 H       
 338 H338         -15.3318    -0.9043   -62.1535 H       
 339 H339         -14.4086    -1.3106   -59.8883 H       
 340 H340         -14.9597     0.3020   -59.3744 H       
 341 H341         -17.3026    -0.3403   -59.8713 H       
 342 H342         -16.7515    -1.9530   -60.3851 H       
 343 H343         -15.8283    -2.3593   -58.1199 H       
 344 H344         -16.3794    -0.7466   -57.6060 H       
 345 H345         -18.7223    -1.3890   -58.1029 H       
 346 H346         -18.1712    -3.0016   -58.6167 H       
 347 H347         -17.2480    -3.4079   -56.3515 H       
 348 H348         -17.7991    -1.7953   -55.8376 H       
 349 H349         -19.5909    -4.0502   -56.8483 H       
 350 H350         -20.1420    -2.4376   -56.3345 H       
@<TRIPOS>BOND
   1    1    2 2
   2    1    4 1
   3    1   14 am
   4    3    4 1
   5    3  161 1
   6    3  162 1
   7    4    5 1
   8    4  163 1
   9    5    6 1
  10    5  164 1
  11    5  165 1
  12    6    7 1
  13    6  166 1
  14    6  167 1
  15    7    8 1
  16    7  168 1
  17    7  169 1
  18    8    9 1
  19    8  170 1
  20    9   10 2
  21    9   11 1
  22   10  171 1
  23   11  144 am
  24   11  172 1
  25   12   13 2
  26   12   15 1
  27   12   22 am
  28   14   15 1
  29   14  173 1
  30   15   16 1
  31   15  174 1
  32   16   17 1
  33   16  175 1
  34   16  176 1
  35   17   18 1
  36   17   19 1
  37   17  177 1
  38   18  178 1
  39   18  179 1
  40   18  180 1
  41   19  181 1
  42   19  182 1
  43   19  183 1
  44   20   21 2
  45   20   23 1
  46   20   33 am
  47   22   23 1
  48   22  184 1
  49   23   24 1
  50   23  185 1
  51   24   25 1
  52   24  186 1
  53   24  187 1
  54   25   26 1
  55   25  188 1
  56   25  189 1
  57   26   27 1
  58   26  190 1
  59   26  191 1
  60   27   28 1
  61   27  192 1
  62   28   29 2
  63   28   30 1
  64   29  193 1
  65   30  194 1
  66   30  195 1
  67   31   32 2
  68   31   34 1
  69   31   40 am
  70   33   34 1
  71   33  196 1
  72   34   35 1
  73   34  197 1
  74   35   36 1
  75   35   37 1
  76   35  198 1
  77   36  199 1
  78   36  200 1
  79   36  201 1
  80   37  202 1
  81   38   39 2
  82   38   41 1
  83   38   45 am
  84   40   41 1
  85   40  203 1
  86   41   42 1
  87   41  204 1
  88   42  205 1
  89   42  206 1
  90   42  207 1
  91   43   44 2
  92   43   46 1
  93   43   52 am
  94   45   46 1
  95   45  208 1
  96   46   47 1
  97   46  209 1
  98   47   48 1
  99   47   49 1
 100   47  210 1
 101   48  211 1
 102   48  212 1
 103   48  213 1
 104   49  214 1
 105   50   51 2
 106   50   53 1
 107   50   63 am
 108   52   53 1
 109   52  215 1
 110   53   54 1
 111   53  216 1
 112   54   55 1
 113   54  217 1
 114   54  218 1
 115   55   56 1
 116   55  219 1
 117   55  220 1
 118   56   57 1
 119   56  221 1
 120   56  222 1
 121   57   58 1
 122   57  223 1
 123   58   59 2
 124   58   60 1
 125   59  224 1
 126   60  225 1
 127   60  226 1
 128   61   62 2
 129   61   64 1
 130   61   74 am
 131   63   64 1
 132   63  227 1
 133   64   65 1
 134   64  228 1
 135   65   66 1
 136   65  229 1
 137   65  230 1
 138   66   67 1
 139   66  231 1
 140   66  232 1
 141   67   68 1
 142   67  233 1
 143   67  234 1
 144   68   69 1
 145   68  235 1
 146   69   70 2
 147   69   71 1
 148   70  236 1
 149   71  237 1
 150   71  238 1
 151   72   73 2
 152   72   81 am
 153   72   75 1
 154   74   75 1
 155   74   78 1
 156   75   76 1
 157   75  239 1
 158   76   77 1
 159   76  240 1
 160   76  241 1
 161   77   78 1
 162   77  242 1
 163   77  243 1
 164   78  244 1
 165   78  245 1
 166   79   80 2
 167   79   82 1
 168   79   88 am
 169   81   82 1
 170   81  246 1
 171   82   83 1
 172   82  247 1
 173   83   84 1
 174   83   85 1
 175   83  248 1
 176   84  249 1
 177   84  250 1
 178   84  251 1
 179   85  252 1
 180   86   87 2
 181   86   89 1
 182   86   99 am
 183   88   89 1
 184   88  253 1
 185   89   90 1
 186   89  254 1
 187   90   91 1
 188   90  255 1
 189   90  256 1
 190   91   92 1
 191   91  257 1
 192   91  258 1
 193   92   93 1
 194   92  259 1
 195   92  260 1
 196   93   94 1
 197   93  261 1
 198   94   95 2
 199   94   96 1
 200   95  262 1
 201   96  263 1
 202   96  264 1
 203   97   98 2
 204   97  100 1
 205   97  106 am
 206   99  100 1
 207   99  265 1
 208  100  101 1
 209  100  266 1
 210  101  102 1
 211  101  103 1
 212  101  267 1
 213  102  268 1
 214  102  269 1
 215  102  270 1
 216  103  271 1
 217  104  105 2
 218  104  107 1
 219  104  115 am
 220  106  107 1
 221  106  272 1
 222  107  108 1
 223  107  273 1
 224  108  109 1
 225  108  274 1
 226  108  275 1
 227  109  110 1
 228  109  276 1
 229  109  277 1
 230  110  111 1
 231  110  278 1
 232  110  279 1
 233  111  112 1
 234  111  280 1
 235  111  281 1
 236  112  282 1
 237  112  283 1
 238  113  114 2
 239  113  116 1
 240  113  120 am
 241  115  116 1
 242  115  284 1
 243  116  117 1
 244  116  285 1
 245  117  286 1
 246  117  287 1
 247  117  288 1
 248  118  119 2
 249  118  121 1
 250  118  127 am
 251  120  121 1
 252  120  289 1
 253  121  122 1
 254  121  290 1
 255  122  123 1
 256  122  124 1
 257  122  291 1
 258  123  292 1
 259  123  293 1
 260  123  294 1
 261  124  295 1
 262  124  296 1
 263  124  297 1
 264  125  126 2
 265  125  128 1
 266  125  138 am
 267  127  128 1
 268  127  298 1
 269  128  129 1
 270  128  299 1
 271  129  130 1
 272  129  300 1
 273  129  301 1
 274  130  131 1
 275  130  302 1
 276  130  303 1
 277  131  132 1
 278  131  304 1
 279  131  305 1
 280  132  133 1
 281  132  306 1
 282  133  134 2
 283  133  135 1
 284  134  307 1
 285  135  308 1
 286  135  309 1
 287  136  137 2
 288  136  139 1
 289  136  143 1
 290  138  139 1
 291  138  310 1
 292  139  140 1
 293  139  311 1
 294  140  141 1
 295  140  142 1
 296  140  312 1
 297  141  313 1
 298  141  314 1
 299  141  315 1
 300  142  316 1
 301  142  317 1
 302  142  318 1
 303  143  319 1
 304  144  145 2
 305  144  160 1
 306  146  147 1
 307  146  320 1
 308  146  321 1
 309  146  322 1
 310  147  148 1
 311  147  323 1
 312  147  324 1
 313  148  149 1
 314  148  325 1
 315  148  326 1
 316  149  150 1
 317  149  327 1
 318  149  328 1
 319  150  151 1
 320  150  329 1
 321  150  330 1
 322  151  152 1
 323  151  331 1
 324  151  332 1
 325  152  153 1
 326  152  333 1
 327  152  334 1
 328  153  154 1
 329  153  335 1
 330  153  336 1
 331  154  155 1
 332  154  337 1
 333  154  338 1
 334  155  156 1
 335  155  339 1
 336  155  340 1
 337  156  157 1
 338  156  341 1
 339  156  342 1
 340  157  158 1
 341  157  343 1
 342  157  344 1
 343  158  159 1
 344  158  345 1
 345  158  346 1
 346  159  160 1
 347  159  347 1
 348  159  348 1
 349  160  349 1
 350  160  350 1

#	End of record

