#	Name: ASD03090309
#	Creating user name:	WinNT
#	Creation time:	15. 06. 2019 20:28

#	Modifying user name:	WinNT
#	Modification time:	15. 06. 2019 20:28

#	Program:	/corina/corina34_cracker 3.40 0067  02.08.2006

@<TRIPOS>MOLECULE
ASD03090309
  50   53    0    0    0
SMALL
NO_CHARGES


@<TRIPOS>ATOM
   1 N1            -0.0374     1.1052     1.2622 N.ar    
   2 C2             0.0317    -0.2122     1.2551 C.ar    
   3 C3             1.2246    -0.8577     1.0026 C.ar    
   4 C4             2.3696    -0.0936     0.7522 C.ar    
   5 C5             2.2502     1.3000     0.7697 C.ar    
   6 C6             1.0174     1.8626     1.0312 C.ar    
   7 C7             3.6714    -0.7419     0.4769 C.2     
   8 N8             5.7095    -3.4471    -0.4625 N.pl3   
   9 C9             4.8793    -4.5026    -0.8485 C.ar    
  10 C10            5.2590    -5.8149    -0.5950 C.ar    
  11 C11            4.4377    -6.8583    -0.9763 C.ar    
  12 C12            3.2375    -6.6002    -1.6107 C.ar    
  13 C13            2.8531    -5.2911    -1.8670 C.ar    
  14 C14            3.6710    -4.2414    -1.4807 C.ar    
  15 N15            3.8499    -1.9892     0.0907 N.2     
  16 C16            5.1524    -2.2308    -0.0628 C.2     
  17 N17            5.8268    -1.1405     0.2231 N.2     
  18 N18            4.8864    -0.1574     0.5715 N.pl3   
  19 C19            5.1672     1.2248     0.9675 C.3     
  20 C20            5.2119     2.0996    -0.2588 C.2     
  21 N21            5.4569     3.4192    -0.1367 N.am    
  22 O22            1.6727    -5.0391    -2.4914 O.3     
  23 O23            5.0273     1.6160    -1.3556 O.2     
  24 C24            5.5003     4.2696    -1.3289 C.3     
  25 C25            5.1958     5.7579    -1.1465 C.3     
  26 C26            6.6289     5.2983    -1.4221 C.3     
  27 C27           -1.2092    -1.0231     1.5268 C.3     
  28 C28            0.8774    -6.1690    -2.8560 C.3     
  29 F29            0.5474    -6.8970    -1.7079 F       
  30 F30           -0.2939    -5.7317    -3.4837 F       
  31 F31            1.6002    -6.9844    -3.7335 F       
  32 H32            1.2739    -1.9366     0.9987 H       
  33 H33            3.1097     1.9263     0.5818 H       
  34 H34            0.9150     2.9376     1.0469 H       
  35 H35            6.6730    -3.5594    -0.4721 H       
  36 H36            6.1968    -6.0194    -0.0999 H       
  37 H37            4.7344    -7.8777    -0.7785 H       
  38 H38            2.5979    -7.4180    -1.9079 H       
  39 H39            3.3736    -3.2223    -1.6793 H       
  40 H40            4.3826     1.5775     1.6370 H       
  41 H41            6.1284     1.2679     1.4797 H       
  42 H42            5.6045     3.8060     0.7405 H       
  43 H43            5.1708     3.7982    -2.2548 H       
  44 H44            4.6663     6.2657    -1.9526 H       
  45 H45            4.9632     6.1043    -0.1395 H       
  46 H46            7.3392     5.3425    -0.5964 H       
  47 H47            7.0423     5.5039    -2.4095 H       
  48 H48           -1.7245    -1.2245     0.5877 H       
  49 H49           -0.9312    -1.9658     1.9981 H       
  50 H50           -1.8693    -0.4655     2.1912 H       
@<TRIPOS>BOND
   1    1    2 ar
   2    1    6 ar
   3    2    3 ar
   4    2   27 1
   5    3    4 ar
   6    3   32 1
   7    4    5 ar
   8    4    7 1
   9    5    6 ar
  10    5   33 1
  11    6   34 1
  12    7   15 2
  13    7   18 1
  14    8    9 1
  15    8   16 1
  16    8   35 1
  17    9   10 ar
  18    9   14 ar
  19   10   11 ar
  20   10   36 1
  21   11   12 ar
  22   11   37 1
  23   12   13 ar
  24   12   38 1
  25   13   14 ar
  26   13   22 1
  27   14   39 1
  28   15   16 1
  29   16   17 2
  30   17   18 1
  31   18   19 1
  32   19   20 1
  33   19   40 1
  34   19   41 1
  35   20   21 am
  36   20   23 2
  37   21   24 1
  38   21   42 1
  39   22   28 1
  40   24   25 1
  41   24   26 1
  42   24   43 1
  43   25   26 1
  44   25   44 1
  45   25   45 1
  46   26   46 1
  47   26   47 1
  48   27   48 1
  49   27   49 1
  50   27   50 1
  51   28   29 1
  52   28   30 1
  53   28   31 1

#	End of record

