#	Name: ASD02320007
#	Creating user name:	WinNT
#	Creation time:	15. 06. 2019 20:20

#	Modifying user name:	WinNT
#	Modification time:	15. 06. 2019 20:20

#	Program:	/corina/corina34_cracker 3.40 0067  02.08.2006

@<TRIPOS>MOLECULE
ASD02320007
  43   44    0    0    0
SMALL
NO_CHARGES


@<TRIPOS>ATOM
   1 C1            -0.0168     1.3862     0.0097 C.ar    
   2 C2             0.0021    -0.0041     0.0020 C.ar    
   3 C3             1.2127    -0.6878    -0.0133 C.ar    
   4 C4             2.3995     0.0091    -0.0209 C.ar    
   5 C5             2.3863     1.4094    -0.0133 C.ar    
   6 C6             1.1642     2.0930     0.0022 C.ar    
   7 C7             3.6344     3.5104    -0.0134 C.2     
   8 C8             3.6499     2.1585    -0.0209 C.2     
   9 C9             3.6587     6.4198     0.0020 C.ar    
  10 C10            4.8743     5.7319    -0.0129 C.ar    
  11 C11            4.8912     4.2556    -0.0210 C.2     
  12 C12            3.6504     7.8024     0.0090 C.ar    
  13 C13            4.8472     8.5083     0.0009 C.ar    
  14 C14            6.0534     7.8361    -0.0134 C.ar    
  15 C15            6.0779     6.4502    -0.0206 C.ar    
  16 O16            5.9528     3.6588    -0.0340 O.2     
  17 O17            2.4676     8.4733     0.0235 O.3     
  18 S18            1.9423     8.7717     1.4204 S.o2    
  19 O19            0.6276     9.2845     1.2536 O.2     
  20 O20            2.2360     7.6288     2.2122 O.2     
  21 O21            2.7799     9.9111     1.9830 O.3     
  22 Na22           2.3457    11.6929     1.2104 Du      
  23 O23           -1.1654    -0.6962     0.0099 O.3     
  24 S24           -1.7118    -1.0045    -1.3768 S.o2    
  25 O25           -3.0129    -1.5426    -1.1849 O.2     
  26 O26           -1.4553     0.1439    -2.1735 O.2     
  27 O27           -0.8633    -2.1275    -1.9559 O.3     
  28 Na28          -1.2482    -3.9174    -1.1761 Du      
  29 O29            7.2642     5.7905    -0.0346 O.3     
  30 S30            7.8177     5.4826     1.3493 S.o2    
  31 O31            9.1333     4.9826     1.1532 O.2     
  32 O32            7.5291     6.6149     2.1579 O.2     
  33 O33            7.0000     4.3305     1.9155 O.3     
  34 Na34           7.4347     2.5603     1.1171 Du      
  35 H35           -0.9599     1.9125     0.0170 H       
  36 H36            1.2218    -1.7678    -0.0188 H       
  37 H37            3.3393    -0.5229    -0.0324 H       
  38 H38            1.1485     3.1729     0.0078 H       
  39 H39            2.6929     4.0396    -0.0019 H       
  40 H40            4.5913     1.6294    -0.0324 H       
  41 H41            2.7274     5.8730     0.0035 H       
  42 H42            4.8340     9.5882     0.0057 H       
  43 H43            6.9797     8.3914    -0.0197 H       
@<TRIPOS>BOND
   1    1    2 ar
   2    1    6 ar
   3    1   35 1
   4    2    3 ar
   5    2   23 1
   6    3    4 ar
   7    3   36 1
   8    4    5 ar
   9    4   37 1
  10    5    6 ar
  11    5    8 1
  12    6   38 1
  13    7    8 2
  14    7   11 1
  15    7   39 1
  16    8   40 1
  17    9   10 ar
  18    9   12 ar
  19    9   41 1
  20   10   11 1
  21   10   15 ar
  22   11   16 2
  23   12   13 ar
  24   12   17 1
  25   13   14 ar
  26   13   42 1
  27   14   15 ar
  28   14   43 1
  29   15   29 1
  30   17   18 1
  31   18   19 2
  32   18   20 2
  33   18   21 1
  34   21   22 1
  35   23   24 1
  36   24   25 2
  37   24   26 2
  38   24   27 1
  39   27   28 1
  40   29   30 1
  41   30   31 2
  42   30   32 2
  43   30   33 1
  44   33   34 1

#	End of record

