#	Name: ASD01811015
#	Creating user name:	WinNT
#	Creation time:	15. 06. 2019 19:25

#	Modifying user name:	WinNT
#	Modification time:	15. 06. 2019 19:25

#	Program:	/corina/corina34_cracker 3.40 0067  02.08.2006

@<TRIPOS>MOLECULE
ASD01811015
  31   32    0    0    0
SMALL
NO_CHARGES


@<TRIPOS>ATOM
   1 C1            -0.0186     1.4732     0.0073 C.2     
   2 C2             0.0011    -0.0044     0.0039 C.ar    
   3 C3             1.2174    -0.6894    -0.0187 C.ar    
   4 C4             1.2286    -2.0689    -0.0214 C.ar    
   5 C5             0.0379    -2.7735    -0.0021 C.ar    
   6 C6            -1.1710    -2.1009     0.0198 C.ar    
   7 C7            -1.1965    -0.7216     0.0290 C.ar    
   8 O8             1.0255     2.0948    -0.0095 O.2     
   9 N9            -1.1945     2.1314     0.0235 N.am    
  10 C10           -1.2125     3.4790     0.0267 C.2     
  11 S11            0.2538     4.3544     0.1483 S.2     
  12 N12           -2.3847     4.1376    -0.0659 N.am    
  13 C13           -2.4412     5.6035     0.0495 C.3     
  14 C14           -3.2362     6.1519    -1.1410 C.3     
  15 O15           -4.4915     5.4726    -1.2217 O.3     
  16 C16           -4.3822     4.0672    -1.4600 C.3     
  17 C17           -3.6452     3.4125    -0.2915 C.3     
  18 H18            2.1475    -0.1406    -0.0345 H       
  19 H19            2.1688    -2.6000    -0.0388 H       
  20 H20            0.0523    -3.8534    -0.0047 H       
  21 H21           -2.0968    -2.6569     0.0344 H       
  22 H22           -2.1407    -0.1979     0.0510 H       
  23 H23           -2.0280     1.6352     0.0329 H       
  24 H24           -2.9367     5.8797     0.9803 H       
  25 H25           -1.4308     6.0120     0.0356 H       
  26 H26           -3.4081     7.2194    -1.0032 H       
  27 H27           -2.6740     5.9886    -2.0604 H       
  28 H28           -5.3786     3.6349    -1.5517 H       
  29 H29           -3.8242     3.8963    -2.3806 H       
  30 H30           -3.4316     2.3708    -0.5310 H       
  31 H31           -4.2639     3.4643     0.6044 H       
@<TRIPOS>BOND
   1    1    2 1
   2    1    8 2
   3    1    9 am
   4    2    3 ar
   5    2    7 ar
   6    3    4 ar
   7    3   18 1
   8    4    5 ar
   9    4   19 1
  10    5    6 ar
  11    5   20 1
  12    6    7 ar
  13    6   21 1
  14    7   22 1
  15    9   10 am
  16    9   23 1
  17   10   11 2
  18   10   12 am
  19   12   13 1
  20   12   17 1
  21   13   14 1
  22   13   24 1
  23   13   25 1
  24   14   15 1
  25   14   26 1
  26   14   27 1
  27   15   16 1
  28   16   17 1
  29   16   28 1
  30   16   29 1
  31   17   30 1
  32   17   31 1

#	End of record

