#	Name: ASD01410396
#	Creating user name:	WinNT
#	Creation time:	15. 06. 2019 19:17

#	Modifying user name:	WinNT
#	Modification time:	15. 06. 2019 19:17

#	Program:	/corina/corina34_cracker 3.40 0067  02.08.2006

@<TRIPOS>MOLECULE
ASD01410396
  36   38    0    0    0
SMALL
NO_CHARGES


@<TRIPOS>ATOM
   1 S1             0.0630     1.7572    -0.6291 S.3     
   2 C2             0.1489     0.0042    -0.8749 C.2     
   3 N3             1.4270    -0.3512    -0.7013 N.am    
   4 C4             2.3260     0.5723    -0.4045 C.2     
   5 C5             1.7966     1.9386    -0.2948 C.2     
   6 O6             3.5022     0.3104    -0.2351 O.2     
   7 S7            -1.1550    -1.0362    -1.2600 S.2     
   8 C8             2.4760     3.0761    -0.0054 C.2     
   9 C9             1.8029     4.3793    -0.1029 C.ar    
  10 C10            2.3153     5.4885     0.5791 C.ar    
  11 C11            1.6780     6.7071     0.4825 C.ar    
  12 C12            0.5340     6.8351    -0.2862 C.ar    
  13 C13            0.0207     5.7429    -0.9640 C.ar    
  14 C14            0.6495     4.5187    -0.8829 C.ar    
  15 N15            1.8102    -1.6924    -0.8327 N.am    
  16 S16            2.2848    -2.2773    -2.3075 S.o2    
  17 O17            2.7486    -3.6017    -2.0835 O.2     
  18 O18            1.2406    -1.9632    -3.2186 O.2     
  19 C19            3.6868    -1.3381    -2.8145 C.ar    
  20 C20            4.9590    -1.7545    -2.4697 C.ar    
  21 C21            6.0589    -1.0177    -2.8674 C.ar    
  22 C22            5.8866     0.1353    -3.6103 C.ar    
  23 C23            4.6144     0.5511    -3.9559 C.ar    
  24 C24            3.5147    -0.1880    -3.5618 C.ar    
  25 H25            3.5116     3.0245     0.2966 H       
  26 H26            3.2074     5.3900     1.1799 H       
  27 H27            2.0722     7.5642     1.0083 H       
  28 H28            0.0391     7.7924    -0.3572 H       
  29 H29           -0.8724     5.8510    -1.5617 H       
  30 H30            0.2505     3.6685    -1.4162 H       
  31 H31            1.7976    -2.2783    -0.0597 H       
  32 H32            5.0937    -2.6553    -1.8893 H       
  33 H33            7.0529    -1.3426    -2.5974 H       
  34 H34            6.7459     0.7113    -3.9204 H       
  35 H35            4.4797     1.4521    -4.5360 H       
  36 H36            2.5208     0.1369    -3.8318 H       
@<TRIPOS>BOND
   1    1    2 1
   2    1    5 1
   3    2    3 am
   4    2    7 2
   5    3    4 am
   6    3   15 1
   7    4    5 1
   8    4    6 2
   9    5    8 2
  10    8    9 1
  11    8   25 1
  12    9   10 ar
  13    9   14 ar
  14   10   11 ar
  15   10   26 1
  16   11   12 ar
  17   11   27 1
  18   12   13 ar
  19   12   28 1
  20   13   14 ar
  21   13   29 1
  22   14   30 1
  23   15   16 am
  24   15   31 1
  25   16   17 2
  26   16   18 2
  27   16   19 1
  28   19   20 ar
  29   19   24 ar
  30   20   21 ar
  31   20   32 1
  32   21   22 ar
  33   21   33 1
  34   22   23 ar
  35   22   34 1
  36   23   24 ar
  37   23   35 1
  38   24   36 1

#	End of record

