#	Name: ASD03470009
#	Creating user name:	WinNT
#	Creation time:	15. 06. 2019 20:42

#	Modifying user name:	WinNT
#	Modification time:	15. 06. 2019 20:42

#	Program:	/corina/corina34_cracker 3.40 0067  02.08.2006

@<TRIPOS>MOLECULE
ASD03470009
 127  127    0    0    0
SMALL
NO_CHARGES


@<TRIPOS>ATOM
   1 N1             3.0682    -0.0053    -4.3017 N.am    
   2 C2             4.2917     0.8042    -4.1036 C.3     
   3 C3             3.9313     2.0382    -3.3172 C.2     
   4 O4             2.8411     2.5535    -3.4473 O.2     
   5 C5             5.3283    -0.0130    -3.3300 C.3     
   6 O6             6.4743     0.7989    -3.0658 O.3     
   7 N7             4.8461     2.5662    -2.4586 N.am    
   8 C8             4.4363     3.7758    -1.7181 C.3     
   9 C9             4.7526     3.5834    -0.2572 C.2     
  10 O10            5.6950     2.9016     0.0861 O.2     
  11 C11            5.2015     4.9880    -2.2529 C.3     
  12 C12            4.8163     5.2304    -3.7136 C.3     
  13 C13            3.3492     5.6576    -3.7900 C.3     
  14 C14            5.7000     6.3345    -4.2976 C.3     
  15 N15            3.9585     4.1917     0.6730 N.am    
  16 C16            4.3365     3.9541     2.0845 C.3     
  17 C17            3.1159     3.4951     2.8397 C.2     
  18 O18            2.0164     3.9122     2.5428 O.2     
  19 C19            5.4180     2.8739     2.1515 C.3     
  20 C20            4.8616     1.5602     1.5988 C.3     
  21 C21            5.9826     0.5214     1.5276 C.3     
  22 C22            5.4262    -0.7924     0.9749 C.3     
  23 N23            6.5025    -1.7898     0.9066 N.3     
  24 N24            3.2643     2.6057     3.8593 N.am    
  25 C25            2.0328     2.1949     4.5625 C.3     
  26 C26            2.0205     0.6931     4.6868 C.2     
  27 O27            3.0583     0.0724     4.7793 O.2     
  28 C28            2.0042     2.8249     5.9564 C.3     
  29 C29            0.7272     2.3978     6.6830 C.3     
  30 C30            3.2244     2.3576     6.7524 C.3     
  31 C31            0.6371     3.1251     8.0261 C.3     
  32 N32            0.8187     0.0438     4.6930 N.am    
  33 C33            0.8928    -1.4293     4.8202 C.3     
  34 C34            0.0600    -2.0499     3.7283 C.2     
  35 O35           -0.9481    -1.5010     3.3366 O.2     
  36 C36            2.3466    -1.8844     4.6786 C.3     
  37 C37            2.4244    -3.3792     4.8534 C.2     
  38 O38            3.5618    -4.0305     4.5639 O.3     
  39 O39            1.4630    -3.9914     5.2542 O.2     
  40 N40            0.4551    -3.2349     3.1874 N.am    
  41 C41           -0.4022    -3.7944     2.1237 C.3     
  42 C42            0.4669    -4.2055     0.9631 C.2     
  43 O43            1.6086    -4.5715     1.1457 O.2     
  44 C44           -1.1529    -5.0152     2.6594 C.3     
  45 C45           -2.1011    -4.5838     3.7483 C.2     
  46 N46           -2.8730    -5.4968     4.3706 N.am    
  47 O47           -2.1698    -3.4150     4.0647 O.2     
  48 N48           -0.0554    -4.1586    -0.2982 N.am    
  49 C49            0.8615    -4.5789    -1.3819 C.3     
  50 C50            0.8806    -3.5061    -2.4401 C.2     
  51 O51           -0.1122    -2.8467    -2.6650 O.2     
  52 C52            2.2709    -4.7684    -0.8174 C.3     
  53 C53            2.3737    -6.1428    -0.1531 C.3     
  54 S54            3.9770    -6.2922     0.6823 S.3     
  55 C55            3.9114    -7.9584     1.3964 C.3     
  56 N56            2.0274    -3.2872    -3.1398 N.am    
  57 C57            1.9841    -2.2244    -4.1637 C.3     
  58 C58            3.1842    -1.3298    -3.9885 C.2     
  59 O59            4.2334    -1.7775    -3.5768 O.2     
  60 C60            2.0134    -2.8542    -5.5577 C.3     
  61 C61            0.7593    -3.6622    -5.7703 C.2     
  62 O62           -0.0726    -3.7277    -4.8965 O.2     
  63 O63            0.5664    -4.3093    -6.9305 O.3     
  64 H64            2.2395     0.3794    -4.6277 H       
  65 H65            4.6994     1.0939    -5.0721 H       
  66 H66            4.8962    -0.3493    -2.3876 H       
  67 H67            5.6250    -0.8782    -3.9229 H       
  68 H68            7.1740     0.3444    -2.5770 H       
  69 H69            5.7224     2.1678    -2.3392 H       
  70 H70            3.3650     3.9344    -1.8419 H       
  71 H71            4.9496     5.8672    -1.6599 H       
  72 H72            6.2730     4.7995    -2.1861 H       
  73 H73            4.9576     4.3123    -4.2838 H       
  74 H74            3.2079     6.5758    -3.2198 H       
  75 H75            3.0747     5.8303    -4.8306 H       
  76 H76            2.7196     4.8711    -3.3740 H       
  77 H77            5.6262     7.2263    -3.6752 H       
  78 H78            6.7355     5.9949    -4.3245 H       
  79 H79            5.3681     6.5687    -5.3090 H       
  80 H80            3.1989     4.7419     0.4256 H       
  81 H81            4.7147     4.8779     2.5223 H       
  82 H82            6.2777     3.1831     1.5569 H       
  83 H83            5.7252     2.7311     3.1875 H       
  84 H84            4.0702     1.1965     2.2542 H       
  85 H85            4.4579     1.7281     0.6003 H       
  86 H86            6.7739     0.8851     0.8722 H       
  87 H87            6.3863     0.3535     2.5261 H       
  88 H88            4.6348    -1.1561     1.6303 H       
  89 H89            5.0225    -0.6245    -0.0235 H       
  90 H90            6.9365    -1.9158     1.8087 H       
  91 H91            6.1601    -2.6670     0.5444 H       
  92 H92            4.1346     2.2591     4.1109 H       
  93 H93            1.1618     2.5214     3.9943 H       
  94 H94            2.0242     3.9109     5.8649 H       
  95 H95           -0.1399     2.6518     6.0734 H       
  96 H96            0.7489     1.3214     6.8534 H       
  97 H97            4.1342     2.6619     6.2348 H       
  98 H98            3.2040     2.8064     7.7455 H       
  99 H99            3.2044     1.2717     6.8440 H       
 100 H100           1.5043     2.8711     8.6357 H       
 101 H101           0.6155     4.2014     7.8557 H       
 102 H102          -0.2726     2.8208     8.5437 H       
 103 H103          -0.0256     0.5157     4.6194 H       
 104 H104           0.5052    -1.7323     5.7929 H       
 105 H105           2.7171    -1.6145     3.6897 H       
 106 H106           2.9557    -1.3973     5.4401 H       
 107 H107           3.5637    -4.9890     4.6919 H       
 108 H108           1.2590    -3.6885     3.4855 H       
 109 H109          -1.1165    -3.0393     1.7954 H       
 110 H110          -1.7162    -5.4794     1.8499 H       
 111 H111          -0.4385    -5.7328     3.0630 H       
 112 H112          -2.8181    -6.4316     4.1175 H       
 113 H113          -3.4833    -5.2191     5.0715 H       
 114 H114          -0.9650    -3.8699    -0.4719 H       
 115 H115           0.5116    -5.5164    -1.8141 H       
 116 H116           2.9984    -4.7004    -1.6262 H       
 117 H117           2.4742    -3.9921    -0.0797 H       
 118 H118           1.5719    -6.2544     0.5768 H       
 119 H119           2.2854    -6.9205    -0.9117 H       
 120 H120           3.7846    -8.6907     0.5990 H       
 121 H121           4.8390    -8.1611     1.9317 H       
 122 H122           3.0711    -8.0247     2.0875 H       
 123 H123           2.8321    -3.8029    -2.9740 H       
 124 H124           1.0711    -1.6408    -4.0458 H       
 125 H125           2.0711    -2.0680    -6.3105 H       
 126 H126           2.8838    -3.5046    -5.6443 H       
 127 H127          -0.2532    -4.8146    -7.0203 H       
@<TRIPOS>BOND
   1    1   58 am
   2    1    2 1
   3    1   64 1
   4    2    3 1
   5    2    5 1
   6    2   65 1
   7    3    7 am
   8    3    4 2
   9    5    6 1
  10    5   66 1
  11    5   67 1
  12    6   68 1
  13    7    8 1
  14    7   69 1
  15    8    9 1
  16    8   11 1
  17    8   70 1
  18    9   15 am
  19    9   10 2
  20   11   12 1
  21   11   71 1
  22   11   72 1
  23   12   14 1
  24   12   13 1
  25   12   73 1
  26   13   74 1
  27   13   75 1
  28   13   76 1
  29   14   77 1
  30   14   78 1
  31   14   79 1
  32   15   16 1
  33   15   80 1
  34   16   19 1
  35   16   17 1
  36   16   81 1
  37   17   18 2
  38   17   24 am
  39   19   20 1
  40   19   82 1
  41   19   83 1
  42   20   21 1
  43   20   84 1
  44   20   85 1
  45   21   22 1
  46   21   86 1
  47   21   87 1
  48   22   23 1
  49   22   88 1
  50   22   89 1
  51   23   90 1
  52   23   91 1
  53   24   25 1
  54   24   92 1
  55   25   26 1
  56   25   28 1
  57   25   93 1
  58   26   27 2
  59   26   32 am
  60   28   30 1
  61   28   29 1
  62   28   94 1
  63   29   31 1
  64   29   95 1
  65   29   96 1
  66   30   97 1
  67   30   98 1
  68   30   99 1
  69   31  100 1
  70   31  101 1
  71   31  102 1
  72   32   33 1
  73   32  103 1
  74   33   34 1
  75   33   36 1
  76   33  104 1
  77   34   35 2
  78   34   40 am
  79   36   37 1
  80   36  105 1
  81   36  106 1
  82   37   38 1
  83   37   39 2
  84   38  107 1
  85   40   41 1
  86   40  108 1
  87   41   42 1
  88   41   44 1
  89   41  109 1
  90   42   48 am
  91   42   43 2
  92   44   45 1
  93   44  110 1
  94   44  111 1
  95   45   47 2
  96   45   46 am
  97   46  112 1
  98   46  113 1
  99   48   49 1
 100   48  114 1
 101   49   52 1
 102   49   50 1
 103   49  115 1
 104   50   56 am
 105   50   51 2
 106   52   53 1
 107   52  116 1
 108   52  117 1
 109   53   54 1
 110   53  118 1
 111   53  119 1
 112   54   55 1
 113   55  120 1
 114   55  121 1
 115   55  122 1
 116   56   57 1
 117   56  123 1
 118   57   60 1
 119   57   58 1
 120   57  124 1
 121   58   59 2
 122   60   61 1
 123   60  125 1
 124   60  126 1
 125   61   62 2
 126   61   63 1
 127   63  127 1

#	End of record

