#	Name: ASD01150195
#	Creating user name:	WinNT
#	Creation time:	15. 06. 2019 19:03

#	Modifying user name:	WinNT
#	Modification time:	15. 06. 2019 19:03

#	Program:	/corina/corina34_cracker 3.40 0067  02.08.2006

@<TRIPOS>MOLECULE
ASD01150195
  67   71    0    0    0
SMALL
NO_CHARGES


@<TRIPOS>ATOM
   1 N1             0.1206     1.7225    -0.2110 N.pl3   
   2 C2             0.2817     0.3437    -0.1823 C.2     
   3 C3            -0.9827    -0.1937     0.0337 C.2     
   4 N4            -1.8415     0.8228     0.1267 N.2     
   5 C5            -1.2017     1.9663    -0.0112 C.2     
   6 C6             1.3815    -0.5217    -0.3181 C.2     
   7 N7             1.1872    -1.8542    -0.2359 N.am    
   8 C8            -0.0391    -2.3634    -0.0269 C.2     
   9 N9            -1.1189    -1.5707     0.1086 N.am    
  10 O10            2.4984    -0.0729    -0.5083 O.2     
  11 C11           -2.4388    -2.1643     0.3358 C.3     
  12 O12           -0.1767    -3.5697     0.0411 O.2     
  13 C13            2.3300    -2.7599    -0.3772 C.3     
  14 C14            2.9388    -3.0156     0.9775 C.ar    
  15 C15            2.4913    -4.0729     1.7476 C.ar    
  16 C16            3.0492    -4.3079     2.9901 C.ar    
  17 C17            4.0557    -3.4848     3.4630 C.ar    
  18 C18            4.5031    -2.4269     2.6918 C.ar    
  19 C19            3.9483    -2.1963     1.4471 C.ar    
  20 N20           -1.7827     3.2129     0.0320 N.3     
  21 C21            1.1731     2.7216    -0.4115 C.3     
  22 C22           -2.6783    -2.3147     1.8395 C.3     
  23 Cl23           4.7566    -3.7791     5.0238 Cl      
  24 C24           -4.0568    -2.9347     2.0768 C.3     
  25 C25           -3.2617     3.1146    -0.0677 C.3     
  26 C26           -3.7805     4.4440     0.5214 C.3     
  27 C27           -2.6531     4.9372     1.4515 C.3     
  28 C28           -1.5480     3.8644     1.3463 C.3     
  29 C29           -3.6900     2.9757    -1.5299 C.3     
  30 N30           -5.1446     2.7827    -1.5979 N.3     
  31 C31           -5.6447     3.0118    -2.9659 C.3     
  32 C32           -6.3814     1.7286    -3.4043 C.3     
  33 C33           -6.7482     1.0577    -2.0543 C.3     
  34 C34           -5.5173     1.4133    -1.1836 C.3     
  35 H35           -3.2060    -1.5187    -0.0915 H       
  36 H36           -2.4830    -3.1445    -0.1390 H       
  37 H37            1.9949    -3.7031    -0.8088 H       
  38 H38            3.0750    -2.3057    -1.0304 H       
  39 H39            1.7053    -4.7151     1.3785 H       
  40 H40            2.6993    -5.1337     3.5919 H       
  41 H41            5.2888    -1.7841     3.0605 H       
  42 H42            4.2975    -1.3705     0.8450 H       
  43 H43            1.2779     2.9303    -1.4762 H       
  44 H44            0.9083     3.6389     0.1143 H       
  45 H45            2.1164     2.3388    -0.0218 H       
  46 H46           -1.9110    -2.9603     2.2668 H       
  47 H47           -2.6341    -1.3345     2.3143 H       
  48 H48           -4.2274    -3.0418     3.1480 H       
  49 H49           -4.8240    -2.2890     1.6495 H       
  50 H50           -4.1010    -3.9148     1.6020 H       
  51 H51           -3.6270     2.2710     0.5181 H       
  52 H52           -3.9581     5.1670    -0.2747 H       
  53 H53           -4.6943     4.2747     1.0909 H       
  54 H54           -2.2773     5.9025     1.1120 H       
  55 H55           -3.0135     5.0101     2.4776 H       
  56 H56           -1.6450     3.1382     2.1533 H       
  57 H57           -0.5627     4.3301     1.3691 H       
  58 H58           -3.4174     3.8790    -2.0757 H       
  59 H59           -3.1882     2.1167    -1.9755 H       
  60 H60           -6.3343     3.8558    -2.9722 H       
  61 H61           -4.8093     3.2077    -3.6381 H       
  62 H62           -7.2805     1.9743    -3.9693 H       
  63 H63           -5.7221     1.0858    -3.9875 H       
  64 H64           -7.6585     1.4895    -1.6384 H       
  65 H65           -6.8468    -0.0217    -2.1688 H       
  66 H66           -4.6993     0.7209    -1.3822 H       
  67 H67           -5.7824     1.3956    -0.1265 H       
@<TRIPOS>BOND
   1    1    2 1
   2    1   21 1
   3    1    5 1
   4    2    3 2
   5    2    6 1
   6    3    4 1
   7    3    9 1
   8    4    5 2
   9    5   20 1
  10    6    7 am
  11    6   10 2
  12    7    8 am
  13    7   13 1
  14    8    9 am
  15    8   12 2
  16    9   11 1
  17   11   22 1
  18   11   35 1
  19   11   36 1
  20   13   14 1
  21   13   37 1
  22   13   38 1
  23   14   15 ar
  24   14   19 ar
  25   15   16 ar
  26   15   39 1
  27   16   17 ar
  28   16   40 1
  29   17   18 ar
  30   17   23 1
  31   18   19 ar
  32   18   41 1
  33   19   42 1
  34   20   25 1
  35   20   28 1
  36   21   43 1
  37   21   44 1
  38   21   45 1
  39   22   24 1
  40   22   46 1
  41   22   47 1
  42   24   48 1
  43   24   49 1
  44   24   50 1
  45   25   26 1
  46   25   29 1
  47   25   51 1
  48   26   27 1
  49   26   52 1
  50   26   53 1
  51   27   28 1
  52   27   54 1
  53   27   55 1
  54   28   56 1
  55   28   57 1
  56   29   30 1
  57   29   58 1
  58   29   59 1
  59   30   31 1
  60   30   34 1
  61   31   32 1
  62   31   60 1
  63   31   61 1
  64   32   33 1
  65   32   62 1
  66   32   63 1
  67   33   34 1
  68   33   64 1
  69   33   65 1
  70   34   66 1
  71   34   67 1

#	End of record

