#	Name: ASD03090048
#	Creating user name:	WinNT
#	Creation time:	15. 06. 2019 20:28

#	Modifying user name:	WinNT
#	Modification time:	15. 06. 2019 20:28

#	Program:	/corina/corina34_cracker 3.40 0067  02.08.2006

@<TRIPOS>MOLECULE
ASD03090048
  40   42    0    0    0
SMALL
NO_CHARGES


@<TRIPOS>ATOM
   1 N1            -0.0162     1.3436     0.0094 N.am    
   2 C2            -0.2146     0.1139    -0.5054 C.2     
   3 O3             0.6736    -0.4347    -1.1289 O.2     
   4 N4            -1.3974    -0.5077    -0.3292 N.am    
   5 S5            -3.0414    -2.6956    -0.7248 S.3     
   6 C6            -1.6021    -1.7765    -0.8605 C.2     
   7 N7            -0.7339    -2.4608    -1.5425 N.2     
   8 N8            -1.0811    -3.6023    -1.9553 N.2     
   9 C9            -2.2814    -3.9861    -1.6567 C.2     
  10 C10           -2.9149    -5.2996    -2.0368 C.3     
  11 F11           -1.9672    -6.1071    -2.6748 F       
  12 F12           -3.3776    -5.9448    -0.8850 F       
  13 F13           -3.9880    -5.0662    -2.9036 F       
  14 C14            1.2479     1.9392    -0.0684 C.ar    
  15 C15            1.3622     3.3279    -0.2204 C.ar    
  16 C16            2.6260     3.9129    -0.2965 C.ar    
  17 C17            3.7584     3.1199    -0.2217 C.ar    
  18 C18            3.6388     1.7450    -0.0712 C.ar    
  19 C19            2.3900     1.1582     0.0104 C.ar    
  20 O20           -0.9076     3.9553    -1.1068 O.3     
  21 C21            0.1497     4.1679    -0.3000 C.2     
  22 C22           -0.0928     5.2903     0.4286 C.2     
  23 C23           -1.3591     5.7659     0.0321 C.2     
  24 C24           -1.8217     4.9197    -0.9085 C.2     
  25 O25            4.9910     3.6891    -0.2963 O.3     
  26 C26            6.1165     2.8127    -0.2124 C.3     
  27 C27            7.4069     3.6284    -0.3144 C.3     
  28 H28           -0.7505     1.8174     0.4304 H       
  29 H29           -2.1059    -0.0700     0.1681 H       
  30 H30            2.7212     4.9822    -0.4140 H       
  31 H31            4.5257     1.1315    -0.0134 H       
  32 H32            2.3041     0.0885     0.1316 H       
  33 H33            0.5588     5.7318     1.1681 H       
  34 H34           -1.8633     6.6425     0.4111 H       
  35 H35           -2.7701     5.0028    -1.4186 H       
  36 H36            6.0952     2.2842     0.7407 H       
  37 H37            6.0771     2.0914    -1.0287 H       
  38 H38            8.2654     2.9599    -0.2504 H       
  39 H39            7.4282     4.1569    -1.2675 H       
  40 H40            7.4463     4.3496     0.5019 H       
@<TRIPOS>BOND
   1    1    2 am
   2    1   14 1
   3    1   28 1
   4    2    3 2
   5    2    4 am
   6    4    6 1
   7    4   29 1
   8    5    6 1
   9    5    9 1
  10    6    7 2
  11    7    8 1
  12    8    9 2
  13    9   10 1
  14   10   11 1
  15   10   12 1
  16   10   13 1
  17   14   15 ar
  18   14   19 ar
  19   15   16 ar
  20   15   21 1
  21   16   17 ar
  22   16   30 1
  23   17   18 ar
  24   17   25 1
  25   18   19 ar
  26   18   31 1
  27   19   32 1
  28   20   21 1
  29   20   24 1
  30   21   22 2
  31   22   23 1
  32   22   33 1
  33   23   24 2
  34   23   34 1
  35   24   35 1
  36   25   26 1
  37   26   27 1
  38   26   36 1
  39   26   37 1
  40   27   38 1
  41   27   39 1
  42   27   40 1

#	End of record

