#	Name: ASD02320047
#	Creating user name:	WinNT
#	Creation time:	15. 06. 2019 20:20

#	Modifying user name:	WinNT
#	Modification time:	15. 06. 2019 20:20

#	Program:	/corina/corina34_cracker 3.40 0067  02.08.2006

@<TRIPOS>MOLECULE
ASD02320047
  98  104    0    0    0
SMALL
NO_CHARGES


@<TRIPOS>ATOM
   1 C1             0.0169     1.3676     0.1572 C.ar    
   2 C2             0.0441    -0.0208     0.1413 C.ar    
   3 C3             1.2396    -0.7025     0.1113 C.ar    
   4 C4             2.4425     0.0093     0.0966 C.ar    
   5 C5             2.4104     1.4227     0.1129 C.ar    
   6 C6             1.1891     2.0921     0.1432 C.ar    
   7 N7             3.6335    -0.6212     0.0677 N.2     
   8 C8             4.7620     0.0420     0.0543 C.2     
   9 N9             4.8247     1.4089     0.0683 N.am    
  10 C10            3.6903     2.1464     0.0974 C.2     
  11 O11            3.7281     3.3629     0.1098 O.2     
  12 C12            6.0261    -0.7203     0.0231 C.ar    
  13 C13            7.0020    -0.4986     0.9979 C.ar    
  14 C14            8.1798    -1.2122     0.9655 C.ar    
  15 C15            8.3981    -2.1512    -0.0352 C.ar    
  16 C16            7.4302    -2.3744    -1.0068 C.ar    
  17 C17            6.2471    -1.6694    -0.9779 C.ar    
  18 N18           14.0229     5.4636    -7.1685 N.pl3   
  19 C19           14.3910     6.6086    -7.7886 C.2     
  20 N20           14.1654     4.4911    -7.9995 N.2     
  21 N21           14.6046     4.9306    -9.1258 N.2     
  22 C22           14.7619     6.2564    -9.0417 C.2     
  23 C23           15.2543     7.1768   -10.1286 C.3     
  24 N24           16.7191     7.2006   -10.1219 N.am    
  25 C25           17.4103     6.2515   -10.7952 C.2     
  26 C26           17.3801     8.1854    -9.4396 C.2     
  27 N27           18.6857     8.2680    -9.3913 N.2     
  28 C28           19.4749     7.3742   -10.0199 C.ar    
  29 C29           18.8780     6.3240   -10.7541 C.ar    
  30 C30           20.8690     7.4650    -9.9665 C.ar    
  31 C31           21.6353     6.5396   -10.6169 C.ar    
  32 C32           21.0502     5.5045   -11.3349 C.ar    
  33 C33           19.6790     5.3908   -11.4098 C.ar    
  34 O34           16.8384     5.3710   -11.4110 O.2     
  35 C35           16.5837     9.2027    -8.7249 C.ar    
  36 C36           16.7911     9.4234    -7.3610 C.ar    
  37 C37           16.0459    10.3734    -6.6979 C.ar    
  38 C38           15.0891    11.1117    -7.3836 C.ar    
  39 C39           14.8798    10.8952    -8.7401 C.ar    
  40 C40           15.6248     9.9511    -9.4118 C.ar    
  41 C41            6.1278     2.0781     0.0523 C.3     
  42 C42            6.6223     2.1971    -1.3907 C.3     
  43 C43            7.9832     2.8960    -1.4075 C.3     
  44 C44            8.4777     3.0150    -2.8505 C.3     
  45 C45            9.8386     3.7139    -2.8673 C.3     
  46 C46           10.3331     3.8329    -4.3103 C.3     
  47 C47           11.6940     4.5318    -4.3270 C.3     
  48 C48           12.1885     4.6508    -5.7700 C.3     
  49 C49           13.5494     5.3497    -5.7868 C.3     
  50 O50            9.5604    -2.8522    -0.0638 O.3     
  51 S51            9.5169    -4.1555     0.7210 S.o2    
  52 O52           10.8490    -4.6493     0.7530 O.2     
  53 O53            8.7570    -3.8931     1.8927 O.2     
  54 O54            8.7095    -5.1498    -0.1012 O.3     
  55 Na55           9.6867    -5.8833    -1.6719 Du      
  56 O56           14.3564    12.0468    -6.7263 O.3     
  57 S57           14.9802    13.4351    -6.7274 S.o2    
  58 O58           14.2003    14.2261    -5.8412 O.2     
  59 O59           16.3801    13.2462    -6.5730 O.2     
  60 O60           14.7761    14.0196    -8.1178 O.3     
  61 Na61          12.9148    14.6255    -8.4759 Du      
  62 H62           -0.9313     1.8841     0.1762 H       
  63 H63           -0.8843    -0.5725     0.1529 H       
  64 H64            1.2480    -1.7824     0.0995 H       
  65 H65            1.1610     3.1716     0.1561 H       
  66 H66            6.8333     0.2316     1.7756 H       
  67 H67            8.9347    -1.0413     1.7188 H       
  68 H68            7.6038    -3.1049    -1.7832 H       
  69 H69            5.4952    -1.8438    -1.7333 H       
  70 H70           14.3889     7.6035    -7.3682 H       
  71 H71           14.9011     6.8187   -11.0956 H       
  72 H72           14.8738     8.1830    -9.9527 H       
  73 H73           21.3388     8.2645    -9.4129 H       
  74 H74           22.7118     6.6142   -10.5725 H       
  75 H75           21.6755     4.7846   -11.8420 H       
  76 H76           19.2290     4.5838   -11.9690 H       
  77 H77           17.5343     8.8497    -6.8273 H       
  78 H78           16.2054    10.5444    -5.6435 H       
  79 H79           14.1351    11.4711    -9.2695 H       
  80 H80           15.4617     9.7837   -10.4663 H       
  81 H81            6.0306     3.0732     0.4863 H       
  82 H82            6.8423     1.4960     0.6343 H       
  83 H83            6.7195     1.2019    -1.8247 H       
  84 H84            5.9077     2.7791    -1.9728 H       
  85 H85            7.8860     3.8911    -0.9735 H       
  86 H86            8.6977     2.3140    -0.8254 H       
  87 H87            8.5749     2.0198    -3.2845 H       
  88 H88            7.7631     3.5970    -3.4326 H       
  89 H89            9.7414     4.7090    -2.4333 H       
  90 H90           10.5531     3.1319    -2.2852 H       
  91 H91           10.4303     2.8378    -4.7443 H       
  92 H92            9.6185     4.4149    -4.8923 H       
  93 H93           11.5968     5.5269    -3.8930 H       
  94 H94           12.4085     3.9498    -3.7450 H       
  95 H95           12.2857     3.6557    -6.2040 H       
  96 H96           11.4739     5.2328    -6.3521 H       
  97 H97           14.2639     4.7677    -5.2047 H       
  98 H98           13.4522     6.3448    -5.3528 H       
@<TRIPOS>BOND
   1    1    2 ar
   2    1    6 ar
   3    1   62 1
   4    2    3 ar
   5    2   63 1
   6    3    4 ar
   7    3   64 1
   8    4    5 ar
   9    4    7 1
  10    5    6 ar
  11    5   10 1
  12    6   65 1
  13    7    8 2
  14    8    9 1
  15    8   12 1
  16    9   10 am
  17    9   41 1
  18   10   11 2
  19   12   13 ar
  20   12   17 ar
  21   13   14 ar
  22   13   66 1
  23   14   15 ar
  24   14   67 1
  25   15   16 ar
  26   15   50 1
  27   16   17 ar
  28   16   68 1
  29   17   69 1
  30   18   19 1
  31   18   20 1
  32   18   49 1
  33   19   22 2
  34   19   70 1
  35   20   21 2
  36   21   22 1
  37   22   23 1
  38   23   24 1
  39   23   71 1
  40   23   72 1
  41   24   25 am
  42   24   26 1
  43   25   34 2
  44   25   29 1
  45   26   27 2
  46   26   35 1
  47   27   28 1
  48   28   29 ar
  49   28   30 ar
  50   29   33 ar
  51   30   31 ar
  52   30   73 1
  53   31   32 ar
  54   31   74 1
  55   32   33 ar
  56   32   75 1
  57   33   76 1
  58   35   36 ar
  59   35   40 ar
  60   36   37 ar
  61   36   77 1
  62   37   38 ar
  63   37   78 1
  64   38   39 ar
  65   38   56 1
  66   39   40 ar
  67   39   79 1
  68   40   80 1
  69   41   42 1
  70   41   81 1
  71   41   82 1
  72   42   43 1
  73   42   83 1
  74   42   84 1
  75   43   44 1
  76   43   85 1
  77   43   86 1
  78   44   45 1
  79   44   87 1
  80   44   88 1
  81   45   46 1
  82   45   89 1
  83   45   90 1
  84   46   47 1
  85   46   91 1
  86   46   92 1
  87   47   48 1
  88   47   93 1
  89   47   94 1
  90   48   49 1
  91   48   95 1
  92   48   96 1
  93   49   97 1
  94   49   98 1
  95   50   51 1
  96   51   52 2
  97   51   53 2
  98   51   54 1
  99   54   55 1
 100   56   57 1
 101   57   58 2
 102   57   59 2
 103   57   60 1
 104   60   61 1

#	End of record

