#	Name: ASD08150766
#	Creating user name:	WinNT
#	Creation time:	15. 06. 2019 21:16

#	Modifying user name:	WinNT
#	Modification time:	15. 06. 2019 21:16

#	Program:	/corina/corina34_cracker 3.40 0067  02.08.2006

@<TRIPOS>MOLECULE
ASD08150766
  22   21    0    0    0
SMALL
NO_CHARGES


@<TRIPOS>ATOM
   1 C1            -0.0184     1.5028     0.0103 C.2     
   2 C2             0.0021    -0.0041     0.0020 C.3     
   3 C3             1.4295    -0.4870    -0.0142 C.2     
   4 C4             1.7249    -1.9647    -0.0250 C.3     
   5 C5             1.7154    -2.4972     1.4094 C.3     
   6 C6             2.1370    -3.9679     1.4102 C.3     
   7 O7             1.0197     2.1211     0.0037 O.2     
   8 O8            -1.1898     2.1580     0.0194 O.3     
   9 O9             2.3366     0.3101    -0.0186 O.2     
  10 Br10           0.3544    -2.8994    -1.0801 Br      
  11 C11           -1.1335     3.6089     0.0270 C.3     
  12 H12           -0.4983    -0.3791     0.8948 H       
  13 H13           -0.5153    -0.3696    -0.8850 H       
  14 H14            2.7053    -2.1360    -0.4696 H       
  15 H15            2.4122    -1.9191     2.0162 H       
  16 H16            0.7113    -2.4069     1.8238 H       
  17 H17            1.4402    -4.5461     0.8034 H       
  18 H18            3.1412    -4.0582     0.9958 H       
  19 H19            2.1302    -4.3473     2.4321 H       
  20 H20           -0.6017     3.9472     0.9164 H       
  21 H21           -0.6102     3.9569    -0.8636 H       
  22 H22           -2.1463     4.0118     0.0340 H       
@<TRIPOS>BOND
   1    1    2 1
   2    1    7 2
   3    1    8 1
   4    2    3 1
   5    2   12 1
   6    2   13 1
   7    3    4 1
   8    3    9 2
   9    4    5 1
  10    4   10 1
  11    4   14 1
  12    5    6 1
  13    5   15 1
  14    5   16 1
  15    6   17 1
  16    6   18 1
  17    6   19 1
  18    8   11 1
  19   11   20 1
  20   11   21 1
  21   11   22 1

#	End of record

