#	Name: ASD01208554
#	Creating user name:	WinNT
#	Creation time:	15. 06. 2019 19:10

#	Modifying user name:	WinNT
#	Modification time:	15. 06. 2019 19:10

#	Program:	/corina/corina34_cracker 3.40 0067  02.08.2006

@<TRIPOS>MOLECULE
ASD01208554
  67   69    0    0    0
SMALL
NO_CHARGES


@<TRIPOS>ATOM
   1 C1            -0.0723     2.4405    -1.3278 C.2     
   2 N2             1.1674     0.3567    -1.4279 N.am    
   3 C3            -0.1390     0.9742    -1.6693 C.3     
   4 C4            -1.1939     0.2942    -0.7942 C.3     
   5 O5            -0.9052     0.5461     0.5824 O.3     
   6 O6             0.9605     2.9204    -0.9243 O.2     
   7 O7            -1.1588     3.2144    -1.4772 O.3     
   8 C8             1.5190    -0.7595    -2.0965 C.2     
   9 O9             0.7512    -1.2545    -2.9007 O.2     
  10 N10            3.7859    -0.9245    -0.9778 N.pl3   
  11 C11            2.8262    -1.3774    -1.8550 C.2     
  12 C12            3.3110    -2.5161    -2.4666 C.2     
  13 C13            4.5837    -2.7569    -1.9522 C.2     
  14 C14            4.8587    -1.7649    -1.0359 C.2     
  15 C15            6.1041    -1.6338    -0.2504 C.ar    
  16 C16            7.1305    -2.5666    -0.4051 C.ar    
  17 C17            8.2958    -2.4398     0.3323 C.ar    
  18 C18            8.4438    -1.3872     1.2243 C.ar    
  19 C19            7.4256    -0.4578     1.3816 C.ar    
  20 C20            6.2589    -0.5739     0.6435 C.ar    
  21 O21            7.5753     0.5710     2.2567 O.3     
  22 C22            7.0385     1.5185     4.3780 C.ar    
  23 C23            6.9399     0.4868     3.4550 C.ar    
  24 C24            6.1808    -0.6346     3.7740 C.ar    
  25 C25            5.5511    -0.6744     5.0077 C.ar    
  26 C26            5.6965     0.3926     5.8743 C.ar    
  27 N27            6.4235     1.4412     5.5412 N.ar    
  28 S28            4.8991     0.3513     7.4450 S.o2    
  29 O29            4.7185     1.7198     7.7824 O.2     
  30 O30            3.7846    -0.5084     7.2498 O.2     
  31 C31            6.1135    -0.4215     8.5489 C.3     
  32 O32            9.2957    -3.3480     0.1826 O.3     
  33 C33           10.5046    -3.1070     0.9055 C.3     
  34 C34           11.6674    -3.8117     0.2040 C.3     
  35 C35           10.3641    -3.6490     2.3293 C.3     
  36 O36           11.4699    -5.2259     0.2584 O.3     
  37 C37           12.5057    -5.9821    -0.3719 C.3     
  38 C38           -1.0217     4.6174    -1.1290 C.3     
  39 H39            1.7794     0.7512    -0.7870 H       
  40 H40           -0.4076     0.8574    -2.7192 H       
  41 H41           -2.1791     0.6920    -1.0376 H       
  42 H42           -1.1805    -0.7802    -0.9776 H       
  43 H43           -1.5349     0.1440     1.1963 H       
  44 H44            3.7130    -0.1373    -0.4158 H       
  45 H45            2.7982    -3.1112    -3.2077 H       
  46 H46            5.2367    -3.5734    -2.2229 H       
  47 H47            7.0161    -3.3864    -1.0988 H       
  48 H48            9.3538    -1.2913     1.7978 H       
  49 H49            5.4688     0.1526     0.7630 H       
  50 H50            7.6288     2.3916     4.1425 H       
  51 H51            6.0843    -1.4538     3.0769 H       
  52 H52            4.9535    -1.5289     5.2887 H       
  53 H53            7.0215     0.1813     8.5692 H       
  54 H54            5.6993    -0.4884     9.5549 H       
  55 H55            6.3496    -1.4219     8.1860 H       
  56 H56           10.6984    -2.0350     0.9422 H       
  57 H57           11.7120    -3.4909    -0.8368 H       
  58 H58           12.6019    -3.5558     0.7034 H       
  59 H59            9.5356    -3.1469     2.8291 H       
  60 H60           10.1703    -4.7210     2.2926 H       
  61 H61           11.2862    -3.4651     2.8807 H       
  62 H62           12.2820    -7.0456    -0.2875 H       
  63 H63           12.5678    -5.7063    -1.4246 H       
  64 H64           13.4576    -5.7713     0.1156 H       
  65 H65           -0.2503     5.0723    -1.7504 H       
  66 H66           -1.9703     5.1275    -1.2958 H       
  67 H67           -0.7414     4.7055    -0.0793 H       
@<TRIPOS>BOND
   1    1    3 1
   2    1    6 2
   3    1    7 1
   4    2    3 1
   5    2    8 am
   6    2   39 1
   7    3    4 1
   8    3   40 1
   9    4    5 1
  10    4   41 1
  11    4   42 1
  12    5   43 1
  13    7   38 1
  14    8    9 2
  15    8   11 1
  16   10   11 1
  17   10   14 1
  18   10   44 1
  19   11   12 2
  20   12   13 1
  21   12   45 1
  22   13   14 2
  23   13   46 1
  24   14   15 1
  25   15   16 ar
  26   15   20 ar
  27   16   17 ar
  28   16   47 1
  29   17   18 ar
  30   17   32 1
  31   18   19 ar
  32   18   48 1
  33   19   20 ar
  34   19   21 1
  35   20   49 1
  36   21   23 1
  37   22   23 ar
  38   22   27 ar
  39   22   50 1
  40   23   24 ar
  41   24   25 ar
  42   24   51 1
  43   25   26 ar
  44   25   52 1
  45   26   27 ar
  46   26   28 1
  47   28   29 2
  48   28   30 2
  49   28   31 1
  50   31   53 1
  51   31   54 1
  52   31   55 1
  53   32   33 1
  54   33   34 1
  55   33   35 1
  56   33   56 1
  57   34   36 1
  58   34   57 1
  59   34   58 1
  60   35   59 1
  61   35   60 1
  62   35   61 1
  63   36   37 1
  64   37   62 1
  65   37   63 1
  66   37   64 1
  67   38   65 1
  68   38   66 1
  69   38   67 1

#	End of record

