#	Name: ASD04880712
#	Creating user name:	WinNT
#	Creation time:	15. 06. 2019 20:53

#	Modifying user name:	WinNT
#	Modification time:	15. 06. 2019 20:53

#	Program:	/corina/corina34_cracker 3.40 0067  02.08.2006

@<TRIPOS>MOLECULE
ASD04880712
  87   92    0    0    0
SMALL
NO_CHARGES


@<TRIPOS>ATOM
   1 C1             0.0078     1.3658     0.0081 C.ar    
   2 C2            -1.1967     2.0427     0.0701 C.ar    
   3 C3            -1.2153     3.4245     0.1144 C.ar    
   4 C4            -0.0301     4.1336     0.0968 C.ar    
   5 C5             1.1813     3.4570     0.0345 C.ar    
   6 C6             1.1964     2.0685    -0.0099 C.ar    
   7 C7            -0.0513     5.6397     0.1446 C.3     
   8 N8             2.3816     4.1710     0.0160 N.3     
   9 C9             3.1850     3.8815     1.2120 C.3     
  10 C10            3.1439     3.8881    -1.2081 C.3     
  11 C11            4.4103     4.7473    -1.2273 C.3     
  12 N12            5.2137     4.4577    -0.0314 N.3     
  13 C13            4.4515     4.7406     1.1928 C.3     
  14 C14            6.4104     5.1695    -0.0498 C.ar    
  15 C15            6.6425     6.1608     0.8961 C.ar    
  16 C16            7.8260     6.8680     0.8816 C.ar    
  17 C17            8.7964     6.5886    -0.0866 C.ar    
  18 C18            8.5640     5.5911    -1.0384 C.ar    
  19 C19            7.3786     4.8817    -1.0161 C.ar    
  20 N20            7.1447     3.8775    -1.9655 N.am    
  21 C21            7.6267     4.0081    -3.2173 C.2     
  22 C22            7.4901     2.8995    -4.1791 C.2     
  23 O23            8.1746     5.0408    -3.5534 O.2     
  24 C24            6.9769     0.9832    -5.0305 C.2     
  25 O25            7.6025     1.6913    -5.9814 O.3     
  26 C26            7.9311     2.8871    -5.4667 C.2     
  27 N27            6.9045     1.6938    -3.9451 N.2     
  28 C28            6.4417    -0.4160    -5.1946 C.3     
  29 C29            5.3762    -0.6433    -6.2689 C.3     
  30 C30            6.7996    -1.1629    -6.4811 C.3     
  31 C31           10.0619     7.3450    -0.1035 C.2     
  32 N32           10.9961     7.0749    -1.0367 N.am    
  33 O33           10.2628     8.2126     0.7245 O.2     
  34 C34           12.2535     7.8265    -1.0536 C.3     
  35 C35           13.1176     7.3345    -2.1859 C.ar    
  36 Cl36           8.1117     8.1059     2.0646 Cl      
  37 C37            0.0234    -0.1406    -0.0338 C.3     
  38 C38           14.0043     6.2944    -1.9773 C.ar    
  39 C39           13.0198     7.9193    -3.4344 C.ar    
  40 C40           13.8126     7.4680    -4.4732 C.ar    
  41 C41           14.7034     6.4323    -4.2632 C.ar    
  42 C42           14.7969     5.8432    -3.0159 C.ar    
  43 C43           15.7637     4.7099    -2.7884 C.3     
  44 N44           15.0954     3.4322    -3.0692 N.3     
  45 C45           14.7530     3.3191    -4.4933 C.3     
  46 C46           15.9227     2.2987    -2.6350 C.3     
  47 H47           -2.1248     1.4906     0.0837 H       
  48 H48           -2.1576     3.9500     0.1625 H       
  49 H49            2.1366     1.5393    -0.0580 H       
  50 H50           -0.0220     5.9707     1.1827 H       
  51 H51            0.8157     6.0323    -0.3866 H       
  52 H52           -0.9631     6.0054    -0.3277 H       
  53 H53            2.6036     4.1107     2.1050 H       
  54 H54            3.4610     2.8270     1.2182 H       
  55 H55            3.4194     2.8337    -1.2295 H       
  56 H56            2.5324     4.1222    -2.0796 H       
  57 H57            4.9918     4.5180    -2.1203 H       
  58 H58            4.1343     5.8017    -1.2335 H       
  59 H59            4.1760     5.7950     1.2141 H       
  60 H60            5.0630     4.5066     2.0642 H       
  61 H61            5.8941     6.3779     1.6439 H       
  62 H62            9.3110     5.3732    -1.7873 H       
  63 H63            6.6358     3.0885    -1.7216 H       
  64 H64            8.4471     3.6868    -5.9771 H       
  65 H65            6.3647    -1.0004    -4.2778 H       
  66 H66            4.5985    -1.3776    -6.0589 H       
  67 H67            5.0624     0.2192    -6.8569 H       
  68 H68            7.4221    -0.6422    -7.2087 H       
  69 H69            6.9582    -2.2390    -6.4108 H       
  70 H70           10.8358     6.3828    -1.6973 H       
  71 H71           12.0413     8.8866    -1.1925 H       
  72 H72           12.7761     7.6814    -0.1081 H       
  73 H73           -0.0100    -0.4756    -1.0705 H       
  74 H74            0.9351    -0.5077     0.4376 H       
  75 H75           -0.8436    -0.5279     0.5013 H       
  76 H76           14.0779     5.8348    -1.0028 H       
  77 H77           12.3237     8.7286    -3.5986 H       
  78 H78           13.7356     7.9245    -5.4490 H       
  79 H79           15.3225     6.0796    -5.0747 H       
  80 H80           16.6210     4.8249    -3.4517 H       
  81 H81           16.1017     4.7230    -1.7522 H       
  82 H82           15.6625     3.3766    -5.0913 H       
  83 H83           14.2594     2.3641    -4.6736 H       
  84 H84           14.0831     4.1326    -4.7717 H       
  85 H85           16.1031     2.3704    -1.5624 H       
  86 H86           15.4043     1.3653    -2.8546 H       
  87 H87           16.8745     2.3192    -3.1657 H       
@<TRIPOS>BOND
   1    1    2 ar
   2    1    6 ar
   3    1   37 1
   4    2    3 ar
   5    2   47 1
   6    3    4 ar
   7    3   48 1
   8    4    5 ar
   9    4    7 1
  10    5    6 ar
  11    5    8 1
  12    6   49 1
  13    7   50 1
  14    7   51 1
  15    7   52 1
  16    8   10 1
  17    8    9 1
  18    9   13 1
  19    9   53 1
  20    9   54 1
  21   10   11 1
  22   10   55 1
  23   10   56 1
  24   11   12 1
  25   11   57 1
  26   11   58 1
  27   12   13 1
  28   12   14 1
  29   13   59 1
  30   13   60 1
  31   14   15 ar
  32   14   19 ar
  33   15   16 ar
  34   15   61 1
  35   16   17 ar
  36   16   36 1
  37   17   18 ar
  38   17   31 1
  39   18   19 ar
  40   18   62 1
  41   19   20 1
  42   20   21 am
  43   20   63 1
  44   21   22 1
  45   21   23 2
  46   22   27 1
  47   22   26 2
  48   24   25 1
  49   24   27 2
  50   24   28 1
  51   25   26 1
  52   26   64 1
  53   28   29 1
  54   28   30 1
  55   28   65 1
  56   29   30 1
  57   29   66 1
  58   29   67 1
  59   30   68 1
  60   30   69 1
  61   31   32 am
  62   31   33 2
  63   32   34 1
  64   32   70 1
  65   34   35 1
  66   34   71 1
  67   34   72 1
  68   35   39 ar
  69   35   38 ar
  70   37   73 1
  71   37   74 1
  72   37   75 1
  73   38   42 ar
  74   38   76 1
  75   39   40 ar
  76   39   77 1
  77   40   41 ar
  78   40   78 1
  79   41   42 ar
  80   41   79 1
  81   42   43 1
  82   43   44 1
  83   43   80 1
  84   43   81 1
  85   44   45 1
  86   44   46 1
  87   45   82 1
  88   45   83 1
  89   45   84 1
  90   46   85 1
  91   46   86 1
  92   46   87 1

#	End of record

