#	Name: ASD02030089
#	Creating user name:	WinNT
#	Creation time:	15. 06. 2019 20:14

#	Modifying user name:	WinNT
#	Modification time:	15. 06. 2019 20:14

#	Program:	/corina/corina34_cracker 3.40 0067  02.08.2006

@<TRIPOS>MOLECULE
ASD02030089
  60   63    0    0    0
SMALL
NO_CHARGES


@<TRIPOS>ATOM
   1 C1             0.7093     1.3579     1.5498 C.ar    
   2 C2             0.0661     1.0122     0.3741 C.ar    
   3 C3             0.6422     1.2927    -0.8492 C.ar    
   4 C4             1.8771     1.9261    -0.9151 C.ar    
   5 C5             2.5404     2.2822     0.2642 C.ar    
   6 C6             1.9461     1.9932     1.5089 C.ar    
   7 C7             3.8525     2.9548     0.2051 C.2     
   8 C8             5.0915     2.1592     0.2623 C.ar    
   9 C9             6.3378     2.8010     0.3210 C.ar    
  10 C10            7.4988     2.0497     0.3751 C.ar    
  11 C11            5.0282     0.7575     0.2640 C.ar    
  12 O12            3.9113     4.1658     0.1092 O.2     
  13 O13            2.4382     2.1982    -2.1196 O.3     
  14 C14            6.1945     0.0144     0.3182 C.ar    
  15 C15            7.4313     0.6568     0.3707 C.ar    
  16 C16            8.6764    -0.1427     0.4282 C.2     
  17 N17            9.8727     0.4759     0.4789 N.am    
  18 O18            8.6195    -1.3566     0.4295 O.2     
  19 C19           11.1045    -0.3151     0.5358 C.3     
  20 C20           12.3116     0.6238     0.5860 C.3     
  21 N21           13.5434    -0.1672     0.6429 N.am    
  22 C22           15.2758     1.7544     1.5811 C.ar    
  23 C23           15.3377     3.0770     1.2610 C.ar    
  24 C24           15.5527     4.0440     2.2414 C.ar    
  25 C25           15.7076     3.6972     3.5491 C.ar    
  26 C26           15.6499     2.3437     3.9171 C.ar    
  27 C27           15.4256     1.3604     2.9185 C.ar    
  28 C28           15.8024     1.9258     5.2490 C.ar    
  29 N29           15.7408     0.6485     5.5447 N.ar    
  30 C30           15.5375    -0.2908     4.6311 C.ar    
  31 C31           15.3723     0.0112     3.3135 C.ar    
  32 O32            6.4046     4.1561     0.3244 O.3     
  33 O33            3.8256     0.1316     0.2129 O.3     
  34 C34            2.6332     2.3630     2.7641 C.2     
  35 O35            3.7545     2.8284     2.7282 O.2     
  36 O36            2.0158     2.1838     3.9479 O.3     
  37 S37           15.0025     0.5488     0.3256 S.o2    
  38 O38           15.9909    -0.4551     0.5113 O.2     
  39 O39           14.8417     1.2655    -0.8908 O.2     
  40 H40            0.2478     1.1379     2.5011 H       
  41 H41           -0.8938     0.5189     0.4136 H       
  42 H42            0.1303     1.0179    -1.7596 H       
  43 H43            8.4585     2.5429     0.4203 H       
  44 H44            2.1382     3.0281    -2.5148 H       
  45 H45            6.1469    -1.0645     0.3196 H       
  46 H46            9.9181     1.4448     0.4778 H       
  47 H47           11.0936    -0.9409     1.4282 H       
  48 H48           11.1720    -0.9466    -0.3501 H       
  49 H49           12.3225     1.2496    -0.3064 H       
  50 H50           12.2441     1.2553     1.4719 H       
  51 H51           13.5043    -1.1103     0.8663 H       
  52 H52           15.2186     3.3809     0.2315 H       
  53 H53           15.5976     5.0855     1.9593 H       
  54 H54           15.8739     4.4578     4.2975 H       
  55 H55           15.9704     2.6540     6.0287 H       
  56 H56           15.4979    -1.3246     4.9413 H       
  57 H57           15.2078    -0.7697     2.5858 H       
  58 H58            6.3825     4.5487     1.2078 H       
  59 H59            3.5548    -0.1278    -0.6784 H       
  60 H60            2.5051     2.4405     4.7415 H       
@<TRIPOS>BOND
   1    1    2 ar
   2    1    6 ar
   3    1   40 1
   4    2    3 ar
   5    2   41 1
   6    3    4 ar
   7    3   42 1
   8    4    5 ar
   9    4   13 1
  10    5    6 ar
  11    5    7 1
  12    6   34 1
  13    7    8 1
  14    7   12 2
  15    8    9 ar
  16    8   11 ar
  17    9   10 ar
  18    9   32 1
  19   10   15 ar
  20   10   43 1
  21   11   14 ar
  22   11   33 1
  23   13   44 1
  24   14   15 ar
  25   14   45 1
  26   15   16 1
  27   16   17 am
  28   16   18 2
  29   17   19 1
  30   17   46 1
  31   19   20 1
  32   19   47 1
  33   19   48 1
  34   20   21 1
  35   20   49 1
  36   20   50 1
  37   21   37 am
  38   21   51 1
  39   22   23 ar
  40   22   37 1
  41   22   27 ar
  42   23   24 ar
  43   23   52 1
  44   24   25 ar
  45   24   53 1
  46   25   26 ar
  47   25   54 1
  48   26   27 ar
  49   26   28 ar
  50   27   31 ar
  51   28   29 ar
  52   28   55 1
  53   29   30 ar
  54   30   31 ar
  55   30   56 1
  56   31   57 1
  57   32   58 1
  58   33   59 1
  59   34   35 2
  60   34   36 1
  61   36   60 1
  62   37   38 2
  63   37   39 2

#	End of record

