#	Name: ASD01720191
#	Creating user name:	WinNT
#	Creation time:	15. 06. 2019 19:23

#	Modifying user name:	WinNT
#	Modification time:	15. 06. 2019 19:23

#	Program:	/corina/corina34_cracker 3.40 0067  02.08.2006

@<TRIPOS>MOLECULE
ASD01720191
  57   60    0    0    0
SMALL
NO_CHARGES


@<TRIPOS>ATOM
   1 C1            -0.9966     2.1744     1.3055 C.ar    
   2 N2            -1.1329     0.8710     1.4562 N.ar    
   3 C3            -0.0976     0.0533     1.4408 C.ar    
   4 C4             1.1829     0.5353     1.2644 C.ar    
   5 C5             1.3734     1.9104     1.1009 C.ar    
   6 C6             0.2490     2.7399     1.1238 C.ar    
   7 C7             2.7324     2.4740     0.9087 C.ar    
   8 C8             2.9923     3.3585    -0.1413 C.ar    
   9 C9             4.2770     3.8565    -0.2777 C.ar    
  10 C10            5.2526     3.4663     0.6211 C.ar    
  11 N11            4.9773     2.6289     1.6026 N.ar    
  12 C12            3.7690     2.1342     1.7759 C.ar    
  13 C13            6.6524     4.0055     0.4768 C.3     
  14 C14            7.4296     3.1460    -0.5222 C.3     
  15 N15            7.3253     3.9713     1.7777 N.pl3   
  16 C16            8.3675     4.8432     2.0408 C.ar    
  17 N17            8.9643     4.7982     3.2222 N.ar    
  18 C18            9.9677     5.6218     3.5055 C.ar    
  19 C19           10.3858     6.5374     2.5395 C.ar    
  20 C20            9.7363     6.5516     1.3195 C.ar    
  21 N21            8.7468     5.6984     1.1025 N.ar    
  22 N22           10.5916     5.5721     4.7468 N.am    
  23 C23           11.4537     6.4810     5.2226 C.2     
  24 O24           11.9137     6.2014     6.4471 O.3     
  25 O25           11.7870     7.4689     4.5988 O.2     
  26 C26           11.3235     4.9540     6.9147 C.3     
  27 C27           10.4084     4.5166     5.7547 C.3     
  28 C28           10.8584     3.1655     5.1952 C.3     
  29 C29            1.9021     3.7599    -1.1013 C.3     
  30 C30           10.6577     2.0817     6.2563 C.3     
  31 C31           -0.3168    -1.4271     1.6188 C.3     
  32 F32           -1.6895    -1.6929     1.6656 F       
  33 F33            0.2551    -2.1157     0.5436 F       
  34 F34            0.2805    -1.8468     2.8122 F       
  35 H35           -1.8719     2.8068     1.3201 H       
  36 H36            2.0259    -0.1398     1.2533 H       
  37 H37            0.3533     3.8078     1.0007 H       
  38 H38            4.5146     4.5421    -1.0777 H       
  39 H39            3.5822     1.4514     2.5915 H       
  40 H40            6.6104     5.0333     0.1164 H       
  41 H41            7.4715     2.1182    -0.1618 H       
  42 H42            6.9289     3.1715    -1.4901 H       
  43 H43            8.4421     3.5361    -0.6266 H       
  44 H44            7.0405     3.3376     2.4545 H       
  45 H45           11.1984     7.2199     2.7405 H       
  46 H46           10.0350     7.2482     0.5501 H       
  47 H47           12.0983     4.2092     7.0964 H       
  48 H48           10.7362     5.1238     7.8170 H       
  49 H49            9.3701     4.4695     6.0830 H       
  50 H50           10.2676     2.9230     4.3119 H       
  51 H51           11.9128     3.2176     4.9240 H       
  52 H52            1.3962     4.6492    -0.7253 H       
  53 H53            2.3381     3.9751    -2.0768 H       
  54 H54            1.1835     2.9458    -1.1960 H       
  55 H55           10.8630     1.1040     5.8204 H       
  56 H56           11.3382     2.2583     7.0893 H       
  57 H57            9.6289     2.1107     6.6152 H       
@<TRIPOS>BOND
   1    1    2 ar
   2    1    6 ar
   3    1   35 1
   4    2    3 ar
   5    3   31 1
   6    3    4 ar
   7    4    5 ar
   8    4   36 1
   9    5    6 ar
  10    5    7 1
  11    6   37 1
  12    7    8 ar
  13    7   12 ar
  14    8    9 ar
  15    8   29 1
  16    9   10 ar
  17    9   38 1
  18   10   11 ar
  19   10   13 1
  20   11   12 ar
  21   12   39 1
  22   13   14 1
  23   13   15 1
  24   13   40 1
  25   14   41 1
  26   14   42 1
  27   14   43 1
  28   15   16 1
  29   15   44 1
  30   16   17 ar
  31   16   21 ar
  32   17   18 ar
  33   18   19 ar
  34   18   22 1
  35   19   20 ar
  36   19   45 1
  37   20   21 ar
  38   20   46 1
  39   22   23 am
  40   22   27 1
  41   23   24 1
  42   23   25 2
  43   24   26 1
  44   26   27 1
  45   26   47 1
  46   26   48 1
  47   27   28 1
  48   27   49 1
  49   28   30 1
  50   28   50 1
  51   28   51 1
  52   29   52 1
  53   29   53 1
  54   29   54 1
  55   30   55 1
  56   30   56 1
  57   30   57 1
  58   31   32 1
  59   31   33 1
  60   31   34 1

#	End of record

