#	Name: ASD01910192
#	Creating user name:	WinNT
#	Creation time:	15. 06. 2019 19:55

#	Modifying user name:	WinNT
#	Modification time:	15. 06. 2019 19:55

#	Program:	/corina/corina34_cracker 3.40 0067  02.08.2006

@<TRIPOS>MOLECULE
ASD01910192
  37   38    0    0    0
SMALL
NO_CHARGES


@<TRIPOS>ATOM
   1 C1            -0.2187     1.3749     0.0961 C.ar    
   2 C2             0.0372     0.0375     0.3288 C.ar    
   3 C3             1.3445    -0.4332     0.3192 C.ar    
   4 C4             2.3933     0.4415     0.0757 C.ar    
   5 C5             2.1329     1.7846    -0.1577 C.ar    
   6 C6             0.8236     2.2488    -0.1467 C.ar    
   7 N7             3.1874     2.6697    -0.4032 N.am    
   8 C8             4.2614     2.2599    -1.1068 C.2     
   9 C9             5.3286     3.2219    -1.4540 C.ar    
  10 N10            1.6028    -1.7879     0.5554 N.am    
  11 C11            0.7248    -2.7233     0.1426 C.2     
  12 C12            6.4420     2.8006    -2.1826 C.ar    
  13 C13            7.4348     3.7032    -2.5042 C.ar    
  14 C14            7.3291     5.0236    -2.1059 C.ar    
  15 C15            6.2272     5.4489    -1.3828 C.ar    
  16 C16            5.2243     4.5569    -1.0596 C.ar    
  17 O17           -0.2423    -2.3996    -0.5139 O.2     
  18 O18            4.3524     1.0990    -1.4559 O.2     
  19 C19            0.9445    -4.1716     0.4968 C.3     
  20 Cl20           6.1036     7.1082    -0.8875 Cl      
  21 O21           -0.1130    -4.9616    -0.0506 O.3     
  22 C22            0.0004    -6.3584     0.2290 C.3     
  23 H23           -1.2361     1.7374     0.0997 H       
  24 H24           -0.7797    -0.6429     0.5187 H       
  25 H25            3.4103     0.0782     0.0680 H       
  26 H26            0.6202     3.2938    -0.3286 H       
  27 H27            3.1459     3.5787    -0.0670 H       
  28 H28            2.4139    -2.0538     1.0162 H       
  29 H29            6.5265     1.7698    -2.4937 H       
  30 H30            8.2967     3.3779    -3.0679 H       
  31 H31            8.1094     5.7259    -2.3597 H       
  32 H32            4.3652     4.8892    -0.4957 H       
  33 H33            1.8974    -4.5055     0.0862 H       
  34 H34            0.9572    -4.2826     1.5810 H       
  35 H35            0.9337    -6.7376    -0.1872 H       
  36 H36           -0.0066    -6.5147     1.3077 H       
  37 H37           -0.8396    -6.8882    -0.2203 H       
@<TRIPOS>BOND
   1    1    2 ar
   2    1    6 ar
   3    1   23 1
   4    2    3 ar
   5    2   24 1
   6    3    4 ar
   7    3   10 1
   8    4    5 ar
   9    4   25 1
  10    5    6 ar
  11    5    7 1
  12    6   26 1
  13    7    8 am
  14    7   27 1
  15    8    9 1
  16    8   18 2
  17    9   12 ar
  18    9   16 ar
  19   10   11 am
  20   10   28 1
  21   11   17 2
  22   11   19 1
  23   12   13 ar
  24   12   29 1
  25   13   14 ar
  26   13   30 1
  27   14   15 ar
  28   14   31 1
  29   15   16 ar
  30   15   20 1
  31   16   32 1
  32   19   21 1
  33   19   33 1
  34   19   34 1
  35   21   22 1
  36   22   35 1
  37   22   36 1
  38   22   37 1

#	End of record

