#	Name: ASD03090130
#	Creating user name:	WinNT
#	Creation time:	15. 06. 2019 20:28

#	Modifying user name:	WinNT
#	Modification time:	15. 06. 2019 20:28

#	Program:	/corina/corina34_cracker 3.40 0067  02.08.2006

@<TRIPOS>MOLECULE
ASD03090130
  63   65    0    0    0
SMALL
NO_CHARGES


@<TRIPOS>ATOM
   1 C1             0.9703     2.0829    -1.3455 C.2     
   2 C2             0.9532     0.5804    -1.2314 C.3     
   3 O3             2.0206     2.6850    -1.2697 O.2     
   4 N4            -0.1807     2.7573    -1.5374 N.am    
   5 C5             2.3588     0.0760    -1.0286 C.ar    
   6 C6             2.8639    -0.0631     0.2511 C.ar    
   7 C7             4.1516    -0.5251     0.4405 C.ar    
   8 C8             4.9395    -0.8501    -0.6564 C.ar    
   9 C9             4.4289    -0.7092    -1.9406 C.ar    
  10 C10            3.1385    -0.2520    -2.1226 C.ar    
  11 N11            6.2424    -1.3172    -0.4685 N.pl3   
  12 C12            7.0743    -1.6605    -1.6298 C.3     
  13 C13            8.5471    -1.5322    -1.2424 C.3     
  14 C14            9.4373    -1.8522    -2.4421 C.3     
  15 C15            9.1215    -3.2222    -3.0205 C.3     
  16 C16            7.6458    -3.5158    -3.2311 C.3     
  17 C17            6.7931    -3.1051    -2.0358 C.3     
  18 C18            7.1201    -2.8541    -4.5065 C.3     
  19 C19            7.4904    -5.0432    -3.4099 C.3     
  20 C20            9.3283    -0.7522    -3.4963 C.3     
  21 C21           10.8989    -1.8744    -1.9430 C.3     
  22 C22           -0.1801     4.1588    -1.5373 C.ar    
  23 C23           -1.0624     4.8534    -2.3543 C.ar    
  24 C24           -1.0622     6.2338    -2.3544 C.ar    
  25 C25           -0.1793     6.9283    -1.5367 C.ar    
  26 C26            0.7031     6.2329    -0.7190 C.ar    
  27 C27            0.6988     4.8525    -0.7159 C.ar    
  28 S28           -0.1782     8.6903    -1.5369 S.3     
  29 C29            1.1184     9.0977    -0.3355 C.3     
  30 F30            0.7837     8.5604     0.9121 F       
  31 F31            2.3366     8.5592    -0.7635 F       
  32 H32            0.3361     0.2875    -0.3820 H       
  33 H33            0.5414     0.1512    -2.1448 H       
  34 H34           -1.0095     2.2727    -1.6756 H       
  35 H35            2.2509     0.1901     1.1035 H       
  36 H36            4.5456    -0.6332     1.4402 H       
  37 H37            5.0389    -0.9610    -2.7955 H       
  38 H38            2.7393    -0.1467    -3.1205 H       
  39 H39            6.5979    -1.4149     0.4286 H       
  40 H40            6.8334    -0.9831    -2.4442 H       
  41 H41            8.7453    -0.5130    -0.9053 H       
  42 H42            8.7700    -2.2255    -0.4295 H       
  43 H43            9.6434    -3.3263    -3.9841 H       
  44 H44            9.5423    -3.9907    -2.3539 H       
  45 H45            7.0104    -3.7652    -1.1916 H       
  46 H46            5.7352    -3.2079    -2.2923 H       
  47 H47            7.7476    -3.1416    -5.3501 H       
  48 H48            6.0956    -3.1788    -4.6885 H       
  49 H49            7.1425    -1.7707    -4.3895 H       
  50 H50            7.8542    -5.5525    -2.5175 H       
  51 H51            6.4389    -5.2859    -3.5635 H       
  52 H52            8.0684    -5.3684    -4.2749 H       
  53 H53            9.7610     0.1691    -3.1063 H       
  54 H54            9.8669    -1.0548    -4.3943 H       
  55 H55            8.2791    -0.5858    -3.7407 H       
  56 H56           11.0084    -2.6382    -1.1731 H       
  57 H57           11.5640    -2.1007    -2.7764 H       
  58 H58           11.1558    -0.9001    -1.5273 H       
  59 H59           -1.7487     4.3135    -2.9899 H       
  60 H60           -1.7480     6.7739    -2.9904 H       
  61 H61            1.3895     6.7723    -0.0832 H       
  62 H62            1.3820     4.3119    -0.0776 H       
  63 H63            1.2092    10.1807    -0.2521 H       
@<TRIPOS>BOND
   1    1    2 1
   2    1    3 2
   3    1    4 am
   4    2    5 1
   5    2   32 1
   6    2   33 1
   7    4   22 1
   8    4   34 1
   9    5    6 ar
  10    5   10 ar
  11    6    7 ar
  12    6   35 1
  13    7    8 ar
  14    7   36 1
  15    8    9 ar
  16    8   11 1
  17    9   10 ar
  18    9   37 1
  19   10   38 1
  20   11   12 1
  21   11   39 1
  22   12   13 1
  23   12   17 1
  24   12   40 1
  25   13   14 1
  26   13   41 1
  27   13   42 1
  28   14   15 1
  29   14   20 1
  30   14   21 1
  31   15   16 1
  32   15   43 1
  33   15   44 1
  34   16   17 1
  35   16   18 1
  36   16   19 1
  37   17   45 1
  38   17   46 1
  39   18   47 1
  40   18   48 1
  41   18   49 1
  42   19   50 1
  43   19   51 1
  44   19   52 1
  45   20   53 1
  46   20   54 1
  47   20   55 1
  48   21   56 1
  49   21   57 1
  50   21   58 1
  51   22   23 ar
  52   22   27 ar
  53   23   24 ar
  54   23   59 1
  55   24   25 ar
  56   24   60 1
  57   25   26 ar
  58   25   28 1
  59   26   27 ar
  60   26   61 1
  61   27   62 1
  62   28   29 1
  63   29   30 1
  64   29   31 1
  65   29   63 1

#	End of record

