#	Name: ASD09116098
#	Creating user name:	WinNT
#	Creation time:	15. 06. 2019 21:20

#	Modifying user name:	WinNT
#	Modification time:	15. 06. 2019 21:20

#	Program:	/corina/corina34_cracker 3.40 0067  02.08.2006

@<TRIPOS>MOLECULE
ASD09116098
  50   54    0    0    0
SMALL
NO_CHARGES


@<TRIPOS>ATOM
   1 C1             5.7208    -1.2014     1.3114 C.ar    
   2 N2             4.7083    -2.1286     1.0755 N.pl3   
   3 N3             3.4495    -1.8746     0.5074 N.2     
   4 C4             2.8094    -3.0183     0.4667 C.2     
   5 N5             3.5914    -3.9774     0.9759 N.2     
   6 C6             4.7443    -3.4612     1.3441 C.2     
   7 N7             5.7999    -4.1488     1.9111 N.pl3   
   8 N8             1.5189    -3.2054    -0.0284 N.pl3   
   9 C9             5.5437     0.1487     0.9752 C.ar    
  10 N10            6.8668    -1.5796     1.8628 N.ar    
  11 C11            7.8299    -0.7045     2.0890 C.ar    
  12 N12            7.7138     0.5649     1.7888 N.ar    
  13 C13            6.5834     1.0493     1.2280 C.ar    
  14 C14            0.9865    -4.4943    -0.1225 C.ar    
  15 C15           -0.3845    -4.6872    -0.0008 C.ar    
  16 C16           -0.9152    -5.9609    -0.1019 C.ar    
  17 C17           -0.0863    -7.0379    -0.3229 C.ar    
  18 C18            1.2950    -6.8626    -0.4286 C.ar    
  19 C19            1.8275    -5.5740    -0.3423 C.ar    
  20 C20            6.2655     2.3594     0.8366 C.2     
  21 C21            5.0632     2.5271     0.3093 C.2     
  22 S22            4.1905     1.0047     0.2509 S.3     
  23 C23            7.2321     3.5030     1.0068 C.3     
  24 C24           -0.6622    -8.4267    -0.4797 C.3     
  25 C25           -0.9970    -8.9939     0.9005 C.3     
  26 C26            0.1963    -9.7588     1.4632 C.3     
  27 C27            1.4322    -8.8616     1.5283 C.3     
  28 N28            2.2168    -9.0273     0.2900 N.am    
  29 C29            2.1900    -8.0169    -0.6062 C.2     
  30 O30            2.9188    -8.0623    -1.5779 O.2     
  31 H31            5.7273    -5.1028     2.0709 H       
  32 H32            6.6136    -3.6777     2.1495 H       
  33 H33            0.9910    -2.4410    -0.3074 H       
  34 H34            8.7489    -1.0492     2.5395 H       
  35 H35           -1.0355    -3.8431     0.1729 H       
  36 H36           -1.9806    -6.1106    -0.0070 H       
  37 H37            2.8923    -5.4205    -0.4379 H       
  38 H38            4.6723     3.4718    -0.0386 H       
  39 H39            7.8495     3.5928     0.1130 H       
  40 H40            6.6768     4.4284     1.1592 H       
  41 H41            7.8690     3.3148     1.8711 H       
  42 H42           -1.5688    -8.3787    -1.0830 H       
  43 H43            0.0681    -9.0703    -0.9702 H       
  44 H44           -1.2514    -8.1759     1.5746 H       
  45 H45           -1.8500    -9.6672     0.8166 H       
  46 H46           -0.0441   -10.1118     2.4661 H       
  47 H47            0.4079   -10.6153     0.8231 H       
  48 H48            1.1223    -7.8212     1.6266 H       
  49 H49            2.0422    -9.1435     2.3864 H       
  50 H50            2.7327    -9.8321     0.1254 H       
@<TRIPOS>BOND
   1    1    2 1
   2    1    9 ar
   3    1   10 ar
   4    2    3 1
   5    2    6 1
   6    3    4 2
   7    4    5 1
   8    4    8 1
   9    5    6 2
  10    6    7 1
  11    7   31 1
  12    7   32 1
  13    8   14 1
  14    8   33 1
  15    9   13 ar
  16    9   22 1
  17   10   11 ar
  18   11   12 ar
  19   11   34 1
  20   12   13 ar
  21   13   20 1
  22   14   15 ar
  23   14   19 ar
  24   15   16 ar
  25   15   35 1
  26   16   17 ar
  27   16   36 1
  28   17   18 ar
  29   17   24 1
  30   18   19 ar
  31   18   29 1
  32   19   37 1
  33   20   21 2
  34   20   23 1
  35   21   22 1
  36   21   38 1
  37   23   39 1
  38   23   40 1
  39   23   41 1
  40   24   25 1
  41   24   42 1
  42   24   43 1
  43   25   26 1
  44   25   44 1
  45   25   45 1
  46   26   27 1
  47   26   46 1
  48   26   47 1
  49   27   28 1
  50   27   48 1
  51   27   49 1
  52   28   29 am
  53   28   50 1
  54   29   30 2

#	End of record

