#	Name: ASD03540434
#	Creating user name:	WinNT
#	Creation time:	15. 06. 2019 20:43

#	Modifying user name:	WinNT
#	Modification time:	15. 06. 2019 20:43

#	Program:	/corina/corina34_cracker 3.40 0067  02.08.2006

@<TRIPOS>MOLECULE
ASD03540434
  54   56    0    0    0
SMALL
NO_CHARGES


@<TRIPOS>ATOM
   1 C1            -0.0184     1.5028     0.0103 C.2     
   2 C2             0.0021    -0.0041     0.0020 C.3     
   3 C3             1.4513    -0.4944    -0.0145 C.3     
   4 O4             1.0197     2.1211     0.0037 O.2     
   5 O5            -1.1898     2.1580     0.0194 O.3     
   6 N6             1.4858    -3.9523    -1.2846 N.am    
   7 C7             1.4689    -2.6116    -1.1955 C.2     
   8 N8             1.4712    -1.9592    -0.0225 N.am    
   9 C9             1.4918    -2.6284     1.1507 C.2     
  10 C10            1.5115    -4.1023     1.1127 C.ar    
  11 C11            1.5338    -4.8618     2.2756 C.ar    
  12 C12            1.5522    -6.2528     2.1808 C.ar    
  13 C13            1.5482    -6.8709     0.9243 C.ar    
  14 C14            1.5263    -6.1235    -0.2193 C.ar    
  15 C15            1.5077    -4.7365    -0.1445 C.ar    
  16 O16            1.4945    -2.0313     2.2099 O.2     
  17 O17            1.4504    -1.9610    -2.2223 O.2     
  18 C18            1.4760    -4.5909    -2.6030 C.3     
  19 C19            1.5764    -7.0751     3.4069 C.2     
  20 N20            1.5943    -8.4197     3.3163 N.am    
  21 O21            1.5803    -6.5392     4.4982 O.2     
  22 C22            1.6183    -9.2355     4.5328 C.3     
  23 C23            1.6348   -10.6952     4.1585 C.ar    
  24 C24            2.8402   -11.3470     3.9746 C.ar    
  25 C25            2.8580   -12.6850     3.6314 C.ar    
  26 C26            1.6650   -13.3748     3.4713 C.ar    
  27 C27            0.4568   -12.7185     3.6564 C.ar    
  28 C28            0.4445   -11.3818     4.0050 C.ar    
  29 O29            1.6799   -14.6910     3.1333 O.3     
  30 C30            0.4139   -15.3371     2.9854 C.3     
  31 C31           -1.1335     3.6089     0.0270 C.3     
  32 H32           -0.4983    -0.3791     0.8948 H       
  33 H33           -0.5153    -0.3696    -0.8850 H       
  34 H34            1.9516    -0.1193    -0.9073 H       
  35 H35            1.9686    -0.1289     0.8726 H       
  36 H36            1.5371    -4.3803     3.2423 H       
  37 H37            1.5629    -7.9488     0.8585 H       
  38 H38            1.5238    -6.6117    -1.1826 H       
  39 H39            1.4547    -3.8244    -3.3778 H       
  40 H40            2.3727    -5.1996    -2.7186 H       
  41 H41            0.5931    -5.2237    -2.6936 H       
  42 H42            1.5911    -8.8472     2.4456 H       
  43 H43            2.5112    -8.9988     5.1115 H       
  44 H44            0.7315    -9.0236     5.1300 H       
  45 H45            3.7687   -10.8095     4.0989 H       
  46 H46            3.7999   -13.1936     3.4875 H       
  47 H47           -0.4732   -13.2533     3.5323 H       
  48 H48           -0.4957   -10.8717     4.1539 H       
  49 H49           -0.1340   -15.2825     3.9261 H       
  50 H50           -0.1585   -14.8400     2.2022 H       
  51 H51            0.5685   -16.3817     2.7151 H       
  52 H52           -0.6017     3.9472     0.9164 H       
  53 H53           -0.6102     3.9569    -0.8636 H       
  54 H54           -2.1463     4.0118     0.0340 H       
@<TRIPOS>BOND
   1    1    2 1
   2    1    4 2
   3    1    5 1
   4    2    3 1
   5    2   32 1
   6    2   33 1
   7    3    8 1
   8    3   34 1
   9    3   35 1
  10    5   31 1
  11    6    7 am
  12    6   15 1
  13    6   18 1
  14    7    8 am
  15    7   17 2
  16    8    9 am
  17    9   10 1
  18    9   16 2
  19   10   11 ar
  20   10   15 ar
  21   11   12 ar
  22   11   36 1
  23   12   13 ar
  24   12   19 1
  25   13   14 ar
  26   13   37 1
  27   14   15 ar
  28   14   38 1
  29   18   39 1
  30   18   40 1
  31   18   41 1
  32   19   20 am
  33   19   21 2
  34   20   22 1
  35   20   42 1
  36   22   23 1
  37   22   43 1
  38   22   44 1
  39   23   24 ar
  40   23   28 ar
  41   24   25 ar
  42   24   45 1
  43   25   26 ar
  44   25   46 1
  45   26   27 ar
  46   26   29 1
  47   27   28 ar
  48   27   47 1
  49   28   48 1
  50   29   30 1
  51   30   49 1
  52   30   50 1
  53   30   51 1
  54   31   52 1
  55   31   53 1
  56   31   54 1

#	End of record

