#	Name: ASD01150290
#	Creating user name:	WinNT
#	Creation time:	15. 06. 2019 19:04

#	Modifying user name:	WinNT
#	Modification time:	15. 06. 2019 19:04

#	Program:	/corina/corina34_cracker 3.40 0067  02.08.2006

@<TRIPOS>MOLECULE
ASD01150290
  60   62    0    0    0
SMALL
NO_CHARGES


@<TRIPOS>ATOM
   1 C1            -0.0158     1.3123     0.0093 C.2     
   2 N2             0.0021    -0.0041     0.0020 N.2     
   3 C3            -1.2465    -0.4792     0.0114 C.2     
   4 C4            -2.1134     0.6065     0.0255 C.2     
   5 N5            -1.3045     1.7451     0.0298 N.pl3   
   6 N6             1.0958     2.1231     0.0030 N.3     
   7 C7             2.3292     1.3253    -0.0137 C.3     
   8 C8             1.0586     3.0586    -1.1289 C.3     
   9 C9            -1.7378     3.0772     0.0432 C.ar    
  10 N10           -1.6127    -1.8197     0.0073 N.am    
  11 C11           -3.5222     0.5668     0.0387 C.2     
  12 O12           -4.2300     1.7168     0.0511 O.3     
  13 O13           -4.1012    -0.5046     0.0389 O.2     
  14 C14           -5.6543     1.6019     0.0641 C.3     
  15 C15           -6.2786     2.9987     0.0769 C.3     
  16 C16           -6.1166     0.8482    -1.1845 C.3     
  17 C17           -6.0928     0.8358     1.3138 C.3     
  18 C18           -1.4634     3.8871     1.1373 C.ar    
  19 C19           -1.8921     5.2000     1.1476 C.ar    
  20 C20           -2.5937     5.7082     0.0699 C.ar    
  21 C21           -2.8689     4.9041    -1.0210 C.ar    
  22 C22           -2.4376     3.5922    -1.0399 C.ar    
  23 C23           -0.6643    -2.7773    -0.0069 C.2     
  24 C24           -1.0537    -4.2024    -0.0113 C.ar    
  25 O25            0.5113    -2.4683    -0.0160 O.2     
  26 O26           -7.7029     2.8838     0.0899 O.3     
  27 C27           -8.3872     4.1382     0.1027 C.3     
  28 C28           -0.0735    -5.1966    -0.0259 C.ar    
  29 C29           -0.4425    -6.5255    -0.0294 C.ar    
  30 C30           -1.7822    -6.8753    -0.0185 C.ar    
  31 C31           -2.7606    -5.8931    -0.0044 C.ar    
  32 C32           -2.4034    -4.5604     0.0051 C.ar    
  33 Cl33          -2.2385    -8.5503    -0.0231 Cl      
  34 Cl34          -4.4379    -6.3409     0.0086 Cl      
  35 H35            2.3465     0.7017    -0.9074 H       
  36 H36            3.1923     1.9909    -0.0183 H       
  37 H37            2.3639     0.6915     0.8724 H       
  38 H38            0.1696     3.6849    -1.0537 H       
  39 H39            1.9487     3.6875    -1.1100 H       
  40 H40            1.0299     2.4977    -2.0631 H       
  41 H41           -2.5508    -2.0662     0.0146 H       
  42 H42           -5.9493     3.5357     0.9665 H       
  43 H43           -5.9662     3.5445    -0.8134 H       
  44 H44           -5.6718    -0.1469    -1.1937 H       
  45 H45           -7.2030     0.7605    -1.1746 H       
  46 H46           -5.8042     1.3939    -2.0749 H       
  47 H47           -5.7635     1.3728     2.2033 H       
  48 H48           -7.1792     0.7481     1.3237 H       
  49 H49           -5.6481    -0.1593     1.3046 H       
  50 H50           -0.9158     3.4906     1.9795 H       
  51 H51           -1.6793     5.8303     1.9984 H       
  52 H52           -2.9279     6.7352     0.0803 H       
  53 H53           -3.4178     5.3037    -1.8609 H       
  54 H54           -2.6526     2.9647    -1.8923 H       
  55 H55           -8.1185     4.7077    -0.7871 H       
  56 H56           -9.4633     3.9651     0.1120 H       
  57 H57           -8.1016     4.6988     0.9927 H       
  58 H58            0.9718    -4.9254    -0.0348 H       
  59 H59            0.3152    -7.2950    -0.0411 H       
  60 H60           -3.1660    -3.7957     0.0160 H       
@<TRIPOS>BOND
   1    1    2 2
   2    1    6 1
   3    1    5 1
   4    2    3 1
   5    3    4 2
   6    3   10 1
   7    4    5 1
   8    4   11 1
   9    5    9 1
  10    6    7 1
  11    6    8 1
  12    7   35 1
  13    7   36 1
  14    7   37 1
  15    8   38 1
  16    8   39 1
  17    8   40 1
  18    9   18 ar
  19    9   22 ar
  20   10   23 am
  21   10   41 1
  22   11   12 1
  23   11   13 2
  24   12   14 1
  25   14   15 1
  26   14   16 1
  27   14   17 1
  28   15   26 1
  29   15   42 1
  30   15   43 1
  31   16   44 1
  32   16   45 1
  33   16   46 1
  34   17   47 1
  35   17   48 1
  36   17   49 1
  37   18   19 ar
  38   18   50 1
  39   19   20 ar
  40   19   51 1
  41   20   21 ar
  42   20   52 1
  43   21   22 ar
  44   21   53 1
  45   22   54 1
  46   23   24 1
  47   23   25 2
  48   24   28 ar
  49   24   32 ar
  50   26   27 1
  51   27   55 1
  52   27   56 1
  53   27   57 1
  54   28   29 ar
  55   28   58 1
  56   29   30 ar
  57   29   59 1
  58   30   31 ar
  59   30   33 1
  60   31   32 ar
  61   31   34 1
  62   32   60 1

#	End of record

