#	Name: ASD02038598
#	Creating user name:	WinNT
#	Creation time:	15. 06. 2019 20:17

#	Modifying user name:	WinNT
#	Modification time:	15. 06. 2019 20:17

#	Program:	/corina/corina34_cracker 3.40 0067  02.08.2006

@<TRIPOS>MOLECULE
ASD02038598
  51   53    0    0    0
SMALL
NO_CHARGES


@<TRIPOS>ATOM
   1 C1            -0.2719     1.8799    -0.2207 C.3     
   2 O2            -0.1024     0.4622    -0.2795 O.3     
   3 C3            -1.2295    -0.2971    -0.2270 C.ar    
   4 C4            -1.1367    -1.6800    -0.2793 C.ar    
   5 C5            -2.4708     0.3117    -0.1154 C.ar    
   6 C6            -3.6159    -0.4586    -0.0615 C.ar    
   7 C7            -3.5242    -1.8429    -0.1196 C.ar    
   8 C8            -2.2808    -2.4518    -0.2260 C.ar    
   9 N9            -4.6839    -2.6242    -0.0650 N.am    
  10 S10           -5.6751    -2.7284    -1.3876 S.o2    
  11 O11           -6.7155    -3.6051    -0.9776 O.2     
  12 C12            1.0965     2.5605    -0.2925 C.3     
  13 N13            1.7310     2.2497    -1.5804 N.3     
  14 C14            3.0093     2.9605    -1.7228 C.3     
  15 C15            0.8311     2.5609    -2.6996 C.3     
  16 C16            1.4964     2.1499    -4.0152 C.3     
  17 N17            2.7747     2.8607    -4.1577 N.3     
  18 C18            3.6747     2.5495    -3.0384 C.3     
  19 C19            3.3784     2.5650    -5.3828 C.ar    
  20 C20            4.5993     3.1382    -5.7128 C.ar    
  21 C21            2.7608     1.6926    -6.2702 C.ar    
  22 C22            3.3592     1.4013    -7.4802 C.ar    
  23 C23            4.5734     1.9775    -7.8097 C.ar    
  24 C24            5.1943     2.8434    -6.9253 C.ar    
  25 Cl25           5.3228     1.6089    -9.3317 Cl      
  26 Cl26           6.7173     3.5647    -7.3424 Cl      
  27 O27           -5.9481    -1.3762    -1.7283 O.2     
  28 C28           -4.6485    -3.5111    -2.6620 C.3     
  29 H29           -0.8852     2.2076    -1.0601 H       
  30 H30           -0.7628     2.1487     0.7147 H       
  31 H31           -0.1695    -2.1534    -0.3621 H       
  32 H32           -2.5419     1.3884    -0.0703 H       
  33 H33           -4.5822     0.0156     0.0261 H       
  34 H34           -2.2086    -3.5284    -0.2712 H       
  35 H35           -4.9073    -3.1047     0.7475 H       
  36 H36            0.9709     3.6394    -0.2003 H       
  37 H37            1.7260     2.1973     0.5198 H       
  38 H38            2.8292     4.0355    -1.7267 H       
  39 H39            3.6629     2.7040    -0.8891 H       
  40 H40           -0.1034     2.0132    -2.5781 H       
  41 H41            0.6262     3.6314    -2.7147 H       
  42 H42            1.6766     1.0749    -4.0113 H       
  43 H43            0.8429     2.4064    -4.8490 H       
  44 H44            4.6092     3.0972    -3.1600 H       
  45 H45            3.8796     1.4790    -3.0234 H       
  46 H46            5.0834     3.8138    -5.0232 H       
  47 H47            1.8133     1.2422    -6.0137 H       
  48 H48            2.8793     0.7229    -8.1698 H       
  49 H49           -4.3987    -4.5265    -2.3544 H       
  50 H50           -5.1977    -3.5413    -3.6031 H       
  51 H51           -3.7322    -2.9358    -2.7944 H       
@<TRIPOS>BOND
   1    1    2 1
   2    1   12 1
   3    1   29 1
   4    1   30 1
   5    2    3 1
   6    3    4 ar
   7    3    5 ar
   8    4    8 ar
   9    4   31 1
  10    5    6 ar
  11    5   32 1
  12    6    7 ar
  13    6   33 1
  14    7    8 ar
  15    7    9 1
  16    8   34 1
  17    9   10 am
  18    9   35 1
  19   10   11 2
  20   10   27 2
  21   10   28 1
  22   12   13 1
  23   12   36 1
  24   12   37 1
  25   13   14 1
  26   13   15 1
  27   14   18 1
  28   14   38 1
  29   14   39 1
  30   15   16 1
  31   15   40 1
  32   15   41 1
  33   16   17 1
  34   16   42 1
  35   16   43 1
  36   17   18 1
  37   17   19 1
  38   18   44 1
  39   18   45 1
  40   19   20 ar
  41   19   21 ar
  42   20   24 ar
  43   20   46 1
  44   21   22 ar
  45   21   47 1
  46   22   23 ar
  47   22   48 1
  48   23   24 ar
  49   23   25 1
  50   24   26 1
  51   28   49 1
  52   28   50 1
  53   28   51 1

#	End of record

