#	Name: ASD01914071
#	Creating user name:	WinNT
#	Creation time:	15. 06. 2019 20:02

#	Modifying user name:	WinNT
#	Modification time:	15. 06. 2019 20:02

#	Program:	/corina/corina34_cracker 3.40 0067  02.08.2006

@<TRIPOS>MOLECULE
ASD01914071
  40   42    0    0    0
SMALL
NO_CHARGES


@<TRIPOS>ATOM
   1 C1            -0.0167     1.3781     0.0096 C.ar    
   2 C2             0.0021    -0.0041     0.0020 C.ar    
   3 C3             2.4059     0.0189    -0.0203 C.ar    
   4 C4             2.3981     1.4035    -0.0133 C.ar    
   5 O5             3.5870    -0.6532    -0.0348 O.3     
   6 C6             3.5211    -2.0807    -0.0414 C.3     
   7 C7             4.9172    -2.6479    -0.0573 C.ar    
   8 N8             5.0858    -3.9563    -0.0654 N.ar    
   9 C9             6.2838    -4.5031    -0.0794 C.ar    
  10 C10            7.4280    -3.7049    -0.0856 C.ar    
  11 C11            7.2813    -2.3124    -0.0772 C.ar    
  12 C12            6.0009    -1.7880    -0.0688 C.ar    
  13 C13            8.7728    -4.3189    -0.1003 C.2     
  14 N14            8.9010    -5.6605    -0.1078 N.am    
  15 O15            9.7629    -3.6137    -0.1056 O.2     
  16 C16            1.2085    -0.6833    -0.0127 C.ar    
  17 C17           10.2336    -6.2690    -0.1224 C.3     
  18 F18           -1.1596    -0.6938     0.0094 F       
  19 C19            1.1835     2.0911     0.0020 C.ar    
  20 C20            1.1686     3.5230     0.0089 C.1     
  21 N21            1.1568     4.6589     0.0143 N.1     
  22 C22           10.2687    -7.6893     0.4660 C.3     
  23 C23           11.2416    -8.0506    -0.6687 C.3     
  24 C24           10.6061    -6.9039    -1.4726 C.3     
  25 H25           -0.9589     1.9059     0.0169 H       
  26 H26            3.3295     1.9501    -0.0193 H       
  27 H27            2.9994    -2.4244     0.8518 H       
  28 H28            2.9827    -2.4155    -0.9280 H       
  29 H29            6.3813    -5.5787    -0.0857 H       
  30 H30            8.1452    -1.6643    -0.0817 H       
  31 H31            5.8492    -0.7188    -0.0622 H       
  32 H32            8.1109    -6.2233    -0.1036 H       
  33 H33            1.2180    -1.7633    -0.0179 H       
  34 H34           11.0039    -5.6107     0.2794 H       
  35 H35           10.7171    -7.7399     1.4583 H       
  36 H36            9.3136    -8.2110     0.4050 H       
  37 H37           12.2884    -7.8798    -0.4174 H       
  38 H38           11.0640    -9.0362    -1.0990 H       
  39 H39            9.7433    -7.2109    -2.0636 H       
  40 H40           11.3269    -6.3204    -2.0454 H       
@<TRIPOS>BOND
   1    1    2 ar
   2    1   19 ar
   3    1   25 1
   4    2   16 ar
   5    2   18 1
   6    3    4 ar
   7    3    5 1
   8    3   16 ar
   9    4   19 ar
  10    4   26 1
  11    5    6 1
  12    6    7 1
  13    6   27 1
  14    6   28 1
  15    7    8 ar
  16    7   12 ar
  17    8    9 ar
  18    9   10 ar
  19    9   29 1
  20   10   11 ar
  21   10   13 1
  22   11   12 ar
  23   11   30 1
  24   12   31 1
  25   13   14 am
  26   13   15 2
  27   14   17 1
  28   14   32 1
  29   16   33 1
  30   17   22 1
  31   17   24 1
  32   17   34 1
  33   19   20 1
  34   20   21 3
  35   22   23 1
  36   22   35 1
  37   22   36 1
  38   23   24 1
  39   23   37 1
  40   23   38 1
  41   24   39 1
  42   24   40 1

#	End of record

