#	Name: ASD01900374
#	Creating user name:	WinNT
#	Creation time:	15. 06. 2019 19:51

#	Modifying user name:	WinNT
#	Modification time:	15. 06. 2019 19:51

#	Program:	/corina/corina34_cracker 3.40 0067  02.08.2006

@<TRIPOS>MOLECULE
ASD01900374
  29   31    0    0    0
SMALL
NO_CHARGES


@<TRIPOS>ATOM
   1 C1             0.0220     1.4064     0.3790 C.ar    
   2 C2             0.0579     0.0273     0.5390 C.ar    
   3 N3             1.1755    -0.6485     0.3979 N.ar    
   4 C4             2.3206    -0.0414     0.0955 C.ar    
   5 C5             2.3584     1.3548    -0.0818 C.ar    
   6 C6             1.1813     2.0879     0.0647 C.ar    
   7 C7             3.6896    -0.5153    -0.1211 C.2     
   8 N8             4.4319     0.5242    -0.3961 N.2     
   9 N9             3.6534     1.6861    -0.3814 N.pl3   
  10 N10            4.1242    -1.8424    -0.0469 N.pl3   
  11 C11            5.4842    -2.1400    -0.1674 C.ar    
  12 C12            6.4376    -1.2130     0.2340 C.ar    
  13 C13            5.8854    -3.3661    -0.6836 C.ar    
  14 C14            7.2299    -3.6574    -0.8016 C.ar    
  15 C15            8.1777    -2.7295    -0.4061 C.ar    
  16 C16            7.7812    -1.5100     0.1137 C.ar    
  17 Cl17           9.8673    -3.0992    -0.5558 Cl      
  18 C18            8.8162    -0.5023     0.5431 C.3     
  19 H19           -0.9083     1.9425     0.4954 H       
  20 H20           -0.8517    -0.5004     0.7848 H       
  21 H21            1.1762     3.1601    -0.0649 H       
  22 H22            3.9786     2.5832    -0.5558 H       
  23 H23            3.4816    -2.5564     0.0882 H       
  24 H24            6.1287    -0.2609     0.6394 H       
  25 H25            5.1463    -4.0906    -0.9920 H       
  26 H26            7.5423    -4.6103    -1.2024 H       
  27 H27            9.0657     0.1436    -0.2987 H       
  28 H28            8.4189     0.1015     1.3590 H       
  29 H29            9.7126    -1.0231     0.8797 H       
@<TRIPOS>BOND
   1    1    2 ar
   2    1    6 ar
   3    1   19 1
   4    2    3 ar
   5    2   20 1
   6    3    4 ar
   7    4    5 ar
   8    4    7 1
   9    5    6 ar
  10    5    9 1
  11    6   21 1
  12    7    8 2
  13    7   10 1
  14    8    9 1
  15    9   22 1
  16   10   11 1
  17   10   23 1
  18   11   12 ar
  19   11   13 ar
  20   12   16 ar
  21   12   24 1
  22   13   14 ar
  23   13   25 1
  24   14   15 ar
  25   14   26 1
  26   15   16 ar
  27   15   17 1
  28   16   18 1
  29   18   27 1
  30   18   28 1
  31   18   29 1

#	End of record

