#	Name: ASD00100153
#	Creating user name:	WinNT
#	Creation time:	15. 06. 2019 18:30

#	Modifying user name:	WinNT
#	Modification time:	15. 06. 2019 18:30

#	Program:	/corina/corina34_cracker 3.40 0067  02.08.2006

@<TRIPOS>MOLECULE
ASD00100153
  42   44    0    0    0
SMALL
NO_CHARGES


@<TRIPOS>ATOM
   1 N1            -0.9541    -1.3871    -2.3685 N.pl3   
   2 C2            -0.4912    -1.4048    -1.0640 C.2     
   3 N3             0.6375    -1.9363    -0.6622 N.2     
   4 C4             0.7578    -1.7647     0.6791 C.2     
   5 C5            -0.3437    -1.1005     1.1144 C.2     
   6 N6            -1.1305    -0.8680     0.0106 N.pl3   
   7 C7             1.8877    -2.2206     1.5174 C.2     
   8 C8             2.9740    -2.8792     1.0679 C.2     
   9 C9             3.8980    -3.2004     2.0427 C.2     
  10 C10            3.5753    -2.8107     3.2782 C.2     
  11 S11            2.0252    -1.9805     3.2544 S.3     
  12 C12            5.1762    -3.9369     1.7346 C.3     
  13 C13           -2.4203    -0.1736    -0.0049 C.3     
  14 C14           -2.8256     0.1649     1.4066 C.ar    
  15 C15           -2.4750     1.3889     1.9550 C.ar    
  16 C16           -2.8493     1.6983     3.2549 C.ar    
  17 C17           -3.5709     0.7875     4.0026 C.ar    
  18 C18           -3.9215    -0.4332     3.4583 C.ar    
  19 C19           -3.5545    -0.7450     2.1568 C.ar    
  20 O20           -3.9044    -1.9434     1.6201 O.3     
  21 C21           -4.6551    -2.8317     2.4504 C.3     
  22 O22           -1.7650     2.2850     1.2202 O.3     
  23 C23           -1.4386     3.5259     1.8491 C.3     
  24 H24           -0.3954    -1.7246    -3.0861 H       
  25 H25           -1.8388    -1.0411    -2.5646 H       
  26 H26           -0.5587    -0.8074     2.1314 H       
  27 H27            3.1110    -3.1358     0.0278 H       
  28 H28            4.1773    -2.9772     4.1592 H       
  29 H29            5.9624    -3.2186     1.5023 H       
  30 H30            5.4707    -4.5309     2.5997 H       
  31 H31            5.0198    -4.5938     0.8790 H       
  32 H32           -2.3323     0.7434    -0.5875 H       
  33 H33           -3.1749    -0.8188    -0.4548 H       
  34 H34           -2.5761     2.6516     3.6827 H       
  35 H35           -3.8610     1.0299     5.0143 H       
  36 H36           -4.4855    -1.1434     4.0447 H       
  37 H37           -5.5921    -2.3550     2.7384 H       
  38 H38           -4.8679    -3.7492     1.9017 H       
  39 H39           -4.0780    -3.0684     3.3442 H       
  40 H40           -2.3559     4.0416     2.1332 H       
  41 H41           -0.8383     3.3356     2.7388 H       
  42 H42           -0.8726     4.1472     1.1550 H       
@<TRIPOS>BOND
   1    1    2 1
   2    1   24 1
   3    1   25 1
   4    2    3 2
   5    2    6 1
   6    3    4 1
   7    4    5 2
   8    4    7 1
   9    5    6 1
  10    5   26 1
  11    6   13 1
  12    7    8 2
  13    7   11 1
  14    8    9 1
  15    8   27 1
  16    9   10 2
  17    9   12 1
  18   10   11 1
  19   10   28 1
  20   12   29 1
  21   12   30 1
  22   12   31 1
  23   13   14 1
  24   13   32 1
  25   13   33 1
  26   14   15 ar
  27   14   19 ar
  28   15   16 ar
  29   15   22 1
  30   16   17 ar
  31   16   34 1
  32   17   18 ar
  33   17   35 1
  34   18   19 ar
  35   18   36 1
  36   19   20 1
  37   20   21 1
  38   21   37 1
  39   21   38 1
  40   21   39 1
  41   22   23 1
  42   23   40 1
  43   23   41 1
  44   23   42 1

#	End of record

