#	Name: ASD03091998
#	Creating user name:	WinNT
#	Creation time:	15. 06. 2019 20:31

#	Modifying user name:	WinNT
#	Modification time:	15. 06. 2019 20:31

#	Program:	/corina/corina34_cracker 3.40 0067  02.08.2006

@<TRIPOS>MOLECULE
ASD03091998
  41   43    0    0    0
SMALL
NO_CHARGES


@<TRIPOS>ATOM
   1 C1             0.6122     0.8250    -1.1680 C.3     
   2 C2             0.4527    -0.6262    -0.7943 C.2     
   3 C3            -0.7110    -1.2926    -0.6267 C.2     
   4 C4            -0.3037    -2.6137    -0.2849 C.2     
   5 N5             1.0078    -2.6008    -0.2837 N.2     
   6 O6             1.4380    -1.5075    -0.5694 O.3     
   7 C7            -1.1830    -3.7684     0.0099 C.2     
   8 C8            -0.6414    -5.0005     0.2213 C.2     
   9 N9            -1.4399    -6.0416     0.5911 N.pl3   
  10 C10           -0.8713    -7.2743     0.9250 C.ar    
  11 C11            0.5076    -7.4379     0.8860 C.ar    
  12 C12            1.0666    -8.6566     1.2168 C.ar    
  13 C13            0.2544    -9.7144     1.5865 C.ar    
  14 Cl14           0.9605   -11.2451     2.0012 Cl      
  15 C15           -1.1196    -9.5540     1.6267 C.ar    
  16 C16           -1.6838    -8.3361     1.3020 C.ar    
  17 C17           -2.6354    -3.5856     0.0742 C.2     
  18 O18           -3.2802    -3.4689    -0.9517 O.2     
  19 N19           -3.2575    -3.5467     1.2692 N.am    
  20 C20           -4.6551    -3.5594     1.3310 C.ar    
  21 C21           -5.4036    -3.1431     0.2377 C.ar    
  22 C22           -6.7831    -3.1571     0.3013 C.ar    
  23 C23           -7.4197    -3.5855     1.4529 C.ar    
  24 Cl24          -9.1539    -3.6024     1.5292 Cl      
  25 C25           -6.6762    -4.0008     2.5438 C.ar    
  26 C26           -5.2965    -3.9938     2.4837 C.ar    
  27 H27            1.6725     1.0692    -1.2325 H       
  28 H28            0.1384     1.0059    -2.1329 H       
  29 H29            0.1410     1.4496    -0.4091 H       
  30 H30           -1.7165    -0.9115    -0.7278 H       
  31 H31            0.4205    -5.1524     0.0960 H       
  32 H32           -2.4026    -5.9271     0.6225 H       
  33 H33            1.1419    -6.6130     0.5969 H       
  34 H34            2.1386    -8.7844     1.1867 H       
  35 H35           -1.7511   -10.3811     1.9159 H       
  36 H36           -2.7558    -8.2103     1.3375 H       
  37 H37           -2.7362    -3.5098     2.0863 H       
  38 H38           -4.9073    -2.8084    -0.6612 H       
  39 H39           -7.3657    -2.8332    -0.5485 H       
  40 H40           -7.1755    -4.3346     3.4414 H       
  41 H41           -4.7168    -4.3222     3.3337 H       
@<TRIPOS>BOND
   1    1    2 1
   2    1   27 1
   3    1   28 1
   4    1   29 1
   5    2    6 1
   6    2    3 2
   7    3    4 1
   8    3   30 1
   9    4    5 2
  10    4    7 1
  11    5    6 1
  12    7    8 2
  13    7   17 1
  14    8    9 1
  15    8   31 1
  16    9   10 1
  17    9   32 1
  18   10   16 ar
  19   10   11 ar
  20   11   12 ar
  21   11   33 1
  22   12   13 ar
  23   12   34 1
  24   13   14 1
  25   13   15 ar
  26   15   16 ar
  27   15   35 1
  28   16   36 1
  29   17   18 2
  30   17   19 am
  31   19   20 1
  32   19   37 1
  33   20   26 ar
  34   20   21 ar
  35   21   22 ar
  36   21   38 1
  37   22   23 ar
  38   22   39 1
  39   23   24 1
  40   23   25 ar
  41   25   26 ar
  42   25   40 1
  43   26   41 1

#	End of record

