#	Name: ASD03200090
#	Creating user name:	WinNT
#	Creation time:	15. 06. 2019 20:34

#	Modifying user name:	WinNT
#	Modification time:	15. 06. 2019 20:34

#	Program:	/corina/corina34_cracker 3.40 0067  02.08.2006

@<TRIPOS>MOLECULE
ASD03200090
  26   27    0    0    0
SMALL
NO_CHARGES


@<TRIPOS>ATOM
   1 C1            -0.0086     1.3116     0.1028 C.ar    
   2 C2             0.9920    -2.7804     0.9938 C.ar    
   3 C3             2.2349    -3.3703     0.8694 C.ar    
   4 C4             2.6640    -3.8282    -0.3627 C.ar    
   5 C5             1.8503    -3.6978    -1.4730 C.ar    
   6 C6            -1.1062    -0.7176     0.1130 C.ar    
   7 C7             0.1738    -2.6480    -0.1189 C.ar    
   8 C8             0.6065    -3.1087    -1.3540 C.ar    
   9 C9            -2.3273    -0.0969     0.3451 C.ar    
  10 C10           -2.3731     1.2825     0.4455 C.ar    
  11 C11           -1.1872     1.9946     0.3271 C.ar    
  12 O12           -1.3799     4.0745    -0.8501 O.3     
  13 C13           -1.1865     3.4972     0.4427 C.3     
  14 N14            0.0018    -0.0039     0.0005 N.ar    
  15 O15           -1.0496    -2.0685     0.0010 O.3     
  16 H16            0.9159     1.8613     0.0055 H       
  17 H17            0.6557    -2.4267     1.9572 H       
  18 H18            2.8722    -3.4737     1.7352 H       
  19 H19            3.6363    -4.2885    -0.4580 H       
  20 H20            2.1878    -4.0563    -2.4343 H       
  21 H21           -0.0285    -3.0068    -2.2216 H       
  22 H22           -3.2301    -0.6826     0.4368 H       
  23 H23           -3.3080     1.7924     0.6252 H       
  24 H24           -1.3904     5.0414    -0.8516 H       
  25 H25           -1.9932     3.8110     1.1051 H       
  26 H26           -0.2318     3.8298     0.8500 H       
@<TRIPOS>BOND
   1    1   14 ar
   2    1   16 1
   3    1   11 ar
   4    2    7 ar
   5    2    3 ar
   6    2   17 1
   7    3    4 ar
   8    3   18 1
   9    4    5 ar
  10    4   19 1
  11    5   20 1
  12    5    8 ar
  13    6   15 1
  14    6    9 ar
  15    6   14 ar
  16    7    8 ar
  17    7   15 1
  18    8   21 1
  19    9   22 1
  20    9   10 ar
  21   10   23 1
  22   10   11 ar
  23   11   13 1
  24   12   24 1
  25   12   13 1
  26   13   25 1
  27   13   26 1

#	End of record

