#	Name: ASD04910254
#	Creating user name:	WinNT
#	Creation time:	15. 06. 2019 20:55

#	Modifying user name:	WinNT
#	Modification time:	15. 06. 2019 20:55

#	Program:	/corina/corina34_cracker 3.40 0067  02.08.2006

@<TRIPOS>MOLECULE
ASD04910254
  55   57    0    0    0
SMALL
NO_CHARGES


@<TRIPOS>ATOM
   1 C1            -0.1398     1.4849     0.0664 C.2     
   2 C2            -0.1048     0.0081     0.0639 C.ar    
   3 C3            -1.2497    -0.7211     0.3911 C.ar    
   4 C4            -1.2102    -2.0999     0.3864 C.ar    
   5 C5            -0.0393    -2.7605     0.0588 C.ar    
   6 C6             1.0990    -2.0441    -0.2660 C.ar    
   7 C7             1.0718    -0.6649    -0.2713 C.ar    
   8 O8            -1.1662     2.0677     0.3535 O.2     
   9 O9             0.9681     2.1855    -0.2444 O.3     
  10 C10           -0.0036    -4.2671     0.0563 C.3     
  11 C11           -0.2056    -4.7844     1.4819 C.3     
  12 C12           -0.0455    -6.3059     1.4998 C.3     
  13 C13           -0.2474    -6.8232     2.9255 C.3     
  14 N14           -1.0721    -4.7794    -0.8051 N.pl3   
  15 C15           -0.7537    -5.4635    -1.9822 C.ar    
  16 C16           -1.7597    -6.0538    -2.7365 C.ar    
  17 C17           -1.4449    -6.7288    -3.8988 C.ar    
  18 C18           -0.1231    -6.8180    -4.3136 C.ar    
  19 C19            0.8826    -6.2287    -3.5598 C.ar    
  20 C20            0.5681    -5.5482    -2.4006 C.ar    
  21 C21           -0.6766    -8.1267    -6.3290 C.2     
  22 N22           -0.0054    -8.6516    -7.3180 N.2     
  23 C23            1.3000    -8.3898    -7.1572 C.2     
  24 C24            1.4491    -7.6749    -6.0256 C.2     
  25 N25            0.1966    -7.5049    -5.4955 N.pl3   
  26 C26            2.4085    -8.8214    -8.0824 C.3     
  27 F27            1.8601    -9.4463    -9.2075 F       
  28 F28            3.1441    -7.7010    -8.4833 F       
  29 F29            3.2504    -9.7177    -7.4152 F       
  30 C30           -2.4743    -4.5749    -0.4332 C.3     
  31 C31            0.8605     3.6333    -0.2217 C.3     
  32 H32           -2.1641    -0.2067     0.6477 H       
  33 H33           -2.0950    -2.6652     0.6393 H       
  34 H34            2.0098    -2.5660    -0.5200 H       
  35 H35            1.9596    -0.1070    -0.5296 H       
  36 H36            0.9611    -4.6070    -0.3203 H       
  37 H37            0.5364    -4.3332     2.1407 H       
  38 H38           -1.2056    -4.5202     1.8260 H       
  39 H39           -0.7874    -6.7571     0.8410 H       
  40 H40            0.9545    -6.5701     1.1557 H       
  41 H41           -0.1333    -7.9072     2.9382 H       
  42 H42            0.4945    -6.3720     3.5843 H       
  43 H43           -1.2474    -6.5591     3.2696 H       
  44 H44           -2.7880    -5.9851    -2.4135 H       
  45 H45           -2.2270    -7.1878    -4.4854 H       
  46 H46            1.9109    -6.2989    -3.8826 H       
  47 H47            1.3501    -5.0856    -1.8168 H       
  48 H48           -1.7476    -8.1750    -6.1981 H       
  49 H49            2.3774    -7.3068    -5.6144 H       
  50 H50           -2.8575    -3.6865    -0.9351 H       
  51 H51           -3.0603    -5.4434    -0.7339 H       
  52 H52           -2.5483    -4.4428     0.6463 H       
  53 H53            1.8209     4.0732    -0.4902 H       
  54 H54            0.1020     3.9525    -0.9364 H       
  55 H55            0.5778     3.9610     0.7787 H       
@<TRIPOS>BOND
   1    1    2 1
   2    1    8 2
   3    1    9 1
   4    2    3 ar
   5    2    7 ar
   6    3    4 ar
   7    3   32 1
   8    4    5 ar
   9    4   33 1
  10    5    6 ar
  11    5   10 1
  12    6    7 ar
  13    6   34 1
  14    7   35 1
  15    9   31 1
  16   10   11 1
  17   10   14 1
  18   10   36 1
  19   11   12 1
  20   11   37 1
  21   11   38 1
  22   12   13 1
  23   12   39 1
  24   12   40 1
  25   13   41 1
  26   13   42 1
  27   13   43 1
  28   14   15 1
  29   14   30 1
  30   15   16 ar
  31   15   20 ar
  32   16   17 ar
  33   16   44 1
  34   17   18 ar
  35   17   45 1
  36   18   19 ar
  37   18   25 1
  38   19   20 ar
  39   19   46 1
  40   20   47 1
  41   21   22 2
  42   21   25 1
  43   21   48 1
  44   22   23 1
  45   23   24 2
  46   23   26 1
  47   24   25 1
  48   24   49 1
  49   26   27 1
  50   26   28 1
  51   26   29 1
  52   30   50 1
  53   30   51 1
  54   30   52 1
  55   31   53 1
  56   31   54 1
  57   31   55 1

#	End of record

