#	Name: ASD02039310
#	Creating user name:	WinNT
#	Creation time:	15. 06. 2019 20:18

#	Modifying user name:	WinNT
#	Modification time:	15. 06. 2019 20:18

#	Program:	/corina/corina34_cracker 3.40 0067  02.08.2006

@<TRIPOS>MOLECULE
ASD02039310
  49   51    0    0    0
SMALL
NO_CHARGES


@<TRIPOS>ATOM
   1 C1            -0.1345     1.5595    -0.1872 C.ar    
   2 C2            -0.1559     0.1782    -0.0590 C.ar    
   3 C3            -1.3626    -0.4920    -0.1423 C.ar    
   4 N4            -2.4879     0.1633    -0.3418 N.ar    
   5 C5            -2.5105     1.4837    -0.4697 C.ar    
   6 C6            -1.3325     2.2230    -0.3900 C.ar    
   7 C7            -3.8016     2.1791    -0.6937 C.ar    
   8 C8             1.1630     2.3212    -0.1015 C.3     
   9 N9             1.8164     2.3220    -1.4127 N.am    
  10 C10            1.4076     3.2892    -2.4343 C.3     
  11 C11            2.7936     1.4328    -1.6792 C.2     
  12 C12            3.1433     0.4028    -0.6856 C.2     
  13 C13            4.1488    -0.5129    -0.7932 C.2     
  14 C14            2.5762     4.2261    -2.7463 C.3     
  15 N15            2.5275     0.1959     0.5064 N.2     
  16 C16            3.1089    -0.7980     1.1136 C.2     
  17 N17            4.1202    -1.2619     0.3342 N.pl3   
  18 O18            3.3866     1.4807    -2.7400 O.2     
  19 C19            5.0184    -2.3738     0.6556 C.3     
  20 C20            0.9972     2.5446    -3.7064 C.3     
  21 C21           -4.9945     1.4545    -0.7712 C.ar    
  22 C22           -3.8456     3.5654    -0.8245 C.ar    
  23 N23           -4.9917     4.1841    -1.0226 N.ar    
  24 C24           -6.1324     3.5271    -1.1051 C.ar    
  25 C25           -6.1726     2.1501    -0.9809 C.ar    
  26 C26           -7.4125     4.2891    -1.3322 C.3     
  27 H27            0.7612    -0.3684     0.1041 H       
  28 H28           -1.3828    -1.5672    -0.0429 H       
  29 H29           -1.3524     3.2978    -0.4943 H       
  30 H30            0.9621     3.3478     0.2049 H       
  31 H31            1.8163     1.8450     0.6297 H       
  32 H32            0.5632     3.8717    -2.0659 H       
  33 H33            4.8358    -0.6200    -1.6196 H       
  34 H34            3.4480     3.6372    -3.0312 H       
  35 H35            2.3014     4.8889    -3.5668 H       
  36 H36            2.8117     4.8198    -1.8630 H       
  37 H37            2.8337    -1.1888     2.0821 H       
  38 H38            4.5915    -3.3050     0.2830 H       
  39 H39            5.9877    -2.2052     0.1864 H       
  40 H40            5.1441    -2.4385     1.7363 H       
  41 H41            0.1124     1.9409    -3.5046 H       
  42 H42            0.7737     3.2653    -4.4931 H       
  43 H43            1.8132     1.8973    -4.0277 H       
  44 H44           -4.9968     0.3792    -0.6703 H       
  45 H45           -2.9321     4.1380    -0.7626 H       
  46 H46           -7.1127     1.6230    -1.0502 H       
  47 H47           -7.5952     4.3816    -2.4028 H       
  48 H48           -8.2409     3.7546    -0.8672 H       
  49 H49           -7.3274     5.2821    -0.8910 H       
@<TRIPOS>BOND
   1    1    2 ar
   2    1    8 1
   3    1    6 ar
   4    2    3 ar
   5    2   27 1
   6    3    4 ar
   7    3   28 1
   8    4    5 ar
   9    5    6 ar
  10    5    7 1
  11    6   29 1
  12    7   21 ar
  13    7   22 ar
  14    8    9 1
  15    8   30 1
  16    8   31 1
  17    9   10 1
  18    9   11 am
  19   10   20 1
  20   10   14 1
  21   10   32 1
  22   11   12 1
  23   11   18 2
  24   12   13 2
  25   12   15 1
  26   13   17 1
  27   13   33 1
  28   14   34 1
  29   14   35 1
  30   14   36 1
  31   15   16 2
  32   16   17 1
  33   16   37 1
  34   17   19 1
  35   19   38 1
  36   19   39 1
  37   19   40 1
  38   20   41 1
  39   20   42 1
  40   20   43 1
  41   21   25 ar
  42   21   44 1
  43   22   23 ar
  44   22   45 1
  45   23   24 ar
  46   24   25 ar
  47   24   26 1
  48   25   46 1
  49   26   47 1
  50   26   48 1
  51   26   49 1

#	End of record

