#	Name: ASD07300525
#	Creating user name:	WinNT
#	Creation time:	15. 06. 2019 21:09

#	Modifying user name:	WinNT
#	Modification time:	15. 06. 2019 21:09

#	Program:	/corina/corina34_cracker 3.40 0067  02.08.2006

@<TRIPOS>MOLECULE
ASD07300525
  39   42    0    0    0
SMALL
NO_CHARGES


@<TRIPOS>ATOM
   1 C1            -0.3228     0.0774     3.1530 C.ar    
   2 C2            -0.4282    -1.0658     2.3716 C.ar    
   3 C3             0.7099    -1.6738     1.8806 C.ar    
   4 C4             1.9604    -1.1421     2.1682 C.ar    
   5 C5             2.0657     0.0013     2.9497 C.ar    
   6 C6             0.9276     0.6091     3.4406 C.ar    
   7 N7            -1.4777     0.6974     3.6462 N.pl3   
   8 N8             3.1145    -1.7588     1.6708 N.pl3   
   9 C9             4.1809    -0.9841     1.2279 C.ar    
  10 C10            5.2706    -1.5961     0.6160 C.ar    
  11 C11            6.3241    -0.8135     0.1798 C.ar    
  12 C12            6.2526     0.5604     0.3708 C.ar    
  13 C13            5.1411     1.1007     0.9855 C.ar    
  14 N14            4.1481     0.3301     1.3872 N.ar    
  15 N15            5.3019    -3.0649     0.4348 N.pl3   
  16 O16            6.3545    -3.6690     0.5382 O.2     
  17 O17            4.2751    -3.6694     0.1823 O.2     
  18 O18           -2.5210     1.8567     5.4890 O.3     
  19 C19           -1.4485     1.3374     4.8655 C.2     
  20 N20           -0.3733     1.5283     5.5867 N.2     
  21 C21           -0.7221     2.1908     6.7234 C.ar    
  22 C22           -2.1080     2.4008     6.6568 C.ar    
  23 C23           -0.0063     2.6485     7.8301 C.ar    
  24 C24           -0.6660     3.3026     8.8479 C.ar    
  25 C25           -2.0349     3.5080     8.7781 C.ar    
  26 C26           -2.7553     3.0599     7.6887 C.ar    
  27 H27           -1.4005    -1.4795     2.1482 H       
  28 H28            0.6280    -2.5631     1.2733 H       
  29 H29            3.0381     0.4146     3.1737 H       
  30 H30            1.0095     1.4982     4.0482 H       
  31 H31           -2.2981     0.6761     3.1291 H       
  32 H32            3.1704    -2.7265     1.6352 H       
  33 H33            7.1831    -1.2605    -0.2982 H       
  34 H34            7.0588     1.1994     0.0420 H       
  35 H35            5.0817     2.1685     1.1362 H       
  36 H36            1.0604     2.4904     7.8890 H       
  37 H37           -0.1131     3.6571     9.7053 H       
  38 H38           -2.5417     4.0219     9.5815 H       
  39 H39           -3.8217     3.2238     7.6410 H       
@<TRIPOS>BOND
   1    1    2 ar
   2    1    6 ar
   3    1    7 1
   4    2    3 ar
   5    2   27 1
   6    3    4 ar
   7    3   28 1
   8    4    5 ar
   9    4    8 1
  10    5    6 ar
  11    5   29 1
  12    6   30 1
  13    7   19 1
  14    7   31 1
  15    8    9 1
  16    8   32 1
  17    9   10 ar
  18    9   14 ar
  19   10   11 ar
  20   10   15 1
  21   11   12 ar
  22   11   33 1
  23   12   13 ar
  24   12   34 1
  25   13   14 ar
  26   13   35 1
  27   15   16 2
  28   15   17 2
  29   18   19 1
  30   18   22 1
  31   19   20 2
  32   20   21 1
  33   21   22 ar
  34   21   23 ar
  35   22   26 ar
  36   23   24 ar
  37   23   36 1
  38   24   25 ar
  39   24   37 1
  40   25   26 ar
  41   25   38 1
  42   26   39 1

#	End of record

