#	Name: ASD01884065
#	Creating user name:	WinNT
#	Creation time:	15. 06. 2019 19:47

#	Modifying user name:	WinNT
#	Modification time:	15. 06. 2019 19:47

#	Program:	/corina/corina34_cracker 3.40 0067  02.08.2006

@<TRIPOS>MOLECULE
ASD01884065
  58   62    0    0    0
SMALL
NO_CHARGES


@<TRIPOS>ATOM
   1 C1            -0.3778     0.7504     0.7863 C.3     
   2 O2            -0.5064     0.5384    -0.6210 O.3     
   3 C3             0.5397    -0.2534    -1.1874 C.3     
   4 C4             0.2295    -0.5303    -2.6598 C.3     
   5 C5            -1.0971    -1.2848    -2.7684 C.3     
   6 C6            -0.9934    -2.6102    -2.0110 C.3     
   7 H7            -0.1955    -3.2141    -2.4430 H       
   8 C8            -0.6832    -2.3332    -0.5386 C.3     
   9 C9             0.6434    -1.5787    -0.4300 C.3     
  10 O10           -2.2325    -3.3149    -2.1123 O.3     
  11 C11           -2.1643    -4.6597    -2.2843 C.2     
  12 C12           -1.6224    -5.4776    -1.2713 C.2     
  13 C13           -1.5542    -6.8133    -1.4397 C.2     
  14 N14           -2.0064    -7.3920    -2.5892 N.pl3   
  15 C15           -2.0661    -8.6796    -3.0331 C.2     
  16 C16           -1.6001    -9.9024    -2.2858 C.3     
  17 C17           -2.7528   -10.4575    -1.4467 C.3     
  18 C18           -3.2684   -11.8560    -1.7921 C.3     
  19 C19           -2.4481   -11.6358    -0.5195 C.3     
  20 N20           -2.6020    -8.6598    -4.2252 N.2     
  21 N21           -2.8858    -7.4525    -4.5680 N.2     
  22 C22           -2.5397    -6.6236    -3.5952 C.2     
  23 C23           -2.6254    -5.2291    -3.4375 C.2     
  24 C24           -3.2136    -4.3726    -4.5291 C.3     
  25 F25           -2.1999    -3.9763    -5.4081 F       
  26 F26           -4.1774    -5.1062    -5.2291 F       
  27 F27           -3.8093    -3.2403    -3.9633 F       
  28 C28            1.8464     0.4898    -1.0805 C.ar    
  29 C29            3.0415    -0.2026    -1.1381 C.ar    
  30 C30            4.2404     0.4778    -1.0401 C.ar    
  31 C31            4.2442     1.8537    -0.8848 C.ar    
  32 F32            5.4156     2.5200    -0.7894 F       
  33 C33            3.0466     2.5462    -0.8278 C.ar    
  34 C34            1.8490     1.8641    -0.9308 C.ar    
  35 H35           -0.5048    -0.1973     1.3096 H       
  36 H36            0.6102     1.1561     1.0039 H       
  37 H37           -1.1409     1.4541     1.1190 H       
  38 H38            0.1556     0.4139    -3.1994 H       
  39 H39            1.0274    -1.1343    -3.0919 H       
  40 H40           -1.8950    -0.6809    -2.3363 H       
  41 H41           -1.3181    -1.4821    -3.8173 H       
  42 H42           -1.4811    -1.7293    -0.1065 H       
  43 H43           -0.6094    -3.2774     0.0010 H       
  44 H44            1.4413    -2.1827    -0.8621 H       
  45 H45            0.8644    -1.3814     0.6189 H       
  46 H46           -1.2602    -5.0319    -0.3567 H       
  47 H47           -1.1374    -7.4307    -0.6577 H       
  48 H48           -1.2711   -10.6598    -2.9974 H       
  49 H49           -0.7707    -9.6341    -1.6314 H       
  50 H50           -3.4811    -9.7226    -1.1039 H       
  51 H51           -4.3364   -12.0413    -1.6767 H       
  52 H52           -2.7865   -12.3806    -2.6171 H       
  53 H53           -1.4265   -12.0156    -0.5073 H       
  54 H54           -2.9763   -11.6763     0.4331 H       
  55 H55            3.0383    -1.2758    -1.2592 H       
  56 H56            5.1739    -0.0634    -1.0844 H       
  57 H57            3.0483     3.6193    -0.7063 H       
  58 H58            0.9148     2.4045    -0.8904 H       
@<TRIPOS>BOND
   1    1    2 1
   2    1   35 1
   3    1   36 1
   4    1   37 1
   5    2    3 1
   6    3    9 1
   7    3    4 1
   8    3   28 1
   9    4    5 1
  10    4   38 1
  11    4   39 1
  12    5    6 1
  13    5   40 1
  14    5   41 1
  15    6    7 1
  16    6    8 1
  17    6   10 1
  18    8    9 1
  19    8   42 1
  20    8   43 1
  21    9   44 1
  22    9   45 1
  23   10   11 1
  24   11   23 2
  25   11   12 1
  26   12   13 2
  27   12   46 1
  28   13   14 1
  29   13   47 1
  30   14   22 1
  31   14   15 1
  32   15   16 1
  33   15   20 2
  34   16   17 1
  35   16   48 1
  36   16   49 1
  37   17   19 1
  38   17   18 1
  39   17   50 1
  40   18   19 1
  41   18   51 1
  42   18   52 1
  43   19   53 1
  44   19   54 1
  45   20   21 1
  46   21   22 2
  47   22   23 1
  48   23   24 1
  49   24   25 1
  50   24   26 1
  51   24   27 1
  52   28   34 ar
  53   28   29 ar
  54   29   30 ar
  55   29   55 1
  56   30   31 ar
  57   30   56 1
  58   31   32 1
  59   31   33 ar
  60   33   34 ar
  61   33   57 1
  62   34   58 1

#	End of record

