#	Name: ASD01912714
#	Creating user name:	WinNT
#	Creation time:	15. 06. 2019 20:00

#	Modifying user name:	WinNT
#	Modification time:	15. 06. 2019 20:00

#	Program:	/corina/corina34_cracker 3.40 0067  02.08.2006

@<TRIPOS>MOLECULE
ASD01912714
  41   44    0    0    0
SMALL
NO_CHARGES


@<TRIPOS>ATOM
   1 C1            -0.0165     1.3669     0.0096 C.2     
   2 N2             0.0021    -0.0041     0.0020 N.pl3   
   3 C3            -1.2024    -0.6923     0.0094 C.2     
   4 C4            -2.3629    -0.0504     0.0235 C.2     
   5 N5            -2.4359     1.3310     0.0312 N.am    
   6 C6            -1.3019     2.0669     0.0309 C.2     
   7 C7             1.3014     1.7837    -0.0008 C.2     
   8 C8             2.0550     0.6110    -0.0143 C.2     
   9 N9             1.2244    -0.4045    -0.0118 N.2     
  10 O10           -1.3487     3.2837     0.0376 O.2     
  11 C11           -3.6758     1.9626     0.0451 C.ar    
  12 C12            3.5595     0.5249    -0.0291 C.3     
  13 O13            4.1120     1.8427    -0.0273 O.3     
  14 C14            5.4673     1.9435    -0.0397 C.ar    
  15 C15            6.0712     3.1924    -0.0388 C.ar    
  16 C16            7.4489     3.2922    -0.0514 C.ar    
  17 C17            8.2259     2.1486    -0.0650 C.ar    
  18 C18            7.6265     0.9026    -0.0664 C.ar    
  19 C19            6.2492     0.7975    -0.0476 C.ar    
  20 N20           -3.7255     3.2849     0.0522 N.ar    
  21 C21           -4.8868     3.9224     0.0655 C.ar    
  22 C22           -5.9732     1.7955     0.0584 C.ar    
  23 N23           -4.7753     1.2250     0.0454 N.ar    
  24 C24           -6.0601     3.1890     0.0718 C.ar    
  25 F25           -7.2615     3.8067     0.0858 F       
  26 O26           -7.0964     1.0364     0.0582 O.3     
  27 C27           -6.9211    -0.3817     0.0436 C.3     
  28 H28           -1.1950    -1.7722     0.0031 H       
  29 H29           -3.2784    -0.6233     0.0289 H       
  30 H30            1.6684     2.7994     0.0006 H       
  31 H31            3.9013    -0.0137     0.8548 H       
  32 H32            3.8843    -0.0041    -0.9251 H       
  33 H33            5.4647     4.0860    -0.0285 H       
  34 H34            7.9195     4.2643    -0.0511 H       
  35 H35            9.3029     2.2287    -0.0749 H       
  36 H36            8.2356     0.0109    -0.0778 H       
  37 H37            5.7814    -0.1759    -0.0487 H       
  38 H38           -4.9174     5.0019     0.0716 H       
  39 H39           -6.3722    -0.6707    -0.8527 H       
  40 H40           -6.3609    -0.6877     0.9271 H       
  41 H41           -7.8964    -0.8685     0.0451 H       
@<TRIPOS>BOND
   1    1    2 1
   2    1    7 2
   3    1    6 1
   4    2    3 1
   5    2    9 1
   6    3    4 2
   7    3   28 1
   8    4    5 1
   9    4   29 1
  10    5    6 am
  11    5   11 1
  12    6   10 2
  13    7    8 1
  14    7   30 1
  15    8    9 2
  16    8   12 1
  17   11   20 ar
  18   11   23 ar
  19   12   13 1
  20   12   31 1
  21   12   32 1
  22   13   14 1
  23   14   15 ar
  24   14   19 ar
  25   15   16 ar
  26   15   33 1
  27   16   17 ar
  28   16   34 1
  29   17   18 ar
  30   17   35 1
  31   18   19 ar
  32   18   36 1
  33   19   37 1
  34   20   21 ar
  35   21   24 ar
  36   21   38 1
  37   22   23 ar
  38   22   26 1
  39   22   24 ar
  40   24   25 1
  41   26   27 1
  42   27   39 1
  43   27   40 1
  44   27   41 1

#	End of record

