#	Name: ASD02560470
#	Creating user name:	WinNT
#	Creation time:	15. 06. 2019 20:25

#	Modifying user name:	WinNT
#	Modification time:	15. 06. 2019 20:25

#	Program:	/corina/corina34_cracker 3.40 0067  02.08.2006

@<TRIPOS>MOLECULE
ASD02560470
  52   55    0    0    0
SMALL
NO_CHARGES


@<TRIPOS>ATOM
   1 C1            -0.0082     1.4090     0.1364 C.2     
   2 C2             0.0074     0.0031     0.1006 C.2     
   3 C3             1.1777    -0.6644     0.0548 C.2     
   4 N4             2.3660     0.0142     0.0424 N.pl3   
   5 C5             2.3817     1.3896     0.0762 C.2     
   6 C6             1.1636     2.0982     0.1243 C.2     
   7 C7             3.6693    -0.4001    -0.0007 C.2     
   8 C8             4.4427     0.7148     0.0075 C.2     
   9 N9             3.6440     1.7871     0.0543 N.2     
  10 C10            5.9490     0.7407    -0.0293 C.3     
  11 N11            4.1201    -1.7252    -0.0446 N.3     
  12 C12            2.9997    -2.6669     0.0813 C.3     
  13 C13            2.3196    -2.8352    -1.2789 C.3     
  14 C14            6.4087     1.4898    -1.2535 C.ar    
  15 C15            7.1917     0.8544    -2.1991 C.ar    
  16 C16            6.0428     2.8106    -1.4335 C.ar    
  17 C17            6.4645     3.4977    -2.5565 C.ar    
  18 C18            7.2525     2.8642    -3.4991 C.ar    
  19 C19            7.6134     1.5416    -3.3220 C.ar    
  20 C20            6.4779     1.4396     1.2248 C.3     
  21 C21            3.5239    -4.0221     0.5606 C.3     
  22 C22            2.3570    -5.0029     0.6917 C.3     
  23 C23            1.6769    -5.1712    -0.6684 C.3     
  24 C24            1.1527    -3.8160    -1.1477 C.3     
  25 C25           -1.2913    -0.7613     0.1140 C.3     
  26 H26           -0.9484     1.9396     0.1690 H       
  27 H27            1.1775    -1.7441     0.0279 H       
  28 H28            1.1615     3.1779     0.1509 H       
  29 H29            6.3293    -0.2802    -0.0640 H       
  30 H30            4.6466    -1.9003    -0.8874 H       
  31 H31            2.2795    -2.2803     0.8023 H       
  32 H32            1.9462    -1.8698    -1.6203 H       
  33 H33            3.0399    -3.2218    -1.9999 H       
  34 H34            7.4742    -0.1787    -2.0605 H       
  35 H35            5.4272     3.3056    -0.6971 H       
  36 H36            6.1780     4.5295    -2.6975 H       
  37 H37            7.5816     3.4009    -4.3766 H       
  38 H38            8.2290     1.0465    -4.0585 H       
  39 H39            6.1454     0.8978     2.1102 H       
  40 H40            7.5674     1.4584     1.1981 H       
  41 H41            6.0976     2.4606     1.2594 H       
  42 H42            4.2442    -4.4086    -0.1605 H       
  43 H43            4.0085    -3.9021     1.5296 H       
  44 H44            2.7305    -5.9683     1.0332 H       
  45 H45            1.6367    -4.6163     1.4127 H       
  46 H46            2.3972    -5.5578    -1.3895 H       
  47 H47            0.8456    -5.8699    -0.5750 H       
  48 H48            0.4324    -3.4295    -0.4267 H       
  49 H49            0.6682    -3.9359    -2.1167 H       
  50 H50           -2.1251    -0.0603     0.1527 H       
  51 H51           -1.3664    -1.3658    -0.7898 H       
  52 H52           -1.3216    -1.4106     0.9890 H       
@<TRIPOS>BOND
   1    1    2 1
   2    1    6 2
   3    1   26 1
   4    2    3 2
   5    2   25 1
   6    3    4 1
   7    3   27 1
   8    4    5 1
   9    4    7 1
  10    5    6 1
  11    5    9 2
  12    6   28 1
  13    7    8 2
  14    7   11 1
  15    8    9 1
  16    8   10 1
  17   10   14 1
  18   10   20 1
  19   10   29 1
  20   11   12 1
  21   11   30 1
  22   12   21 1
  23   12   13 1
  24   12   31 1
  25   13   24 1
  26   13   32 1
  27   13   33 1
  28   14   15 ar
  29   14   16 ar
  30   15   19 ar
  31   15   34 1
  32   16   17 ar
  33   16   35 1
  34   17   18 ar
  35   17   36 1
  36   18   19 ar
  37   18   37 1
  38   19   38 1
  39   20   39 1
  40   20   40 1
  41   20   41 1
  42   21   22 1
  43   21   42 1
  44   21   43 1
  45   22   23 1
  46   22   44 1
  47   22   45 1
  48   23   24 1
  49   23   46 1
  50   23   47 1
  51   24   48 1
  52   24   49 1
  53   25   50 1
  54   25   51 1
  55   25   52 1

#	End of record

