#	Name: ASD04880218
#	Creating user name:	WinNT
#	Creation time:	15. 06. 2019 20:53

#	Modifying user name:	WinNT
#	Modification time:	15. 06. 2019 20:53

#	Program:	/corina/corina34_cracker 3.40 0067  02.08.2006

@<TRIPOS>MOLECULE
ASD04880218
  53   56    0    0    0
SMALL
NO_CHARGES


@<TRIPOS>ATOM
   1 C1            -0.0287     1.4064    -0.2031 C.ar    
   2 C2            -0.0052     0.0077    -0.1807 C.ar    
   3 C3             1.2168    -0.6723    -0.2227 C.ar    
   4 C4             2.3867     0.0290    -0.2851 C.ar    
   5 C5             2.3634     1.4281    -0.3074 C.ar    
   6 C6             1.1410     2.1081    -0.2659 C.ar    
   7 C7            -1.2668    -0.7488    -0.1125 C.2     
   8 N8            -2.4455    -0.2279    -0.0698 N.2     
   9 N9            -3.4781    -1.1615    -0.0085 N.am    
  10 C10           -2.8979    -2.5138    -0.0108 C.3     
  11 C11           -1.3800    -2.2564    -0.0883 C.3     
  12 C12           -4.7935    -0.8729     0.0449 C.2     
  13 C13           -5.2369     0.5291     0.1678 C.ar    
  14 O14           -5.6151    -1.7681    -0.0083 O.2     
  15 C15           -4.2996     1.5442     0.3736 C.ar    
  16 C16           -4.7154     2.8532     0.4888 C.ar    
  17 C17           -6.0647     3.1663     0.4002 C.ar    
  18 C18           -7.0057     2.1580     0.1949 C.ar    
  19 C19           -6.5953     0.8451     0.0729 C.ar    
  20 O20           -6.4694     4.4577     0.5143 O.3     
  21 C21           -5.4529     5.4399     0.7241 C.3     
  22 C22           -9.2354     1.3853    -0.1016 C.3     
  23 O23           -8.3271     2.4681     0.1095 O.3     
  24 C24            3.5903     2.1638    -0.3723 C.1     
  25 C25            4.5961     2.7669    -0.4256 C.1     
  26 C26            5.8229     3.5026    -0.4905 C.ar    
  27 C27            5.8035     4.9000    -0.5130 C.ar    
  28 C28            6.9891     5.6017    -0.5751 C.ar    
  29 C29            8.1960     4.9256    -0.6151 C.ar    
  30 C30            8.2231     3.5422    -0.5936 C.ar    
  31 C31            7.0459     2.8270    -0.5258 C.ar    
  32 H32           -0.9723     1.9311    -0.1752 H       
  33 H33            1.2348    -1.7520    -0.2055 H       
  34 H34            3.3300    -0.4960    -0.3168 H       
  35 H35            1.1228     3.1878    -0.2835 H       
  36 H36           -3.1547    -3.0428     0.9069 H       
  37 H37           -3.2332    -3.0735    -0.8840 H       
  38 H38           -0.9644    -2.6913    -0.9973 H       
  39 H39           -0.8788    -2.6576     0.7925 H       
  40 H40           -3.2491     1.3033     0.4429 H       
  41 H41           -3.9898     3.6369     0.6486 H       
  42 H42           -7.3230     0.0631    -0.0866 H       
  43 H43           -4.9182     5.2179     1.6476 H       
  44 H44           -4.7547     5.4247    -0.1127 H       
  45 H45           -5.9106     6.4265     0.7975 H       
  46 H46          -10.2541     1.7698    -0.1503 H       
  47 H47           -8.9912     0.8836    -1.0380 H       
  48 H48           -9.1535     0.6765     0.7224 H       
  49 H49            4.8624     5.4289    -0.4822 H       
  50 H50            6.9757     6.6814    -0.5929 H       
  51 H51            9.1213     5.4805    -0.6637 H       
  52 H52            9.1687     3.0214    -0.6254 H       
  53 H53            7.0686     1.7473    -0.5088 H       
@<TRIPOS>BOND
   1    1    2 ar
   2    1    6 ar
   3    1   32 1
   4    2    3 ar
   5    2    7 1
   6    3    4 ar
   7    3   33 1
   8    4    5 ar
   9    4   34 1
  10    5    6 ar
  11    5   24 1
  12    6   35 1
  13    7    8 2
  14    7   11 1
  15    8    9 1
  16    9   10 1
  17    9   12 am
  18   10   11 1
  19   10   36 1
  20   10   37 1
  21   11   38 1
  22   11   39 1
  23   12   13 1
  24   12   14 2
  25   13   15 ar
  26   13   19 ar
  27   15   16 ar
  28   15   40 1
  29   16   17 ar
  30   16   41 1
  31   17   18 ar
  32   17   20 1
  33   18   19 ar
  34   18   23 1
  35   19   42 1
  36   20   21 1
  37   21   43 1
  38   21   44 1
  39   21   45 1
  40   22   23 1
  41   22   46 1
  42   22   47 1
  43   22   48 1
  44   24   25 3
  45   25   26 1
  46   26   27 ar
  47   26   31 ar
  48   27   28 ar
  49   27   49 1
  50   28   29 ar
  51   28   50 1
  52   29   30 ar
  53   29   51 1
  54   30   31 ar
  55   30   52 1
  56   31   53 1

#	End of record

