#	Name: ASD01916554
#	Creating user name:	WinNT
#	Creation time:	15. 06. 2019 20:07

#	Modifying user name:	WinNT
#	Modification time:	15. 06. 2019 20:07

#	Program:	/corina/corina34_cracker 3.40 0067  02.08.2006

@<TRIPOS>MOLECULE
ASD01916554
  44   47    0    0    0
SMALL
NO_CHARGES


@<TRIPOS>ATOM
   1 C1            -0.0171     1.4103     0.0098 C.ar    
   2 C2             0.0021    -0.0041     0.0020 C.ar    
   3 C3            -1.1915    -0.7257     0.0414 C.ar    
   4 C4            -2.3838    -0.0644     0.0741 C.ar    
   5 C5            -2.4214     1.3385     0.0663 C.ar    
   6 C6            -1.2402     2.0766     0.0357 C.ar    
   7 N7             1.1599     2.0757     0.0021 N.2     
   8 C8             2.3197     1.4679    -0.0397 C.2     
   9 N9             2.4196     0.1197    -0.1575 N.am    
  10 C10            1.3098    -0.6626    -0.0625 C.2     
  11 C11           -3.6827     2.0161     0.0895 C.1     
  12 C12           -4.7168     2.5717     0.1085 C.1     
  13 C13           -5.9782     3.2493     0.1317 C.ar    
  14 C14           -6.0345     4.6447     0.1243 C.ar    
  15 N15           -7.1945     5.2684     0.1457 N.ar    
  16 C16           -8.3396     4.6103     0.1746 C.ar    
  17 C17           -8.3679     3.2234     0.1842 C.ar    
  18 C18           -7.1775     2.5225     0.1563 C.ar    
  19 O19            1.4010    -1.8762    -0.0315 O.2     
  20 C20            3.5359     2.3450     0.1020 C.3     
  21 C21            4.7921     1.6922    -0.4309 C.3     
  22 C22            4.8961     0.2357    -0.0272 C.3     
  23 C23            3.6790    -0.5620    -0.4370 C.3     
  24 C24            6.1343    -0.3746    -0.6871 C.3     
  25 C25            5.0552     0.1524     1.4922 C.3     
  26 F26           -9.5017     5.2989     0.1956 F       
  27 H27           -1.1712    -1.8055     0.0456 H       
  28 H28           -3.3065    -0.6248     0.1059 H       
  29 H29           -1.2725     3.1561     0.0317 H       
  30 H30           -5.1191     5.2174     0.1013 H       
  31 H31           -9.3106     2.6970     0.2083 H       
  32 H32           -7.1704     1.4425     0.1627 H       
  33 H33            3.3647     3.2744    -0.4413 H       
  34 H34            3.6807     2.5780     1.1569 H       
  35 H35            4.7909     1.7584    -1.5189 H       
  36 H36            5.6597     2.2285    -0.0466 H       
  37 H37            3.6879    -1.5124     0.0967 H       
  38 H38            3.7373    -0.7641    -1.5065 H       
  39 H39            7.0235     0.1631    -0.3583 H       
  40 H40            6.2179    -1.4235    -0.4024 H       
  41 H41            6.0434    -0.2983    -1.7706 H       
  42 H42            4.1894     0.6071     1.9736 H       
  43 H43            5.1309    -0.8926     1.7929 H       
  44 H44            5.9585     0.6833     1.7927 H       
@<TRIPOS>BOND
   1    1    2 ar
   2    1    7 1
   3    1    6 ar
   4    2    3 ar
   5    2   10 1
   6    3    4 ar
   7    3   27 1
   8    4    5 ar
   9    4   28 1
  10    5    6 ar
  11    5   11 1
  12    6   29 1
  13    7    8 2
  14    8    9 1
  15    8   20 1
  16    9   10 am
  17    9   23 1
  18   10   19 2
  19   11   12 3
  20   12   13 1
  21   13   14 ar
  22   13   18 ar
  23   14   15 ar
  24   14   30 1
  25   15   16 ar
  26   16   17 ar
  27   16   26 1
  28   17   18 ar
  29   17   31 1
  30   18   32 1
  31   20   21 1
  32   20   33 1
  33   20   34 1
  34   21   22 1
  35   21   35 1
  36   21   36 1
  37   22   23 1
  38   22   24 1
  39   22   25 1
  40   23   37 1
  41   23   38 1
  42   24   39 1
  43   24   40 1
  44   24   41 1
  45   25   42 1
  46   25   43 1
  47   25   44 1

#	End of record

