#	Name: ASD03930054
#	Creating user name:	WinNT
#	Creation time:	15. 06. 2019 20:47

#	Modifying user name:	WinNT
#	Modification time:	15. 06. 2019 20:47

#	Program:	/corina/corina34_cracker 3.40 0067  02.08.2006

@<TRIPOS>MOLECULE
ASD03930054
  26   28    0    0    0
SMALL
NO_CHARGES


@<TRIPOS>ATOM
   1 C1            -0.0166     1.3724     0.0096 C.ar    
   2 C2             0.0021    -0.0041     0.0020 C.ar    
   3 C3            -1.1749    -0.7411    -0.0018 C.ar    
   4 C4            -2.3861    -0.1126     0.0033 C.ar    
   5 C5            -2.4127     1.2982     0.0349 C.ar    
   6 C6            -1.2445     2.0438     0.0308 C.ar    
   7 C7            -3.6664    -0.8968    -0.0555 C.3     
   8 N8            -4.7791    -0.2307     0.6272 N.am    
   9 S9            -5.2009     1.3194     0.1604 S.o2    
  10 C10           -3.6191     2.1390     0.0998 C.2     
  11 S11           -1.6442     3.7555     0.0447 S.3     
  12 C12           -3.3675     3.4263     0.1001 C.2     
  13 O13           -5.6829     1.2389    -1.1739 O.2     
  14 O14           -5.9313     1.8965     1.2340 O.2     
  15 C15           -5.5097    -0.9107     1.6996 C.3     
  16 N16            1.2513     2.1359     0.0016 N.pl3   
  17 O17            2.3171     1.5465    -0.0118 O.2     
  18 O18            1.2289     3.3537     0.0083 O.2     
  19 H19            0.9504    -0.5208    -0.0014 H       
  20 H20           -1.1313    -1.8202    -0.0091 H       
  21 H21           -3.9367    -1.0490    -1.1004 H       
  22 H22           -3.5031    -1.8700     0.4074 H       
  23 H23           -4.1289     4.1916     0.1323 H       
  24 H24           -5.0357    -0.6933     2.6568 H       
  25 H25           -6.5411    -0.5586     1.7166 H       
  26 H26           -5.4959    -1.9863     1.5233 H       
@<TRIPOS>BOND
   1    1    2 ar
   2    1   16 1
   3    1    6 ar
   4    2    3 ar
   5    2   19 1
   6    3    4 ar
   7    3   20 1
   8    4    5 ar
   9    4    7 1
  10    5    6 ar
  11    5   10 1
  12    6   11 1
  13    7    8 1
  14    7   21 1
  15    7   22 1
  16    8    9 am
  17    8   15 1
  18    9   10 1
  19    9   13 2
  20    9   14 2
  21   10   12 2
  22   11   12 1
  23   12   23 1
  24   15   24 1
  25   15   25 1
  26   15   26 1
  27   16   17 2
  28   16   18 2

#	End of record

