#	Name: ASD01152245
#	Creating user name:	WinNT
#	Creation time:	15. 06. 2019 19:05

#	Modifying user name:	WinNT
#	Modification time:	15. 06. 2019 19:05

#	Program:	/corina/corina34_cracker 3.40 0067  02.08.2006

@<TRIPOS>MOLECULE
ASD01152245
  39   41    0    0    0
SMALL
NO_CHARGES


@<TRIPOS>ATOM
   1 C1            -2.1460     3.5703     1.7215 C.1     
   2 C2            -1.0735     3.1852     0.8544 C.ar    
   3 C3             0.1191     3.9096     0.8515 C.ar    
   4 C4             1.1529     3.5301     0.0095 C.ar    
   5 C5             0.9994     2.4312    -0.8283 C.ar    
   6 C6            -0.1818     1.7137    -0.8255 C.ar    
   7 C7            -1.2154     2.0798     0.0128 C.ar    
   8 N8            -2.9968     3.8759     2.4095 N.1     
   9 N9             3.5696     3.5708     0.0942 N.2     
  10 N10            2.3508     4.2535     0.0024 N.am    
  11 C11            2.3149     5.5942    -0.0929 C.2     
  12 N12            3.4477     6.3212    -0.1031 N.am    
  13 C13            4.6458     5.7068    -0.0168 C.2     
  14 C14            4.6919     4.2405     0.0877 C.2     
  15 O15            5.6744     6.3571    -0.0257 O.2     
  16 O16            1.2410     6.1595    -0.1717 O.2     
  17 O17            5.8825     3.5924     0.1766 O.3     
  18 C18            5.8396     2.1674     0.2754 C.3     
  19 C19            3.3796     7.7809    -0.2084 C.3     
  20 C20            3.3050     8.3812     1.1718 C.ar    
  21 C21            4.4660     8.7150     1.8439 C.ar    
  22 C22            4.3982     9.2656     3.1098 C.ar    
  23 C23            3.1679     9.4826     3.7044 C.ar    
  24 C24            2.0063     9.1484     3.0313 C.ar    
  25 C25            2.0753     8.6031     1.7632 C.ar    
  26 Cl26           3.0819    10.1736     5.2946 Cl      
  27 H27            0.2362     4.7631     1.5028 H       
  28 H28            1.8059     2.1375    -1.4838 H       
  29 H29           -0.2950     0.8610    -1.4786 H       
  30 H30           -2.1353     1.5140     0.0149 H       
  31 H31            6.8553     1.7770     0.3397 H       
  32 H32            5.2833     1.8817     1.1682 H       
  33 H33            5.3476     1.7567    -0.6062 H       
  34 H34            4.2698     8.1503    -0.7176 H       
  35 H35            2.4929     8.0632    -0.7759 H       
  36 H36            5.4263     8.5451     1.3797 H       
  37 H37            5.3053     9.5260     3.6348 H       
  38 H38            1.0457     9.3176     3.4950 H       
  39 H39            1.1684     8.3462     1.2359 H       
@<TRIPOS>BOND
   1    1    2 1
   2    1    8 3
   3    2    3 ar
   4    2    7 ar
   5    3    4 ar
   6    3   27 1
   7    4    5 ar
   8    4   10 1
   9    5    6 ar
  10    5   28 1
  11    6    7 ar
  12    6   29 1
  13    7   30 1
  14    9   10 1
  15    9   14 2
  16   10   11 am
  17   11   12 am
  18   11   16 2
  19   12   13 am
  20   12   19 1
  21   13   14 1
  22   13   15 2
  23   14   17 1
  24   17   18 1
  25   18   31 1
  26   18   32 1
  27   18   33 1
  28   19   20 1
  29   19   34 1
  30   19   35 1
  31   20   21 ar
  32   20   25 ar
  33   21   22 ar
  34   21   36 1
  35   22   23 ar
  36   22   37 1
  37   23   24 ar
  38   23   26 1
  39   24   25 ar
  40   24   38 1
  41   25   39 1

#	End of record

