#	Name: ASD01916297
#	Creating user name:	WinNT
#	Creation time:	15. 06. 2019 20:07

#	Modifying user name:	WinNT
#	Modification time:	15. 06. 2019 20:07

#	Program:	/corina/corina34_cracker 3.40 0067  02.08.2006

@<TRIPOS>MOLECULE
ASD01916297
  42   43    0    0    0
SMALL
NO_CHARGES


@<TRIPOS>ATOM
   1 C1            -0.0169     1.3974     0.0097 C.ar    
   2 C2             0.0021    -0.0041     0.0020 C.ar    
   3 C3             1.2365    -0.6676    -0.0133 C.ar    
   4 N4             2.3606     0.0097    -0.0204 N.ar    
   5 C5             2.3777     1.3384    -0.0135 C.ar    
   6 C6             1.1902     2.0701     0.0018 C.ar    
   7 C7            -1.2220    -0.7472     0.0102 C.1     
   8 C8            -2.2255    -1.3564     0.0169 C.1     
   9 C9            -3.4496    -2.0995     0.0250 C.ar    
  10 C10            3.6742     2.0515    -0.0220 C.2     
  11 O11            3.6994     3.2666    -0.0157 O.2     
  12 N12            4.8271     1.3536    -0.0368 N.am    
  13 C13            6.1107     2.0596    -0.0452 C.3     
  14 C14            7.1933     1.1566     0.5493 C.3     
  15 C15            6.4832     2.4233    -1.4839 C.3     
  16 C16            6.7619     0.6919     1.9416 C.3     
  17 O17            7.3818     0.0195    -0.2953 O.3     
  18 C18            8.5057     1.9360     0.6556 C.3     
  19 C19           -3.4419    -3.5013     0.0175 C.ar    
  20 C20           -4.6446    -4.1758     0.0263 C.ar    
  21 N21           -5.7896    -3.5202     0.0416 N.ar    
  22 C22           -5.8429    -2.2017     0.0492 C.ar    
  23 C23           -4.6895    -1.4460     0.0468 C.ar    
  24 H24           -0.9518     1.9381     0.0171 H       
  25 H25            1.2630    -1.7473    -0.0190 H       
  26 H26            1.2139     3.1498     0.0074 H       
  27 H27            4.8069     0.3838    -0.0418 H       
  28 H28            6.0290     2.9691     0.5499 H       
  29 H29            5.7119     3.0666    -1.9074 H       
  30 H30            7.4383     2.9486    -1.4902 H       
  31 H31            6.5649     1.5137    -2.0791 H       
  32 H32            5.8270     0.1367     1.8659 H       
  33 H33            7.5332     0.0486     2.3652 H       
  34 H34            6.6181     1.5593     2.5859 H       
  35 H35            7.6567     0.2396    -1.1959 H       
  36 H36            8.3619     2.8034     1.2999 H       
  37 H37            9.2770     1.2927     1.0791 H       
  38 H38            8.8130     2.2671    -0.3363 H       
  39 H39           -2.5086    -4.0446     0.0045 H       
  40 H40           -4.6494    -5.2558     0.0202 H       
  41 H41           -6.8032    -1.7077     0.0614 H       
  42 H42           -4.7407    -0.3672     0.0534 H       
@<TRIPOS>BOND
   1    1    2 ar
   2    1    6 ar
   3    1   24 1
   4    2    3 ar
   5    2    7 1
   6    3    4 ar
   7    3   25 1
   8    4    5 ar
   9    5    6 ar
  10    5   10 1
  11    6   26 1
  12    7    8 3
  13    8    9 1
  14    9   19 ar
  15    9   23 ar
  16   10   11 2
  17   10   12 am
  18   12   13 1
  19   12   27 1
  20   13   14 1
  21   13   15 1
  22   13   28 1
  23   14   16 1
  24   14   17 1
  25   14   18 1
  26   15   29 1
  27   15   30 1
  28   15   31 1
  29   16   32 1
  30   16   33 1
  31   16   34 1
  32   17   35 1
  33   18   36 1
  34   18   37 1
  35   18   38 1
  36   19   20 ar
  37   19   39 1
  38   20   21 ar
  39   20   40 1
  40   21   22 ar
  41   22   23 ar
  42   22   41 1
  43   23   42 1

#	End of record

