#	Name: ASD01510053
#	Creating user name:	WinNT
#	Creation time:	15. 06. 2019 19:21

#	Modifying user name:	WinNT
#	Modification time:	15. 06. 2019 19:21

#	Program:	/corina/corina34_cracker 3.40 0067  02.08.2006

@<TRIPOS>MOLECULE
ASD01510053
  44   46    0    0    0
SMALL
NO_CHARGES


@<TRIPOS>ATOM
   1 C1            -0.0173     1.4248     0.0099 C.3     
   2 O2             0.0021    -0.0041     0.0020 O.3     
   3 C3             0.6046    -0.6059    -1.0536 C.ar    
   4 N4             1.1457     0.1215    -2.0251 N.ar    
   5 C5             1.7358    -0.4582    -3.0592 C.ar    
   6 N6             1.8122    -1.7755    -3.1711 N.ar    
   7 C7             1.2945    -2.5695    -2.2398 C.ar    
   8 C8             0.6699    -1.9970    -1.1318 C.ar    
   9 S9            -0.0321    -3.0062     0.1305 S.3     
  10 C10            1.3595    -3.1728     1.1983 C.ar    
  11 N11            2.4993    -2.5802     0.8719 N.ar    
  12 C12            3.5671    -2.6828     1.6495 C.ar    
  13 C13            3.4860    -3.4186     2.8155 C.ar    
  14 C14            2.2718    -4.0320     3.1337 C.ar    
  15 N15            1.2390    -3.8833     2.3110 N.ar    
  16 N16            2.1449    -4.7800     4.2928 N.pl3   
  17 O17            1.3772    -3.9177    -2.3622 O.3     
  18 C18            2.0379    -4.4244    -3.5236 C.3     
  19 N19            2.2883     0.3358    -4.0522 N.3     
  20 C20            2.8931    -0.4865    -5.1078 C.3     
  21 C21            3.3617     0.4145    -6.2526 C.3     
  22 C22            4.3824     1.4226    -5.7172 C.3     
  23 C23            3.7428     2.2331    -4.5865 C.3     
  24 C24            3.2631     1.2793    -3.4900 C.3     
  25 H25            1.0053     1.8021     0.0021 H       
  26 H26           -0.5445     1.7859    -0.8732 H       
  27 H27           -0.5275     1.7763     0.9067 H       
  28 H28            4.4913    -2.1964     1.3743 H       
  29 H29            4.3421    -3.5179     3.4664 H       
  30 H30            2.9023    -4.8810     4.8903 H       
  31 H31            1.2985    -5.2029     4.5069 H       
  32 H32            3.0667    -4.0650    -3.5421 H       
  33 H33            2.0341    -5.5141    -3.4974 H       
  34 H34            1.5168    -4.0806    -4.4171 H       
  35 H35            3.7458    -1.0301    -4.7011 H       
  36 H36            2.1556    -1.1961    -5.4828 H       
  37 H37            3.8246    -0.1946    -7.0290 H       
  38 H38            2.5073     0.9481    -6.6690 H       
  39 H39            5.2542     0.8907    -5.3361 H       
  40 H40            4.6865     2.0943    -6.5200 H       
  41 H41            4.4779     2.9232    -4.1725 H       
  42 H42            2.8943     2.7952    -4.9766 H       
  43 H43            2.7943     1.8522    -2.6899 H       
  44 H44            4.1141     0.7275    -3.0908 H       
@<TRIPOS>BOND
   1    1    2 1
   2    1   25 1
   3    1   26 1
   4    1   27 1
   5    2    3 1
   6    3    4 ar
   7    3    8 ar
   8    4    5 ar
   9    5    6 ar
  10    5   19 1
  11    6    7 ar
  12    7    8 ar
  13    7   17 1
  14    8    9 1
  15    9   10 1
  16   10   11 ar
  17   10   15 ar
  18   11   12 ar
  19   12   13 ar
  20   12   28 1
  21   13   14 ar
  22   13   29 1
  23   14   15 ar
  24   14   16 1
  25   16   30 1
  26   16   31 1
  27   17   18 1
  28   18   32 1
  29   18   33 1
  30   18   34 1
  31   19   20 1
  32   19   24 1
  33   20   21 1
  34   20   35 1
  35   20   36 1
  36   21   22 1
  37   21   37 1
  38   21   38 1
  39   22   23 1
  40   22   39 1
  41   22   40 1
  42   23   24 1
  43   23   41 1
  44   23   42 1
  45   24   43 1
  46   24   44 1

#	End of record

