#	Name: ASD03330655
#	Creating user name:	WinNT
#	Creation time:	15. 06. 2019 20:37

#	Modifying user name:	WinNT
#	Modification time:	15. 06. 2019 20:37

#	Program:	/corina/corina34_cracker 3.40 0067  02.08.2006

@<TRIPOS>MOLECULE
ASD03330655
  65   68    0    0    0
SMALL
NO_CHARGES


@<TRIPOS>ATOM
   1 C1            -0.0586     2.0020     1.7836 C.2     
   2 N2            -0.1468     0.7107     2.1992 N.pl3   
   3 C3             1.2184     2.1975     1.3510 C.2     
   4 N4             1.8842     1.0308     1.4895 N.2     
   5 C5             1.0713     0.1300     1.9928 C.2     
   6 C6             1.4173    -1.2748     2.2868 C.ar    
   7 C7             1.7739     3.4572     0.8253 C.2     
   8 O8             1.0707     4.4465     0.7483 O.2     
   9 C9             3.6134     4.7651    -0.0926 C.3     
  10 N10            3.0611     3.5129     0.4300 N.am    
  11 C11            3.3027     4.8753    -1.5867 C.3     
  12 C12            1.7921     4.7645    -1.8030 C.3     
  13 C13            3.7955     6.2252    -2.1119 C.3     
  14 C14            4.0098     3.7463    -2.3392 C.3     
  15 C15            5.1063     4.7801     0.1124 C.2     
  16 N16            5.7925     5.9330    -0.0152 N.am    
  17 O17            5.6902     3.7546     0.3923 O.2     
  18 C18            7.2521     5.9344     0.1110 C.3     
  19 C19           -1.3392     0.0826     2.7746 C.3     
  20 C20           -2.5550     0.4243     1.9074 C.3     
  21 C21           -3.1650     1.7431     2.3713 C.3     
  22 N22           -2.1315     2.6595     2.8572 N.3     
  23 C23           -1.1810     3.0072     1.7905 C.3     
  24 C24           -2.7310     3.8664     3.4421 C.3     
  25 C25            2.1137    -2.0554     1.3306 C.ar    
  26 C26            2.4313    -3.3996     1.6417 C.ar    
  27 C27            2.0542    -3.9362     2.8835 C.ar    
  28 C28            1.3841    -3.1647     3.7856 C.ar    
  29 C29            1.0691    -1.8415     3.5026 C.ar    
  30 N30            2.4698    -1.5430     0.1516 N.ar    
  31 C31            3.1142    -2.2603    -0.7378 C.ar    
  32 C32            3.4580    -3.5882    -0.4970 C.ar    
  33 C33            3.1234    -4.1739     0.6909 C.ar    
  34 H34            3.1658     5.6076     0.4346 H       
  35 H35            3.6220     2.7238     0.4914 H       
  36 H36            1.2883     5.5688    -1.2669 H       
  37 H37            1.5708     4.8430    -2.8674 H       
  38 H38            1.4410     3.8028    -1.4288 H       
  39 H39            4.8397     6.3646    -1.8323 H       
  40 H40            3.7040     6.2479    -3.1978 H       
  41 H41            3.1938     7.0248    -1.6798 H       
  42 H42            3.6587     2.7846    -1.9651 H       
  43 H43            3.7885     3.8248    -3.4036 H       
  44 H44            5.0860     3.8252    -2.1851 H       
  45 H45            5.3201     6.7618    -0.1906 H       
  46 H46            7.5317     5.5696     1.0993 H       
  47 H47            7.6833     5.2855    -0.6513 H       
  48 H48            7.6272     6.9493    -0.0212 H       
  49 H49           -1.2040    -0.9986     2.8025 H       
  50 H50           -1.4963     0.4574     3.7860 H       
  51 H51           -2.2439     0.5150     0.8667 H       
  52 H52           -3.2972    -0.3691     1.9951 H       
  53 H53           -3.6908     2.2070     1.5368 H       
  54 H54           -3.8746     1.5459     3.1748 H       
  55 H55           -0.7772     4.0031     1.9725 H       
  56 H56           -1.6916     2.9900     0.8276 H       
  57 H57           -3.3705     3.5855     4.2789 H       
  58 H58           -1.9413     4.5298     3.7950 H       
  59 H59           -3.3258     4.3795     2.6864 H       
  60 H60            2.2950    -4.9612     3.1238 H       
  61 H61            1.0980    -3.5873     4.7374 H       
  62 H62            0.5375    -1.2510     4.2341 H       
  63 H63            3.3848    -1.8096    -1.6812 H       
  64 H64            3.9882    -4.1543    -1.2486 H       
  65 H65            3.3818    -5.2025     0.8947 H       
@<TRIPOS>BOND
   1    1    2 1
   2    1    3 2
   3    1   23 1
   4    2   19 1
   5    2    5 1
   6    3    4 1
   7    3    7 1
   8    4    5 2
   9    5    6 1
  10    6   25 ar
  11    6   29 ar
  12    7    8 2
  13    7   10 am
  14    9   10 1
  15    9   11 1
  16    9   15 1
  17    9   34 1
  18   10   35 1
  19   11   12 1
  20   11   13 1
  21   11   14 1
  22   12   36 1
  23   12   37 1
  24   12   38 1
  25   13   39 1
  26   13   40 1
  27   13   41 1
  28   14   42 1
  29   14   43 1
  30   14   44 1
  31   15   16 am
  32   15   17 2
  33   16   18 1
  34   16   45 1
  35   18   46 1
  36   18   47 1
  37   18   48 1
  38   19   20 1
  39   19   49 1
  40   19   50 1
  41   20   21 1
  42   20   51 1
  43   20   52 1
  44   21   22 1
  45   21   53 1
  46   21   54 1
  47   22   23 1
  48   22   24 1
  49   23   55 1
  50   23   56 1
  51   24   57 1
  52   24   58 1
  53   24   59 1
  54   25   26 ar
  55   25   30 ar
  56   26   27 ar
  57   26   33 ar
  58   27   28 ar
  59   27   60 1
  60   28   29 ar
  61   28   61 1
  62   29   62 1
  63   30   31 ar
  64   31   32 ar
  65   31   63 1
  66   32   33 ar
  67   32   64 1
  68   33   65 1

#	End of record

