#	Name: ASD01230566
#	Creating user name:	WinNT
#	Creation time:	15. 06. 2019 19:14

#	Modifying user name:	WinNT
#	Modification time:	15. 06. 2019 19:14

#	Program:	/corina/corina34_cracker 3.40 0067  02.08.2006

@<TRIPOS>MOLECULE
ASD01230566
  43   46    0    0    0
SMALL
NO_CHARGES


@<TRIPOS>ATOM
   1 S1             0.0783     1.7755     1.3180 S.o2    
   2 N2            -0.1051     0.2591     0.6819 N.am    
   3 C3             0.6430    -0.1830    -0.2996 C.2     
   4 N4             1.6413     0.5181    -0.9140 N.pl3   
   5 C5             1.9774     1.9092    -0.5996 C.3     
   6 C6             1.8030     2.1801     0.8975 C.3     
   7 C7             0.3602    -1.5598    -0.7583 C.2     
   8 C8             1.1329    -2.1052    -1.7604 C.2     
   9 C9             2.1640    -1.3366    -2.3178 C.2     
  10 C10            2.3921    -0.0815    -1.8944 C.2     
  11 C11           -0.7388    -2.3425    -0.1485 C.ar    
  12 C12           -0.4537    -3.4971     0.5813 C.ar    
  13 C13           -1.4797    -4.2235     1.1477 C.ar    
  14 C14           -2.7954    -3.8075     0.9921 C.ar    
  15 C15           -3.0829    -2.6593     0.2661 C.ar    
  16 C16           -2.0616    -1.9242    -0.2975 C.ar    
  17 O17           -3.8040    -4.5262     1.5513 O.3     
  18 C18           -4.5070    -6.8161    -1.1870 C.ar    
  19 C19           -3.8883    -5.8217    -0.4573 C.ar    
  20 C20           -4.3848    -5.4981     0.8030 C.ar    
  21 C21           -5.4926    -6.1980     1.2762 C.ar    
  22 C22           -6.0540    -7.1790     0.4854 C.ar    
  23 N23           -5.5548    -7.4567    -0.7044 N.ar    
  24 C24           -3.9830    -7.1711    -2.5547 C.3     
  25 F25           -3.0178    -8.1770    -2.4377 F       
  26 F26           -5.0369    -7.6267    -3.3541 F       
  27 F27           -3.4079    -6.0390    -3.1420 F       
  28 O28           -0.8246     2.5854     0.5777 O.2     
  29 O29           -0.0703     1.5957     2.7197 O.2     
  30 H30            3.0126     2.1014    -0.8815 H       
  31 H31            1.3227     2.5735    -1.1637 H       
  32 H32            2.0006     3.2307     1.1104 H       
  33 H33            2.4828     1.5497     1.4708 H       
  34 H34            0.9472    -3.1098    -2.1107 H       
  35 H35            2.7826    -1.7578    -3.0965 H       
  36 H36            3.1991     0.4780    -2.3438 H       
  37 H37            0.5693    -3.8216     0.7021 H       
  38 H38           -1.2598    -5.1172     1.7127 H       
  39 H39           -4.1074    -2.3389     0.1468 H       
  40 H40           -2.2856    -1.0286    -0.8580 H       
  41 H41           -3.0309    -5.3015    -0.8580 H       
  42 H42           -5.9060    -5.9757     2.2488 H       
  43 H43           -6.9129    -7.7266     0.8443 H       
@<TRIPOS>BOND
   1    1    2 am
   2    1    6 1
   3    1   28 2
   4    1   29 2
   5    2    3 2
   6    3    4 1
   7    3    7 1
   8    4    5 1
   9    4   10 1
  10    5    6 1
  11    5   30 1
  12    5   31 1
  13    6   32 1
  14    6   33 1
  15    7    8 2
  16    7   11 1
  17    8    9 1
  18    8   34 1
  19    9   10 2
  20    9   35 1
  21   10   36 1
  22   11   12 ar
  23   11   16 ar
  24   12   13 ar
  25   12   37 1
  26   13   14 ar
  27   13   38 1
  28   14   15 ar
  29   14   17 1
  30   15   16 ar
  31   15   39 1
  32   16   40 1
  33   17   20 1
  34   18   19 ar
  35   18   23 ar
  36   18   24 1
  37   19   20 ar
  38   19   41 1
  39   20   21 ar
  40   21   22 ar
  41   21   42 1
  42   22   23 ar
  43   22   43 1
  44   24   25 1
  45   24   26 1
  46   24   27 1

#	End of record

