#	Name: ASD03090632
#	Creating user name:	WinNT
#	Creation time:	15. 06. 2019 20:29

#	Modifying user name:	WinNT
#	Modification time:	15. 06. 2019 20:29

#	Program:	/corina/corina34_cracker 3.40 0067  02.08.2006

@<TRIPOS>MOLECULE
ASD03090632
  37   38    0    0    0
SMALL
NO_CHARGES


@<TRIPOS>ATOM
   1 N1            -0.0162     1.3436     0.0094 N.am    
   2 C2             0.0193     0.1476     0.6299 C.2     
   3 O3             1.0727    -0.2854     1.0557 O.2     
   4 N4            -1.1129    -0.5683     0.7785 N.am    
   5 S5            -2.4214    -2.8290     1.6856 S.3     
   6 C6            -1.0764    -1.8023     1.4187 C.2     
   7 N7            -0.0165    -2.3678     1.9128 N.2     
   8 N8            -0.1565    -3.4951     2.4636 N.2     
   9 C9            -1.3550    -3.9854     2.4838 C.2     
  10 C10           -1.7649    -5.3065     3.0818 C.3     
  11 C11            1.1454     2.1273    -0.0707 C.ar    
  12 C12            1.0455     3.5109    -0.1992 C.ar    
  13 C13            2.1934     4.2814    -0.2775 C.ar    
  14 C14            3.4398     3.6746    -0.2279 C.ar    
  15 C15            3.5374     2.2972    -0.1000 C.ar    
  16 C16            2.3934     1.5259    -0.0163 C.ar    
  17 C17            4.8929     1.6408    -0.0464 C.3     
  18 O18            4.5670     4.4311    -0.3053 O.3     
  19 C19            4.3928     5.8434    -0.4365 C.3     
  20 O20           -0.1773     4.1037    -0.2481 O.3     
  21 C21           -0.2037     5.5263    -0.3806 C.3     
  22 H22           -0.8435     1.6608    -0.3853 H       
  23 H23           -1.9533    -0.2228     0.4388 H       
  24 H24           -1.6900    -6.0870     2.3246 H       
  25 H25           -1.1075    -5.5467     3.9174 H       
  26 H26           -2.7937    -5.2414     3.4360 H       
  27 H27            2.1183     5.3541    -0.3776 H       
  28 H28            2.4717     0.4538     0.0878 H       
  29 H29            5.2254     1.5780     0.9898 H       
  30 H30            4.8279     0.6380    -0.4685 H       
  31 H31            5.6057     2.2317    -0.6215 H       
  32 H32            3.8436     6.2233     0.4250 H       
  33 H33            5.3685     6.3266    -0.4874 H       
  34 H34            3.8334     6.0574    -1.3472 H       
  35 H35            0.2987     5.8146    -1.3040 H       
  36 H36           -1.2379     5.8696    -0.4072 H       
  37 H37            0.3080     5.9799     0.4682 H       
@<TRIPOS>BOND
   1    1    2 am
   2    1   11 1
   3    1   22 1
   4    2    3 2
   5    2    4 am
   6    4    6 1
   7    4   23 1
   8    5    6 1
   9    5    9 1
  10    6    7 2
  11    7    8 1
  12    8    9 2
  13    9   10 1
  14   10   24 1
  15   10   25 1
  16   10   26 1
  17   11   12 ar
  18   11   16 ar
  19   12   13 ar
  20   12   20 1
  21   13   14 ar
  22   13   27 1
  23   14   15 ar
  24   14   18 1
  25   15   16 ar
  26   15   17 1
  27   16   28 1
  28   17   29 1
  29   17   30 1
  30   17   31 1
  31   18   19 1
  32   19   32 1
  33   19   33 1
  34   19   34 1
  35   20   21 1
  36   21   35 1
  37   21   36 1
  38   21   37 1

#	End of record

