#	Name: ASD01530001
#	Creating user name:	WinNT
#	Creation time:	15. 06. 2019 19:21

#	Modifying user name:	WinNT
#	Modification time:	15. 06. 2019 19:21

#	Program:	/corina/corina34_cracker 3.40 0067  02.08.2006

@<TRIPOS>MOLECULE
ASD01530001
  45   47    0    0    0
SMALL
NO_CHARGES


@<TRIPOS>ATOM
   1 C1            -0.0169     1.3923     0.0097 C.ar    
   2 C2             0.0021    -0.0041     0.0020 C.ar    
   3 C3             1.2244    -0.6800    -0.0133 C.ar    
   4 C4             2.4014     0.0345    -0.0207 C.ar    
   5 C5             2.3756     1.4218    -0.0130 C.ar    
   6 C6             1.1700     2.0961     0.0021 C.ar    
   7 C7            -1.2264    -0.7399     0.0103 C.1     
   8 N8            -2.2009    -1.3236     0.0168 N.1     
   9 C9             3.8525    -0.3868    -0.0376 C.3     
  10 O10            4.5957     0.7711    -0.4602 O.3     
  11 C11            3.8106     1.8961    -0.0248 C.3     
  12 C12            3.9700     3.0443    -0.9878 C.ar    
  13 C13            4.2362     2.3234     1.3813 C.3     
  14 C14            5.6647     2.8698     1.3378 C.3     
  15 C15            6.0903     3.2971     2.7439 C.3     
  16 N16            7.4618     3.8217     2.7022 N.3     
  17 C17            7.5259     5.0662     1.9243 C.3     
  18 C18            7.9909     4.0205     4.0581 C.3     
  19 C19            4.2348     2.7953    -2.3217 C.ar    
  20 C20            4.3808     3.8474    -3.2058 C.ar    
  21 C21            4.2617     5.1512    -2.7552 C.ar    
  22 C22            3.9965     5.3993    -1.4191 C.ar    
  23 C23            3.8457     4.3455    -0.5378 C.ar    
  24 F24            4.4046     6.1805    -3.6185 F       
  25 H25           -0.9589     1.9205     0.0170 H       
  26 H26            1.2462    -1.7597    -0.0189 H       
  27 H27            1.1564     3.1760     0.0077 H       
  28 H28            4.1669    -0.6911     0.9607 H       
  29 H29            3.9980    -1.2046    -0.7434 H       
  30 H30            3.5617     3.0984     1.7453 H       
  31 H31            4.1963     1.4635     2.0500 H       
  32 H32            6.3392     2.0948     0.9738 H       
  33 H33            5.7046     3.7296     0.6691 H       
  34 H34            5.4157     4.0721     3.1079 H       
  35 H35            6.0504     2.4372     3.4127 H       
  36 H36            6.8792     5.8146     2.3823 H       
  37 H37            8.5523     5.4329     1.9096 H       
  38 H38            7.1939     4.8744     0.9040 H       
  39 H39            7.9968     3.0685     4.5890 H       
  40 H40            9.0073     4.4094     3.9981 H       
  41 H41            7.3610     4.7311     4.5933 H       
  42 H42            4.3280     1.7783    -2.6728 H       
  43 H43            4.5880     3.6527    -4.2477 H       
  44 H44            3.9034     6.4159    -1.0665 H       
  45 H45            3.6388     4.5388     0.5044 H       
@<TRIPOS>BOND
   1    1    2 ar
   2    1    6 ar
   3    1   25 1
   4    2    3 ar
   5    2    7 1
   6    3    4 ar
   7    3   26 1
   8    4    5 ar
   9    4    9 1
  10    5    6 ar
  11    5   11 1
  12    6   27 1
  13    7    8 3
  14    9   10 1
  15    9   28 1
  16    9   29 1
  17   10   11 1
  18   11   12 1
  19   11   13 1
  20   12   19 ar
  21   12   23 ar
  22   13   14 1
  23   13   30 1
  24   13   31 1
  25   14   15 1
  26   14   32 1
  27   14   33 1
  28   15   16 1
  29   15   34 1
  30   15   35 1
  31   16   17 1
  32   16   18 1
  33   17   36 1
  34   17   37 1
  35   17   38 1
  36   18   39 1
  37   18   40 1
  38   18   41 1
  39   19   20 ar
  40   19   42 1
  41   20   21 ar
  42   20   43 1
  43   21   22 ar
  44   21   24 1
  45   22   23 ar
  46   22   44 1
  47   23   45 1

#	End of record

