#	Name: ASD00170505
#	Creating user name:	WinNT
#	Creation time:	15. 06. 2019 18:32

#	Modifying user name:	WinNT
#	Modification time:	15. 06. 2019 18:32

#	Program:	/corina/corina34_cracker 3.40 0067  02.08.2006

@<TRIPOS>MOLECULE
ASD00170505
  51   53    0    0    0
SMALL
NO_CHARGES


@<TRIPOS>ATOM
   1 C1            -0.1090     1.6055     0.0854 C.3     
   2 C2            -0.0969     0.0990     0.0477 C.ar    
   3 C3             1.0194    -0.5919     0.4846 C.ar    
   4 C4             1.0371    -1.9709     0.4528 C.ar    
   5 C5            -0.0750    -2.6693    -0.0212 C.ar    
   6 C6            -1.1982    -1.9660    -0.4600 C.ar    
   7 C7            -1.2044    -0.5871    -0.4183 C.ar    
   8 C8            -0.0630    -4.1466    -0.0586 C.2     
   9 S9            -0.4810    -5.1115    -1.4630 S.3     
  10 C10           -0.2027    -6.5758    -0.6370 C.2     
  11 N11           -0.3537    -7.8282    -1.1921 N.pl3   
  12 C12            0.1940    -6.3380     0.6609 C.2     
  13 C13            0.5075    -7.3990     1.6192 C.2     
  14 O14           -0.3873    -7.9381     2.2449 O.2     
  15 C15            1.9107    -7.8161     1.8276 C.ar    
  16 C16            2.9480    -7.1253     1.1982 C.ar    
  17 C17            4.2546    -7.5190     1.3963 C.ar    
  18 C18            4.5389    -8.5974     2.2178 C.ar    
  19 Cl19           6.1864    -9.0868     2.4628 Cl      
  20 C20            3.5140    -9.2866     2.8449 C.ar    
  21 C21            2.2039    -8.8987     2.6590 C.ar    
  22 C22            0.2739    -4.9309     0.9728 C.2     
  23 C23            0.6895    -4.3999     2.3206 C.3     
  24 C24           -0.5489    -4.2145     3.1997 C.3     
  25 C25           -1.2840    -5.5497     3.3332 C.3     
  26 C26           -0.1221    -3.7266     4.5856 C.3     
  27 C27           -1.4789    -3.1820     2.5595 C.3     
  28 H28           -0.4961     1.9418     1.0473 H       
  29 H29            0.9056     1.9804    -0.0490 H       
  30 H30           -0.7452     1.9839    -0.7147 H       
  31 H31            1.8790    -0.0504     0.8510 H       
  32 H32            1.9093    -2.5090     0.7934 H       
  33 H33           -2.0618    -2.5002    -0.8278 H       
  34 H34           -2.0743    -0.0418    -0.7537 H       
  35 H35           -0.7077    -7.9211    -2.0904 H       
  36 H36           -0.1059    -8.6168    -0.6845 H       
  37 H37            2.7274    -6.2846     0.5571 H       
  38 H38            5.0578    -6.9857     0.9097 H       
  39 H39            3.7418   -10.1267     3.4843 H       
  40 H40            1.4059    -9.4338     3.1523 H       
  41 H41            1.3698    -5.1068     2.7956 H       
  42 H42            1.1921    -3.4410     2.1941 H       
  43 H43           -0.6215    -6.2853     3.7893 H       
  44 H44           -2.1663    -5.4176     3.9595 H       
  45 H45           -1.5881    -5.8973     2.3459 H       
  46 H46            0.4017    -2.7754     4.4905 H       
  47 H47           -1.0043    -3.5945     5.2119 H       
  48 H48            0.5405    -4.4622     5.0417 H       
  49 H49           -1.8682    -3.5762     1.6209 H       
  50 H50           -2.3070    -2.9702     3.2359 H       
  51 H51           -0.9241    -2.2640     2.3658 H       
@<TRIPOS>BOND
   1    1    2 1
   2    1   28 1
   3    1   29 1
   4    1   30 1
   5    2    7 ar
   6    2    3 ar
   7    3    4 ar
   8    3   31 1
   9    4    5 ar
  10    4   32 1
  11    5    6 ar
  12    5    8 1
  13    6    7 ar
  14    6   33 1
  15    7   34 1
  16    8   22 2
  17    8    9 1
  18    9   10 1
  19   10   11 1
  20   10   12 2
  21   11   35 1
  22   11   36 1
  23   12   13 1
  24   12   22 1
  25   13   14 2
  26   13   15 1
  27   15   21 ar
  28   15   16 ar
  29   16   17 ar
  30   16   37 1
  31   17   18 ar
  32   17   38 1
  33   18   19 1
  34   18   20 ar
  35   20   21 ar
  36   20   39 1
  37   21   40 1
  38   22   23 1
  39   23   24 1
  40   23   41 1
  41   23   42 1
  42   24   25 1
  43   24   26 1
  44   24   27 1
  45   25   43 1
  46   25   44 1
  47   25   45 1
  48   26   46 1
  49   26   47 1
  50   26   48 1
  51   27   49 1
  52   27   50 1
  53   27   51 1

#	End of record

