#	Name: ASD03750005
#	Creating user name:	WinNT
#	Creation time:	15. 06. 2019 20:47

#	Modifying user name:	WinNT
#	Modification time:	15. 06. 2019 20:47

#	Program:	/corina/corina34_cracker 3.40 0067  02.08.2006

@<TRIPOS>MOLECULE
ASD03750005
  83   84    0    0    0
SMALL
NO_CHARGES


@<TRIPOS>ATOM
   1 O1            -1.1082     1.9535     2.6616 O.3     
   2 C2            -0.7611     0.5890     2.9058 C.3     
   3 C3            -1.8534    -0.3235     2.3445 C.3     
   4 C4            -1.9006    -0.1866     0.8445 C.2     
   5 C5            -2.6171     0.7629     0.2957 C.2     
   6 C6            -3.6751     1.4705     1.1026 C.3     
   7 C7            -5.0362     0.8243     0.8365 C.3     
   8 C8            -4.8704    -0.3192    -0.1664 C.3     
   9 O9            -5.3053    -1.5427     0.4301 O.3     
  10 C10           -4.7226    -2.7115    -0.1501 C.3     
  11 C11           -5.7119    -0.0315    -1.4115 C.3     
  12 C12           -4.8103    -0.0321    -2.6475 C.3     
  13 O13           -3.9151     1.0799    -2.5845 O.3     
  14 C14           -5.6711     0.0772    -3.9077 C.3     
  15 C15           -5.4911    -1.1811    -4.7592 C.3     
  16 C16           -7.1419     0.2181    -3.5102 C.3     
  17 C17           -5.2405     1.3045    -4.7137 C.3     
  18 O18           -6.3590     1.8115    -5.4444 O.3     
  19 O19           -4.7575     2.3123    -3.8229 O.3     
  20 C20           -4.3534     3.5182    -4.4747 C.3     
  21 C21           -3.8940     4.5347    -3.4278 C.3     
  22 C22           -4.9548     4.6501    -2.3311 C.3     
  23 C23           -4.2799     4.5892    -0.9596 C.3     
  24 C24           -4.2105     3.1569    -0.4956 C.2     
  25 O25           -4.5960     2.2679    -1.2173 O.2     
  26 O26           -3.7195     2.8702     0.7204 O.3     
  27 O27           -5.8847     3.5719    -2.4526 O.3     
  28 C28           -7.2042     3.8890    -2.0047 C.3     
  29 C29           -3.2013     3.2166    -5.4353 C.3     
  30 C30           -3.6445     2.1516    -6.4408 C.3     
  31 C31           -4.1295     0.9107    -5.6887 C.3     
  32 O32           -3.0401     0.3380    -4.9628 O.3     
  33 O33           -4.7078     2.6679    -7.2438 O.3     
  34 C34           -4.2700     3.3294    -8.4324 C.3     
  35 C35           -2.3833     1.1477    -1.1425 C.3     
  36 C36           -1.5448    -1.7757     2.7146 C.3     
  37 O37           -1.5719    -1.9211     4.1359 O.3     
  38 H38           -0.4589     2.5896     2.9915 H       
  39 H39            0.1873     0.3625     2.4187 H       
  40 H40           -0.6665     0.4247     3.9792 H       
  41 H41           -2.8173    -0.0381     2.7660 H       
  42 H42           -1.3437    -0.8712     0.2220 H       
  43 H43           -3.4366     1.3912     2.1632 H       
  44 H44           -5.4414     0.4333     1.7697 H       
  45 H45           -5.7186     1.5697     0.4281 H       
  46 H46           -3.8212    -0.4055    -0.4490 H       
  47 H47           -5.1249    -3.5989     0.3387 H       
  48 H48           -4.9575    -2.7447    -1.2139 H       
  49 H49           -3.6411    -2.6824    -0.0175 H       
  50 H50           -6.4764    -0.8010    -1.5191 H       
  51 H51           -6.1891     0.9432    -1.3103 H       
  52 H52           -4.2371    -0.9586    -2.6786 H       
  53 H53           -3.1034     0.9610    -3.0965 H       
  54 H54           -5.7974    -2.0554    -4.1847 H       
  55 H55           -6.1044    -1.1032    -5.6569 H       
  56 H56           -4.4434    -1.2813    -5.0425 H       
  57 H57           -7.2701     1.1147    -2.9038 H       
  58 H58           -7.7550     0.2960    -4.4080 H       
  59 H59           -7.4483    -0.6560    -2.9356 H       
  60 H60           -6.1584     2.5917    -5.9792 H       
  61 H61           -5.1948     3.9272    -5.0342 H       
  62 H62           -2.9523     4.2044    -2.9893 H       
  63 H63           -3.7537     5.5063    -3.9014 H       
  64 H64           -5.4825     5.5982    -2.4345 H       
  65 H65           -3.2715     4.9965    -1.0327 H       
  66 H66           -4.8572     5.1751    -0.2444 H       
  67 H67           -7.8492     3.0193    -2.1299 H       
  68 H68           -7.1729     4.1697    -0.9519 H       
  69 H69           -7.5968     4.7200    -2.5907 H       
  70 H70           -2.9241     4.1265    -5.9678 H       
  71 H71           -2.3439     2.8497    -4.8710 H       
  72 H72           -2.8035     1.8833    -7.0802 H       
  73 H73           -4.5139     0.1813    -6.4017 H       
  74 H74           -2.2982     0.0630    -5.5188 H       
  75 H75           -3.6308     4.1710    -8.1654 H       
  76 H76           -3.7094     2.6297    -9.0522 H       
  77 H77           -5.1359     3.6922    -8.9862 H       
  78 H78           -2.5535     0.2819    -1.7825 H       
  79 H79           -3.0707     1.9463    -1.4213 H       
  80 H80           -1.3567     1.4931    -1.2639 H       
  81 H81           -2.2925    -2.4312     2.2680 H       
  82 H82           -0.5567    -2.0438     2.3407 H       
  83 H83           -1.3844    -2.8186     4.4431 H       
@<TRIPOS>BOND
   1    1    2 1
   2    1   38 1
   3    2    3 1
   4    2   39 1
   5    2   40 1
   6    3    4 1
   7    3   36 1
   8    3   41 1
   9    4    5 2
  10    4   42 1
  11    5   35 1
  12    5    6 1
  13    6    7 1
  14    6   26 1
  15    6   43 1
  16    7    8 1
  17    7   44 1
  18    7   45 1
  19    8    9 1
  20    8   11 1
  21    8   46 1
  22    9   10 1
  23   10   47 1
  24   10   48 1
  25   10   49 1
  26   11   12 1
  27   11   50 1
  28   11   51 1
  29   12   13 1
  30   12   14 1
  31   12   52 1
  32   13   53 1
  33   14   15 1
  34   14   16 1
  35   14   17 1
  36   15   54 1
  37   15   55 1
  38   15   56 1
  39   16   57 1
  40   16   58 1
  41   16   59 1
  42   17   18 1
  43   17   19 1
  44   17   31 1
  45   18   60 1
  46   19   20 1
  47   20   21 1
  48   20   29 1
  49   20   61 1
  50   21   22 1
  51   21   62 1
  52   21   63 1
  53   22   23 1
  54   22   27 1
  55   22   64 1
  56   23   24 1
  57   23   65 1
  58   23   66 1
  59   24   25 2
  60   24   26 1
  61   27   28 1
  62   28   67 1
  63   28   68 1
  64   28   69 1
  65   29   30 1
  66   29   70 1
  67   29   71 1
  68   30   31 1
  69   30   33 1
  70   30   72 1
  71   31   32 1
  72   31   73 1
  73   32   74 1
  74   33   34 1
  75   34   75 1
  76   34   76 1
  77   34   77 1
  78   35   78 1
  79   35   79 1
  80   35   80 1
  81   36   37 1
  82   36   81 1
  83   36   82 1
  84   37   83 1

#	End of record

