#	Name: ASD01880244
#	Creating user name:	WinNT
#	Creation time:	15. 06. 2019 19:40

#	Modifying user name:	WinNT
#	Modification time:	15. 06. 2019 19:40

#	Program:	/corina/corina34_cracker 3.40 0067  02.08.2006

@<TRIPOS>MOLECULE
ASD01880244
  36   38    0    0    0
SMALL
NO_CHARGES


@<TRIPOS>ATOM
   1 C1            -0.0184     1.5028     0.0103 C.3     
   2 C2             0.0021    -0.0041     0.0020 C.ar    
   3 C3             0.0230    -0.7108     1.1959 C.ar    
   4 C4             0.0409    -2.0940     1.1448 C.ar    
   5 C5             0.0372    -2.7256    -0.0970 C.ar    
   6 N6             0.0169    -2.0127    -1.2160 N.ar    
   7 C7            -0.0057    -0.6956    -1.1954 C.ar    
   8 N8             1.3560     2.0099    -0.0001 N.am    
   9 C9             2.1471     2.3124    -1.2027 C.3     
  10 C10            3.4948     2.8051    -0.6411 C.3     
  11 O11            3.3236     2.7294     0.8038 O.3     
  12 C12            2.0955     2.2792     1.0845 C.2     
  13 C13            3.7612     4.2480    -1.0747 C.3     
  14 O14            1.6905     2.1211     2.2191 O.2     
  15 C15            0.0567    -4.2069    -0.1688 C.ar    
  16 C16            0.0532    -4.8467    -1.4073 C.ar    
  17 C17            0.0713    -6.2255    -1.4693 C.ar    
  18 C18            0.0929    -6.9735    -0.3015 C.ar    
  19 C19            0.0965    -6.3410     0.9307 C.ar    
  20 C20            0.0843    -4.9629     1.0015 C.ar    
  21 Cl21           0.0664    -7.0243    -3.0106 Cl      
  22 F22            0.1102    -8.3228    -0.3660 F       
  23 H23           -0.5455     1.8639    -0.8728 H       
  24 H24           -0.5286     1.8543     0.9071 H       
  25 H25            0.0257    -0.1933     2.1438 H       
  26 H26            0.0577    -2.6754     2.0548 H       
  27 H27           -0.0217    -0.1485    -2.1264 H       
  28 H28            2.2883     1.4143    -1.8041 H       
  29 H29            1.6675     3.0958    -1.7895 H       
  30 H30            4.3053     2.1520    -0.9646 H       
  31 H31            2.9654     4.8924    -0.7013 H       
  32 H32            4.7172     4.5787    -0.6688 H       
  33 H33            3.7909     4.3007    -2.1631 H       
  34 H34            0.0360    -4.2645    -2.3168 H       
  35 H35            0.1134    -6.9272     1.8376 H       
  36 H36            0.0870    -4.4709     1.9630 H       
@<TRIPOS>BOND
   1    1    2 1
   2    1    8 1
   3    1   23 1
   4    1   24 1
   5    2    3 ar
   6    2    7 ar
   7    3    4 ar
   8    3   25 1
   9    4    5 ar
  10    4   26 1
  11    5    6 ar
  12    5   15 1
  13    6    7 ar
  14    7   27 1
  15    8    9 1
  16    8   12 am
  17    9   10 1
  18    9   28 1
  19    9   29 1
  20   10   11 1
  21   10   13 1
  22   10   30 1
  23   11   12 1
  24   12   14 2
  25   13   31 1
  26   13   32 1
  27   13   33 1
  28   15   16 ar
  29   15   20 ar
  30   16   17 ar
  31   16   34 1
  32   17   18 ar
  33   17   21 1
  34   18   19 ar
  35   18   22 1
  36   19   20 ar
  37   19   35 1
  38   20   36 1

#	End of record

