#	Name: ASD00461040
#	Creating user name:	WinNT
#	Creation time:	15. 06. 2019 18:36

#	Modifying user name:	WinNT
#	Modification time:	15. 06. 2019 18:36

#	Program:	/corina/corina34_cracker 3.40 0067  02.08.2006

@<TRIPOS>MOLECULE
ASD00461040
  66   69    0    0    0
SMALL
NO_CHARGES


@<TRIPOS>ATOM
   1 C1             0.1994    -1.8788     2.1055 C.ar    
   2 C2             0.7981    -2.7635     1.2067 C.ar    
   3 C3             1.9448    -2.3734     0.5117 C.ar    
   4 C4             2.4782    -1.1182     0.7171 C.ar    
   5 C5             1.8797    -0.2462     1.6096 C.ar    
   6 C6             0.7435    -0.6262     2.3014 C.ar    
   7 C7             3.7159    -0.6955    -0.0316 C.3     
   8 O8             4.5733     0.0410     0.8428 O.3     
   9 C9             5.5038    -0.7698     1.5631 C.3     
  10 C10            6.4400     0.1274     2.3754 C.3     
  11 C11            7.3541    -0.7412     3.2419 C.3     
  12 N12            8.1695     0.1196     4.1091 N.3     
  13 C13            9.0616    -0.6818     4.9575 C.3     
  14 C14            3.3185     0.1856    -1.2176 C.3     
  15 C15            4.4436     0.7412    -2.0930 C.3     
  16 C16            3.5437    -0.3771    -2.6224 C.3     
  17 O17            7.2342     0.9157     1.4866 O.3     
  18 C18            9.8927     0.2475     5.8444 C.3     
  19 C19            8.2269    -1.6146     5.8372 C.3     
  20 C20            9.9945    -1.5129     4.0744 C.3     
  21 C21           10.8080    -0.5747     6.7148 C.ar    
  22 C22           12.0826    -0.8997     6.2555 C.ar    
  23 C23           12.9339    -1.6410     7.0163 C.ar    
  24 C24           12.5243    -2.0864     8.2844 C.ar    
  25 C25           11.2277    -1.7553     8.7518 C.ar    
  26 C26           10.3790    -0.9840     7.9401 C.ar    
  27 C27           13.3748    -2.8541     9.0983 C.ar    
  28 C28           12.9437    -3.2683    10.3208 C.ar    
  29 C29           11.6688    -2.9427    10.7805 C.ar    
  30 C30           10.8179    -2.2011    10.0201 C.ar    
  31 C31            0.2214    -4.1066     0.9921 C.2     
  32 O32           -0.8845    -4.4800     1.6644 O.3     
  33 O33            0.7445    -4.8742     0.2093 O.2     
  34 H34           -0.6901    -2.1726     2.6429 H       
  35 H35            2.4131    -3.0531    -0.1848 H       
  36 H36            2.3017     0.7354     1.7670 H       
  37 H37            0.2814     0.0592     2.9965 H       
  38 H38            4.2402    -1.5793    -0.3951 H       
  39 H39            4.9620    -1.4338     2.2366 H       
  40 H40            6.0886    -1.3633     0.8604 H       
  41 H41            5.8498     0.7840     3.0146 H       
  42 H42            6.7476    -1.4062     3.8567 H       
  43 H43            8.0069    -1.3337     2.6008 H       
  44 H44            8.6928     0.7891     3.5651 H       
  45 H45            2.4435     0.8166    -1.0621 H       
  46 H46            4.3085     1.7376    -2.5138 H       
  47 H47            5.4668     0.4791    -1.8241 H       
  48 H48            3.9748    -1.3751    -2.7017 H       
  49 H49            2.8165    -0.1165    -3.3914 H       
  50 H50            7.7865     0.3959     0.8867 H       
  51 H51           10.4874     0.9121     5.2177 H       
  52 H52            9.2281     0.8396     6.4736 H       
  53 H53            7.6348    -2.2766     5.2054 H       
  54 H54            8.8889    -2.2093     6.4667 H       
  55 H55            7.5623    -1.0225     6.4664 H       
  56 H56           10.5892    -0.8483     3.4477 H       
  57 H57           10.6565    -2.1076     4.7039 H       
  58 H58            9.4025    -2.1749     3.4425 H       
  59 H59           12.4000    -0.5586     5.2811 H       
  60 H60           13.9188    -1.8859     6.6470 H       
  61 H61            9.3885    -0.7241     8.2832 H       
  62 H62           14.3653    -3.1144     8.7551 H       
  63 H63           13.5992    -3.8584    10.9441 H       
  64 H64           11.3514    -3.2840    11.7547 H       
  65 H65            9.8331    -1.9562    10.3896 H       
  66 H66           -1.2249    -5.3683     1.4907 H       
@<TRIPOS>BOND
   1    1    2 ar
   2    1    6 ar
   3    1   34 1
   4    2    3 ar
   5    2   31 1
   6    3    4 ar
   7    3   35 1
   8    4    5 ar
   9    4    7 1
  10    5    6 ar
  11    5   36 1
  12    6   37 1
  13    7    8 1
  14    7   14 1
  15    7   38 1
  16    8    9 1
  17    9   10 1
  18    9   39 1
  19    9   40 1
  20   10   11 1
  21   10   17 1
  22   10   41 1
  23   11   12 1
  24   11   42 1
  25   11   43 1
  26   12   13 1
  27   12   44 1
  28   13   18 1
  29   13   19 1
  30   13   20 1
  31   14   15 1
  32   14   16 1
  33   14   45 1
  34   15   16 1
  35   15   46 1
  36   15   47 1
  37   16   48 1
  38   16   49 1
  39   17   50 1
  40   18   21 1
  41   18   51 1
  42   18   52 1
  43   19   53 1
  44   19   54 1
  45   19   55 1
  46   20   56 1
  47   20   57 1
  48   20   58 1
  49   21   22 ar
  50   21   26 ar
  51   22   23 ar
  52   22   59 1
  53   23   24 ar
  54   23   60 1
  55   24   25 ar
  56   24   27 ar
  57   25   26 ar
  58   25   30 ar
  59   26   61 1
  60   27   28 ar
  61   27   62 1
  62   28   29 ar
  63   28   63 1
  64   29   30 ar
  65   29   64 1
  66   30   65 1
  67   31   32 1
  68   31   33 2
  69   32   66 1

#	End of record

