#	Name: ASD01814739
#	Creating user name:	WinNT
#	Creation time:	15. 06. 2019 19:32

#	Modifying user name:	WinNT
#	Modification time:	15. 06. 2019 19:32

#	Program:	/corina/corina34_cracker 3.40 0067  02.08.2006

@<TRIPOS>MOLECULE
ASD01814739
  60   64    0    0    0
SMALL
NO_CHARGES


@<TRIPOS>ATOM
   1 N1            -0.6782     1.2844     1.1939 N.am    
   2 C2            -0.5091    -0.1606     0.9887 C.3     
   3 C3             0.5797    -0.6694     1.9387 C.3     
   4 C4             1.8562     0.1487     1.7300 C.3     
   5 C5             1.5806     1.6187     2.0543 C.3     
   6 C6             0.5032     2.1535     1.1057 C.3     
   7 C7             2.9399    -0.3714     2.6389 C.2     
   8 O8             2.6482    -1.0224     3.6197 O.2     
   9 N9             4.2333    -0.1130     2.3618 N.am    
  10 S10           -2.1730     1.9223     1.5118 S.o2    
  11 O11           -2.1198     3.2860     1.1159 O.2     
  12 O12           -3.1214     0.9992     0.9943 O.2     
  13 N13           -2.7558     2.1567     7.3528 N.pl3   
  14 N14           -2.2154     3.4282     7.5709 N.2     
  15 C15           -1.8467     3.9576     6.4395 C.2     
  16 C16           -2.1483     3.0003     5.3802 C.ar    
  17 C17           -1.9840     3.0035     3.9904 C.ar    
  18 C18           -2.3798     1.9198     3.2616 C.ar    
  19 C19           -2.9448     0.8144     3.8862 C.ar    
  20 C20           -3.1163     0.7881     5.2411 C.ar    
  21 C21           -2.7215     1.8795     6.0112 C.ar    
  22 C22            5.2808    -0.5345     3.2952 C.3     
  23 C23            5.4902     0.5523     4.3515 C.3     
  24 C24            4.5918     0.5894     1.1271 C.3     
  25 C25            5.5596    -0.2683     0.2846 C.3     
  26 C26            6.4716     0.7973    -0.3595 C.3     
  27 C27            6.4393     1.9739     0.5922 C.ar    
  28 C28            7.2879     3.0629     0.7022 C.ar    
  29 C29            7.0581     4.0290     1.6619 C.ar    
  30 C30            5.9778     3.9095     2.5163 C.ar    
  31 C31            5.1305     2.8243     2.4083 C.ar    
  32 C32            5.3592     1.8545     1.4464 C.ar    
  33 H33           -1.4478    -0.6722     1.2014 H       
  34 H34           -0.2123    -0.3509    -0.0427 H       
  35 H35            0.2427    -0.5612     2.9696 H       
  36 H36            0.7826    -1.7198     1.7301 H       
  37 H37            2.1788     0.0600     0.6927 H       
  38 H38            1.2342     1.7054     3.0841 H       
  39 H39            2.4960     2.1969     1.9280 H       
  40 H40            0.8825     2.1519     0.0838 H       
  41 H41            0.2324     3.1688     1.3955 H       
  42 H42           -3.0965     1.5643     8.0413 H       
  43 H43           -1.3984     4.9314     6.3085 H       
  44 H44           -1.5469     3.8592     3.4973 H       
  45 H45           -3.2524    -0.0341     3.2931 H       
  46 H46           -3.5573    -0.0769     5.7141 H       
  47 H47            4.9812    -1.4622     3.7828 H       
  48 H48            6.2107    -0.6948     2.7495 H       
  49 H49            5.9033     1.4434     3.8790 H       
  50 H50            4.5347     0.7969     4.8155 H       
  51 H51            6.1817     0.1908     5.1126 H       
  52 H52            3.6966     0.8252     0.5517 H       
  53 H53            6.1370    -0.9391     0.9209 H       
  54 H54            5.0179    -0.8272    -0.4785 H       
  55 H55            7.4884     0.4166    -0.4559 H       
  56 H56            6.0820     1.0890    -1.3348 H       
  57 H57            8.1323     3.1568     0.0353 H       
  58 H58            7.7220     4.8768     1.7453 H       
  59 H59            5.7968     4.6639     3.2677 H       
  60 H60            4.2867     2.7317     3.0760 H       
@<TRIPOS>BOND
   1    1    2 1
   2    1    6 1
   3    1   10 am
   4    2    3 1
   5    2   33 1
   6    2   34 1
   7    3    4 1
   8    3   35 1
   9    3   36 1
  10    4    5 1
  11    4    7 1
  12    4   37 1
  13    5    6 1
  14    5   38 1
  15    5   39 1
  16    6   40 1
  17    6   41 1
  18    7    8 2
  19    7    9 am
  20    9   22 1
  21    9   24 1
  22   10   11 2
  23   10   12 2
  24   10   18 1
  25   13   14 1
  26   13   21 1
  27   13   42 1
  28   14   15 2
  29   15   16 1
  30   15   43 1
  31   16   17 ar
  32   16   21 ar
  33   17   18 ar
  34   17   44 1
  35   18   19 ar
  36   19   20 ar
  37   19   45 1
  38   20   21 ar
  39   20   46 1
  40   22   23 1
  41   22   47 1
  42   22   48 1
  43   23   49 1
  44   23   50 1
  45   23   51 1
  46   24   25 1
  47   24   32 1
  48   24   52 1
  49   25   26 1
  50   25   53 1
  51   25   54 1
  52   26   27 1
  53   26   55 1
  54   26   56 1
  55   27   28 ar
  56   27   32 ar
  57   28   29 ar
  58   28   57 1
  59   29   30 ar
  60   29   58 1
  61   30   31 ar
  62   30   59 1
  63   31   32 ar
  64   31   60 1

#	End of record

