#	Name: ASD01917633
#	Creating user name:	WinNT
#	Creation time:	15. 06. 2019 20:09

#	Modifying user name:	WinNT
#	Modification time:	15. 06. 2019 20:09

#	Program:	/corina/corina34_cracker 3.40 0067  02.08.2006

@<TRIPOS>MOLECULE
ASD01917633
  64   68    0    0    0
SMALL
NO_CHARGES


@<TRIPOS>ATOM
   1 C1            -0.0166     1.3751     0.0096 C.ar    
   2 C2             0.0021    -0.0041     0.0020 C.ar    
   3 C3             1.2192    -0.6830    -0.0133 C.ar    
   4 C4             2.4140     0.0345    -0.0209 C.ar    
   5 C5             2.3888     1.4136    -0.0133 C.ar    
   6 C6             1.1750     2.0869     0.0020 C.ar    
   7 C7             1.2428    -2.1665    -0.0210 C.2     
   8 N8             0.1657    -2.9776    -0.0150 N.2     
   9 C9             2.3535    -2.9486    -0.0412 C.2     
  10 N10            1.9202    -4.2476    -0.0413 N.pl3   
  11 C11            0.5620    -4.2199    -0.0250 C.2     
  12 C12            2.7288    -5.3944    -0.0589 C.ar    
  13 C13            3.7470    -5.5117    -0.9952 C.ar    
  14 C14            4.5423    -6.6403    -1.0122 C.ar    
  15 C15            4.3240    -7.6569    -0.0938 C.ar    
  16 C16            3.3065    -7.5402     0.8421 C.ar    
  17 C17            2.5144    -6.4094     0.8635 C.ar    
  18 C18           -0.3394    -5.4276    -0.0186 C.3     
  19 C19           -0.6229    -5.8352     1.4043 C.2     
  20 N20           -1.4125    -6.8980     1.6562 N.am    
  21 O21           -0.1405    -5.2069     2.3227 O.2     
  22 C22           -1.7020    -7.3129     3.0372 C.3     
  23 C23           -2.0125    -7.6699     0.5574 C.3     
  24 C24           -3.5173    -7.7979     0.8174 C.3     
  25 N25           -3.7334    -8.3560     2.1590 N.3     
  26 C26           -3.2196    -7.4556     3.1946 C.3     
  27 C27           -5.0721    -8.6377     2.3692 C.ar    
  28 N28           -5.4505    -9.1495     3.5312 N.ar    
  29 N29           -5.9454    -8.3841     1.4057 N.ar    
  30 C30           -7.2320    -8.6411     1.5744 C.ar    
  31 C31           -7.6615    -9.1818     2.7762 C.ar    
  32 C32           -6.7220    -9.4298     3.7646 C.ar    
  33 O33            5.1070    -8.7681    -0.1112 O.3     
  34 O34            1.1534     3.4458     0.0096 O.3     
  35 C35           -0.1300     4.0741     0.0253 C.3     
  36 C36            4.8261    -9.7751     0.8631 C.3     
  37 H37           -0.9595     1.9018     0.0169 H       
  38 H38           -0.9254    -0.5573     0.0083 H       
  39 H39            3.3587    -0.4888    -0.0324 H       
  40 H40            3.3143     1.9701    -0.0188 H       
  41 H41            3.3794    -2.6112    -0.0547 H       
  42 H42            3.9168    -4.7205    -1.7104 H       
  43 H43            5.3343    -6.7318    -1.7408 H       
  44 H44            3.1369    -8.3318     1.5568 H       
  45 H45            1.7223    -6.3186     1.5921 H       
  46 H46           -1.2760    -5.1845    -0.5204 H       
  47 H47            0.1503    -6.2492    -0.5412 H       
  48 H48           -1.2212    -8.2697     3.2405 H       
  49 H49           -1.3313    -6.5588     3.7314 H       
  50 H50           -1.8469    -7.1518    -0.3872 H       
  51 H51           -1.5621    -8.6617     0.5181 H       
  52 H52           -3.9824    -6.8142     0.7534 H       
  53 H53           -3.9601    -8.4593     0.0727 H       
  54 H54           -3.4418    -7.8687     4.1785 H       
  55 H55           -3.6926    -6.4787     3.0945 H       
  56 H56           -7.9392    -8.4318     0.7855 H       
  57 H57           -8.7062    -9.4009     2.9405 H       
  58 H58           -7.0239    -9.8506     4.7123 H       
  59 H59           -0.6736     3.7676     0.9189 H       
  60 H60           -0.0044     5.1568     0.0299 H       
  61 H61           -0.6908     3.7771    -0.8610 H       
  62 H62            5.5219   -10.6049     0.7390 H       
  63 H63            4.9367    -9.3545     1.8625 H       
  64 H64            3.8054   -10.1339     0.7308 H       
@<TRIPOS>BOND
   1    1    2 ar
   2    1    6 ar
   3    1   37 1
   4    2    3 ar
   5    2   38 1
   6    3    4 ar
   7    3    7 1
   8    4    5 ar
   9    4   39 1
  10    5    6 ar
  11    5   40 1
  12    6   34 1
  13    7    8 1
  14    7    9 2
  15    8   11 2
  16    9   10 1
  17    9   41 1
  18   10   11 1
  19   10   12 1
  20   11   18 1
  21   12   13 ar
  22   12   17 ar
  23   13   14 ar
  24   13   42 1
  25   14   15 ar
  26   14   43 1
  27   15   16 ar
  28   15   33 1
  29   16   17 ar
  30   16   44 1
  31   17   45 1
  32   18   19 1
  33   18   46 1
  34   18   47 1
  35   19   20 am
  36   19   21 2
  37   20   22 1
  38   20   23 1
  39   22   26 1
  40   22   48 1
  41   22   49 1
  42   23   24 1
  43   23   50 1
  44   23   51 1
  45   24   25 1
  46   24   52 1
  47   24   53 1
  48   25   26 1
  49   25   27 1
  50   26   54 1
  51   26   55 1
  52   27   28 ar
  53   27   29 ar
  54   28   32 ar
  55   29   30 ar
  56   30   31 ar
  57   30   56 1
  58   31   32 ar
  59   31   57 1
  60   32   58 1
  61   33   36 1
  62   34   35 1
  63   35   59 1
  64   35   60 1
  65   35   61 1
  66   36   62 1
  67   36   63 1
  68   36   64 1

#	End of record

