#	Name: ASD03910140
#	Creating user name:	WinNT
#	Creation time:	15. 06. 2019 20:47

#	Modifying user name:	WinNT
#	Modification time:	15. 06. 2019 20:47

#	Program:	/corina/corina34_cracker 3.40 0067  02.08.2006

@<TRIPOS>MOLECULE
ASD03910140
  46   48    0    0    0
SMALL
NO_CHARGES


@<TRIPOS>ATOM
   1 C1             1.0701     1.2025    -0.6749 C.3     
   2 C2            -0.7737     3.5122    -2.8303 C.ar    
   3 C3            -1.8722     5.4724    -3.9255 C.2     
   4 C4            -0.3620     7.7268    -0.6144 C.3     
   5 C5            -0.6375     9.1971    -0.7972 C.ar    
   6 C6            -1.1301     9.6745    -1.9985 C.ar    
   7 C7            -1.3693    11.0364    -2.1227 C.ar    
   8 C8            -1.1110    11.8713    -1.0515 C.ar    
   9 C9             0.1224     9.6016     1.5353 C.2     
  10 C10            1.2902     8.9175     1.7246 C.2     
  11 C11            1.4088     8.6426     3.0866 C.2     
  12 N12           -0.4636     9.7498     2.7574 N.pl3   
  13 C13           -1.7354    10.4240     3.0298 C.3     
  14 C14           -2.6678     9.4703     3.7796 C.3     
  15 C15           -1.4810    11.6664     3.8857 C.3     
  16 O16            0.2786     1.6731    -1.7677 O.3     
  17 C17           -0.0094     2.9997    -1.7939 C.ar    
  18 C18           -1.0641     4.8822    -2.8462 C.ar    
  19 C19           -0.5614     5.6778    -1.8003 C.ar    
  20 O20           -0.8128     7.0109    -1.7661 O.3     
  21 N21           -0.6414    11.3919     0.0824 N.ar    
  22 C22           -0.4048    10.0954     0.2447 C.ar    
  23 N23            0.3646     9.1340     3.7045 N.2     
  24 C24            0.1955     5.0775    -0.8047 C.ar    
  25 N25            0.4436     3.7838    -0.8305 N.ar    
  26 H26            1.2260     0.1284    -0.7752 H       
  27 H27            2.0340     1.7115    -0.6788 H       
  28 H28            0.5541     1.4088     0.2628 H       
  29 H29           -1.1361     2.8658    -3.6159 H       
  30 H30           -2.2506     4.8471    -4.7206 H       
  31 H31            0.7092     7.5710    -0.4861 H       
  32 H32           -0.8900     7.3651     0.2679 H       
  33 H33           -1.3239     9.0027    -2.8216 H       
  34 H34           -1.7535    11.4400    -3.0478 H       
  35 H35           -1.2962    12.9311    -1.1456 H       
  36 H36            1.9957     8.6387     0.9558 H       
  37 H37            2.2256     8.1123     3.5537 H       
  38 H38           -2.1987    10.7198     2.0886 H       
  39 H39           -2.2452     9.2440     4.7585 H       
  40 H40           -3.6435     9.9397     3.9047 H       
  41 H41           -2.7788     8.5478     3.2097 H       
  42 H42           -0.8167    12.3458     3.3516 H       
  43 H43           -2.4272    12.1680     4.0884 H       
  44 H44           -1.0177    11.3705     4.8270 H       
  45 H45            0.5863     5.6788     0.0029 H       
  46 O46           -2.1130     6.6608    -3.9221 O.2     
@<TRIPOS>BOND
   1    1   26 1
   2    1   27 1
   3    1   28 1
   4    1   16 1
   5    2   18 ar
   6    2   17 ar
   7    2   29 1
   8    3   18 1
   9    3   30 1
  10    3   46 2
  11    4   31 1
  12    4   32 1
  13    4    5 1
  14    4   20 1
  15    5    6 ar
  16    5   22 ar
  17    6   33 1
  18    6    7 ar
  19    7   34 1
  20    7    8 ar
  21    8   35 1
  22    8   21 ar
  23    9   10 2
  24    9   22 1
  25    9   12 1
  26   10   36 1
  27   10   11 1
  28   11   37 1
  29   11   23 2
  30   12   13 1
  31   12   23 1
  32   13   14 1
  33   13   38 1
  34   13   15 1
  35   14   39 1
  36   14   40 1
  37   14   41 1
  38   15   42 1
  39   15   43 1
  40   15   44 1
  41   16   17 1
  42   17   25 ar
  43   18   19 ar
  44   19   20 1
  45   19   24 ar
  46   21   22 ar
  47   24   45 1
  48   24   25 ar

#	End of record

