#	Name: ASD01148778
#	Creating user name:	WinNT
#	Creation time:	15. 06. 2019 19:03

#	Modifying user name:	WinNT
#	Modification time:	15. 06. 2019 19:03

#	Program:	/corina/corina34_cracker 3.40 0067  02.08.2006

@<TRIPOS>MOLECULE
ASD01148778
  61   64    0    0    0
SMALL
NO_CHARGES


@<TRIPOS>ATOM
   1 N1             0.0433     1.3919    -0.2311 N.pl3   
   2 C2            -0.0126     0.0400    -0.1852 C.2     
   3 C3             1.2406    -0.4490     0.1114 C.2     
   4 C4             2.1184     0.7245     0.2540 C.2     
   5 C5             1.3184     1.8277     0.0306 C.2     
   6 C6             1.6248    -1.8604     0.2566 C.2     
   7 O7             2.0100    -2.4881    -0.7106 O.2     
   8 O8             1.5500    -2.4587     1.4623 O.3     
   9 C9            -1.0452     2.2278    -0.5119 C.ar    
  10 C10           -2.1003     2.3214     0.3860 C.ar    
  11 C11           -3.1721     3.1464     0.1063 C.ar    
  12 C12           -3.1951     3.8787    -1.0665 C.ar    
  13 C13           -2.1459     3.7876    -1.9626 C.ar    
  14 C14           -1.0686     2.9688    -1.6859 C.ar    
  15 S15           -4.5646     4.9296    -1.4200 S.o2    
  16 O16           -4.5923     5.0915    -2.8315 O.2     
  17 O17           -5.6626     4.4224    -0.6742 O.2     
  18 N18           -4.2162     6.4189    -0.7853 N.am    
  19 C19           -1.2456    -0.7942    -0.4197 C.3     
  20 C20            3.5641     0.7222     0.5719 C.ar    
  21 C21            4.4809     0.1963    -0.3389 C.ar    
  22 C22            5.8271     0.1975    -0.0368 C.ar    
  23 C23            6.2686     0.7188     1.1664 C.ar    
  24 C24            5.3645     1.2417     2.0738 C.ar    
  25 C25            4.0162     1.2512     1.7812 C.ar    
  26 C26            7.7404     0.7164     1.4901 C.3     
  27 O27            8.3334     1.9286     1.0200 O.3     
  28 C28            1.7595     3.2363     0.0666 C.ar    
  29 C29            1.0971     4.1580     0.8804 C.ar    
  30 C30            1.5141     5.4723     0.9094 C.ar    
  31 C31            2.5871     5.8787     0.1340 C.ar    
  32 C32            3.2481     4.9697    -0.6751 C.ar    
  33 C33            2.8446     3.6513    -0.7087 C.ar    
  34 Cl34           3.1054     7.5350     0.1758 Cl      
  35 C35            1.9453    -3.8542     1.5313 C.3     
  36 C36            1.7942    -4.3565     2.9686 C.3     
  37 H37           -2.0830     1.7494     1.3019 H       
  38 H38           -3.9932     3.2193     0.8040 H       
  39 H39           -2.1670     4.3605    -2.8779 H       
  40 H40           -0.2473     2.9017    -2.3840 H       
  41 H41           -4.5737     7.2190    -1.2011 H       
  42 H42           -3.6547     6.4912     0.0024 H       
  43 H43           -1.3229    -1.0384    -1.4791 H       
  44 H44           -1.1778    -1.7140     0.1612 H       
  45 H45           -2.1278    -0.2335    -0.1107 H       
  46 H46            4.1374    -0.2112    -1.2782 H       
  47 H47            6.5377    -0.2096    -0.7408 H       
  48 H48            5.7153     1.6472     3.0113 H       
  49 H49            3.3119     1.6637     2.4884 H       
  50 H50            7.8749     0.6407     2.5691 H       
  51 H51            8.2180    -0.1341     1.0038 H       
  52 H52            9.2821     1.9959     1.1947 H       
  53 H53            0.2600     3.8423     1.4853 H       
  54 H54            1.0025     6.1861     1.5380 H       
  55 H55            4.0840     5.2929    -1.2778 H       
  56 H56            3.3637     2.9423    -1.3367 H       
  57 H57            1.3100    -4.4449     0.8713 H       
  58 H58            2.9850    -3.9532     1.2192 H       
  59 H59            2.4295    -3.7658     3.6286 H       
  60 H60            0.7545    -4.2575     3.2807 H       
  61 H61            2.0910    -5.4041     3.0204 H       
@<TRIPOS>BOND
   1    1    2 1
   2    1    5 1
   3    1    9 1
   4    2    3 2
   5    2   19 1
   6    3    4 1
   7    3    6 1
   8    4    5 2
   9    4   20 1
  10    5   28 1
  11    6    7 2
  12    6    8 1
  13    8   35 1
  14    9   10 ar
  15    9   14 ar
  16   10   11 ar
  17   10   37 1
  18   11   12 ar
  19   11   38 1
  20   12   13 ar
  21   12   15 1
  22   13   14 ar
  23   13   39 1
  24   14   40 1
  25   15   16 2
  26   15   17 2
  27   15   18 am
  28   18   41 1
  29   18   42 1
  30   19   43 1
  31   19   44 1
  32   19   45 1
  33   20   21 ar
  34   20   25 ar
  35   21   22 ar
  36   21   46 1
  37   22   23 ar
  38   22   47 1
  39   23   24 ar
  40   23   26 1
  41   24   25 ar
  42   24   48 1
  43   25   49 1
  44   26   27 1
  45   26   50 1
  46   26   51 1
  47   27   52 1
  48   28   29 ar
  49   28   33 ar
  50   29   30 ar
  51   29   53 1
  52   30   31 ar
  53   30   54 1
  54   31   32 ar
  55   31   34 1
  56   32   33 ar
  57   32   55 1
  58   33   56 1
  59   35   36 1
  60   35   57 1
  61   35   58 1
  62   36   59 1
  63   36   60 1
  64   36   61 1

#	End of record

