#	Name: ASD01152248
#	Creating user name:	WinNT
#	Creation time:	15. 06. 2019 19:05

#	Modifying user name:	WinNT
#	Modification time:	15. 06. 2019 19:05

#	Program:	/corina/corina34_cracker 3.40 0067  02.08.2006

@<TRIPOS>MOLECULE
ASD01152248
  38   40    0    0    0
SMALL
NO_CHARGES


@<TRIPOS>ATOM
   1 N1            -0.0169     1.3957     0.0097 N.2     
   2 N2             0.0021    -0.0041     0.0020 N.am    
   3 C3             1.1654    -0.6786    -0.0127 C.2     
   4 N4             2.3442    -0.0284    -0.0200 N.am    
   5 C5             2.3716     1.3205    -0.0130 C.2     
   6 C6             1.1059     2.0608     0.0026 C.2     
   7 O7             1.1524    -1.8944    -0.0191 O.2     
   8 O8             3.4335     1.9153    -0.0192 O.2     
   9 C9            -1.2058    -0.7110     0.0102 C.ar    
  10 C10           -2.1450    -0.4728     1.0057 C.ar    
  11 C11           -3.3357    -1.1720     1.0109 C.ar    
  12 C12           -3.5935    -2.1090     0.0268 C.ar    
  13 C13           -2.6606    -2.3488    -0.9652 C.ar    
  14 C14           -1.4704    -1.6481    -0.9800 C.ar    
  15 C15           -1.8645     0.5473     2.0789 C.3     
  16 O16           -2.9731     0.6093     2.9786 O.3     
  17 C17            3.5980    -0.7860    -0.0351 C.3     
  18 C18            4.0152    -1.0386    -1.4610 C.ar    
  19 C19            4.8257    -0.1296    -2.1152 C.ar    
  20 C20            5.2086    -0.3608    -3.4229 C.ar    
  21 C21            4.7806    -1.5021    -4.0773 C.ar    
  22 C22            3.9695    -2.4115    -3.4221 C.ar    
  23 C23            3.5918    -2.1820    -2.1125 C.ar    
  24 Cl24           5.2607    -1.7929    -5.7201 Cl      
  25 Br25           1.1008     3.9517     0.0121 Br      
  26 H26           -4.0663    -0.9873     1.7845 H       
  27 H27           -4.5255    -2.6548     0.0333 H       
  28 H28           -2.8647    -3.0816    -1.7318 H       
  29 H29           -0.7443    -1.8321    -1.7581 H       
  30 H30           -0.9672     0.2604     2.6273 H       
  31 H31           -1.7134     1.5246     1.6207 H       
  32 H32           -2.8615     1.2470     3.6969 H       
  33 H33            4.3739    -0.2147     0.4747 H       
  34 H34            3.4533    -1.7382     0.4753 H       
  35 H35            5.1594     0.7615    -1.6044 H       
  36 H36            5.8415     0.3496    -3.9340 H       
  37 H37            3.6351    -3.3026    -3.9324 H       
  38 H38            2.9623    -2.8940    -1.5995 H       
@<TRIPOS>BOND
   1    1    2 1
   2    1    6 2
   3    2    3 am
   4    2    9 1
   5    3    4 am
   6    3    7 2
   7    4    5 am
   8    4   17 1
   9    5    6 1
  10    5    8 2
  11    6   25 1
  12    9   10 ar
  13    9   14 ar
  14   10   11 ar
  15   10   15 1
  16   11   12 ar
  17   11   26 1
  18   12   13 ar
  19   12   27 1
  20   13   14 ar
  21   13   28 1
  22   14   29 1
  23   15   16 1
  24   15   30 1
  25   15   31 1
  26   16   32 1
  27   17   18 1
  28   17   33 1
  29   17   34 1
  30   18   19 ar
  31   18   23 ar
  32   19   20 ar
  33   19   35 1
  34   20   21 ar
  35   20   36 1
  36   21   22 ar
  37   21   24 1
  38   22   23 ar
  39   22   37 1
  40   23   38 1

#	End of record

