#	Name: ASD01915813
#	Creating user name:	WinNT
#	Creation time:	15. 06. 2019 20:06

#	Modifying user name:	WinNT
#	Modification time:	15. 06. 2019 20:06

#	Program:	/corina/corina34_cracker 3.40 0067  02.08.2006

@<TRIPOS>MOLECULE
ASD01915813
  47   50    0    0    0
SMALL
NO_CHARGES


@<TRIPOS>ATOM
   1 C1            -0.0086     1.4173     0.0998 C.2     
   2 N2             0.0285     0.0456    -0.0148 N.pl3   
   3 C3            -1.2049    -0.7398    -0.1430 C.3     
   4 C4            -2.3389    -0.0222     0.5872 C.3     
   5 N5            -2.4043     1.3988     0.2637 N.am    
   6 C6            -1.2833     2.1497     0.1397 C.2     
   7 C7             1.2863     1.8478     0.1722 C.2     
   8 C8             2.0605     0.6814     0.1072 C.2     
   9 N9             1.2440    -0.3411     0.0027 N.2     
  10 C10            3.5654     0.6131     0.1491 C.3     
  11 O11            4.0990     1.9335     0.2668 O.3     
  12 C12            5.4498     2.0496     0.3180 C.ar    
  13 O13           -1.3287     3.3629     0.0656 O.2     
  14 C14            6.0284     3.3074     0.4322 C.ar    
  15 N15            6.2030     0.9639     0.2640 N.ar    
  16 C16            7.5201     1.0319     0.3106 C.ar    
  17 C17            8.1624     2.2490     0.4188 C.ar    
  18 C18            7.4072     3.4121     0.4834 C.ar    
  19 C19           -3.6491     1.9980     0.0776 C.ar    
  20 N20           -4.2772     2.5386     1.1106 N.ar    
  21 C21           -4.2163     2.0271    -1.1921 C.ar    
  22 C22           -5.4550     2.6256    -1.3667 C.ar    
  23 C23           -6.0862     3.1762    -0.2627 C.ar    
  24 C24           -5.4610     3.1175     0.9766 C.ar    
  25 N25           -6.0878     3.6678     2.0903 N.pl3   
  26 C26           -7.4453     4.2064     1.9752 C.3     
  27 C27           -5.3902     3.7087     3.3779 C.3     
  28 F28           -3.5678     1.4792    -2.2430 F       
  29 H29           -1.4608    -0.8458    -1.1972 H       
  30 H30           -1.0557    -1.7260     0.2967 H       
  31 H31           -3.2850    -0.4895     0.3141 H       
  32 H32           -2.1912    -0.1323     1.6615 H       
  33 H33            1.6369     2.8655     0.2599 H       
  34 H34            3.8783     0.0171     1.0064 H       
  35 H35            3.9339     0.1527    -0.7676 H       
  36 H36            5.4103     4.1918     0.4801 H       
  37 H37            8.1028     0.1238     0.2640 H       
  38 H38            9.2407     2.2955     0.4570 H       
  39 H39            7.8851     4.3769     0.5682 H       
  40 H40           -5.9175     2.6621    -2.3420 H       
  41 H41           -7.0516     3.6494    -0.3654 H       
  42 H42           -8.1680     3.4179     2.1851 H       
  43 H43           -7.5758     5.0186     2.6904 H       
  44 H44           -7.6022     4.5835     0.9646 H       
  45 H45           -4.4001     3.2660     3.2689 H       
  46 H46           -5.2914     4.7438     3.7049 H       
  47 H47           -5.9601     3.1467     4.1178 H       
@<TRIPOS>BOND
   1    1    2 1
   2    1    7 2
   3    1    6 1
   4    2    3 1
   5    2    9 1
   6    3    4 1
   7    3   29 1
   8    3   30 1
   9    4    5 1
  10    4   31 1
  11    4   32 1
  12    5    6 am
  13    5   19 1
  14    6   13 2
  15    7    8 1
  16    7   33 1
  17    8    9 2
  18    8   10 1
  19   10   11 1
  20   10   34 1
  21   10   35 1
  22   11   12 1
  23   12   14 ar
  24   12   15 ar
  25   14   18 ar
  26   14   36 1
  27   15   16 ar
  28   16   17 ar
  29   16   37 1
  30   17   18 ar
  31   17   38 1
  32   18   39 1
  33   19   21 ar
  34   19   20 ar
  35   20   24 ar
  36   21   22 ar
  37   21   28 1
  38   22   23 ar
  39   22   40 1
  40   23   24 ar
  41   23   41 1
  42   24   25 1
  43   25   26 1
  44   25   27 1
  45   26   42 1
  46   26   43 1
  47   26   44 1
  48   27   45 1
  49   27   46 1
  50   27   47 1

#	End of record

