#	Name: ASD00960209
#	Creating user name:	WinNT
#	Creation time:	15. 06. 2019 18:53

#	Modifying user name:	WinNT
#	Modification time:	15. 06. 2019 18:53

#	Program:	/corina/corina34_cracker 3.40 0067  02.08.2006

@<TRIPOS>MOLECULE
ASD00960209
  33   35    0    0    0
SMALL
NO_CHARGES


@<TRIPOS>ATOM
   1 C1            -0.0170     1.4019     0.0097 C.2     
   2 C2             0.0021    -0.0041     0.0020 C.2     
   3 N3             1.2722     1.8425    -0.0002 N.pl3   
   4 C4             2.1118     0.7572    -0.0140 C.2     
   5 C5             1.3432    -0.3966    -0.0129 C.2     
   6 N6             1.8381     3.1258     0.0013 N.2     
   7 C7             3.1376     3.2689    -0.0103 C.2     
   8 N8             3.9634     2.2277    -0.0242 N.2     
   9 C9             3.5109     0.9858    -0.0257 C.2     
  10 N10            4.3908    -0.0767    -0.0404 N.pl3   
  11 C11           -1.1380    -0.8705     0.0087 C.1     
  12 N12           -2.0425    -1.5579     0.0139 N.1     
  13 C13           -1.1761     2.2188     0.0199 C.2     
  14 O14           -2.2804     1.7080     0.0231 O.2     
  15 O15           -1.0543     3.5629     0.0261 O.3     
  16 C16           -2.2638     4.3239     0.0363 C.3     
  17 C17           -1.9323     5.7940     0.0420 C.ar    
  18 C18           -1.7865     6.4743    -1.1524 C.ar    
  19 C19           -1.4825     7.8228    -1.1472 C.ar    
  20 C20           -1.3246     8.4910     0.0526 C.ar    
  21 C21           -1.4713     7.8109     1.2471 C.ar    
  22 C22           -1.7796     6.4634     1.2418 C.ar    
  23 H23            1.7127    -1.4114    -0.0215 H       
  24 H24            3.5535     4.2656    -0.0090 H       
  25 H25            5.3470     0.0856    -0.0498 H       
  26 H26            4.0531    -0.9860    -0.0415 H       
  27 H27           -2.8496     4.0870    -0.8519 H       
  28 H28           -2.8403     4.0779     0.9281 H       
  29 H29           -1.9099     5.9522    -2.0898 H       
  30 H30           -1.3679     8.3541    -2.0804 H       
  31 H31           -1.0863     9.5444     0.0567 H       
  32 H32           -1.3476     8.3329     2.1844 H       
  33 H33           -1.8979     5.9328     2.1751 H       
@<TRIPOS>BOND
   1    1    2 2
   2    1    3 1
   3    1   13 1
   4    2   11 1
   5    2    5 1
   6    3    4 1
   7    3    6 1
   8    4    5 2
   9    4    9 1
  10    5   23 1
  11    6    7 2
  12    7    8 1
  13    7   24 1
  14    8    9 2
  15    9   10 1
  16   10   25 1
  17   10   26 1
  18   11   12 3
  19   13   14 2
  20   13   15 1
  21   15   16 1
  22   16   17 1
  23   16   27 1
  24   16   28 1
  25   17   18 ar
  26   17   22 ar
  27   18   19 ar
  28   18   29 1
  29   19   20 ar
  30   19   30 1
  31   20   21 ar
  32   20   31 1
  33   21   22 ar
  34   21   32 1
  35   22   33 1

#	End of record

