#	Name: ASD03910079
#	Creating user name:	WinNT
#	Creation time:	15. 06. 2019 20:47

#	Modifying user name:	WinNT
#	Modification time:	15. 06. 2019 20:47

#	Program:	/corina/corina34_cracker 3.40 0067  02.08.2006

@<TRIPOS>MOLECULE
ASD03910079
  36   35    0    0    0
SMALL
NO_CHARGES


@<TRIPOS>ATOM
   1 C1            -0.2412     1.7114     0.0267 C.3     
   2 C2             0.0432     0.2121    -0.0830 C.3     
   3 N3             0.9812     2.4655    -0.2815 N.3     
   4 N4             1.0175    -0.1780     0.9449 N.3     
   5 C5             2.0111     4.6515    -0.5377 C.2     
   6 C6             0.7375     3.9127    -0.2165 C.3     
   7 O7             3.0184     4.0357    -0.7944 O.2     
   8 O8             2.0264     5.9937    -0.5385 O.3     
   9 C9             2.2739    -1.9860     1.9732 C.2     
  10 C10            1.2720    -1.6243     0.9072 C.3     
  11 O11            2.7293    -1.1271     2.6907 O.2     
  12 O12            2.6605    -3.2623     2.1256 O.3     
  13 C13           -0.8904     1.7711    -2.3658 C.2     
  14 C14           -1.3411     2.0957    -0.9649 C.3     
  15 O15            0.1989     1.2825    -2.5520 O.2     
  16 O16           -1.6990     2.0248    -3.4067 O.3     
  17 C17           -1.9799     1.3057     1.7475 C.2     
  18 C18           -0.6988     2.0410     1.4490 C.3     
  19 O19           -2.4212     0.5126     0.9500 O.2     
  20 O20           -2.6308     1.5320     2.8995 O.3     
  21 H21           -0.8822    -0.3449     0.0636 H       
  22 H22            0.4483    -0.0096    -1.0703 H       
  23 H23            1.7357     2.1979     0.3328 H       
  24 H24            1.8759     0.3429     0.8457 H       
  25 H25           -0.0322     4.1843    -0.9389 H       
  26 H26            0.4052     4.1805     0.7865 H       
  27 H27            2.8665     6.4230    -0.7505 H       
  28 H28            0.3409    -2.1618     1.0864 H       
  29 H29            1.6673    -1.8983    -0.0709 H       
  30 H30            3.3051    -3.4456     2.8227 H       
  31 H31           -2.2482     1.5362    -0.7362 H       
  32 H32           -1.5438     3.1639    -0.8868 H       
  33 H33           -1.3662     1.7994    -4.2863 H       
  34 H34            0.0699     1.7343     2.1583 H       
  35 H35           -0.8669     3.1143     1.5370 H       
  36 H36           -3.4482     1.0367     3.0464 H       
@<TRIPOS>BOND
   1    1    2 1
   2    1    3 1
   3    1   14 1
   4    1   18 1
   5    2    4 1
   6    2   21 1
   7    2   22 1
   8    3    6 1
   9    3   23 1
  10    4   10 1
  11    4   24 1
  12    5    6 1
  13    5    7 2
  14    5    8 1
  15    6   25 1
  16    6   26 1
  17    8   27 1
  18    9   10 1
  19    9   11 2
  20    9   12 1
  21   10   28 1
  22   10   29 1
  23   12   30 1
  24   13   14 1
  25   13   15 2
  26   13   16 1
  27   14   31 1
  28   14   32 1
  29   16   33 1
  30   17   18 1
  31   17   19 2
  32   17   20 1
  33   18   34 1
  34   18   35 1
  35   20   36 1

#	End of record

