#	Name: ASD03080042
#	Creating user name:	WinNT
#	Creation time:	15. 06. 2019 20:26

#	Modifying user name:	WinNT
#	Modification time:	15. 06. 2019 20:26

#	Program:	/corina/corina34_cracker 3.40 0067  02.08.2006

@<TRIPOS>MOLECULE
ASD03080042
  32   34    0    0    0
SMALL
NO_CHARGES


@<TRIPOS>ATOM
   1 O1            -0.0144     1.2085     0.0087 O.3     
   2 N2             0.0021    -0.0041     0.0020 N.2     
   3 C3             1.2349    -0.4420    -0.0121 C.2     
   4 N4             2.0455     0.6368    -0.0141 N.2     
   5 C5             1.2410     1.6828    -0.0008 C.2     
   6 C6             3.0160    -2.1950    -0.0374 C.ar    
   7 C7             1.6630    -1.8633    -0.0231 C.ar    
   8 C8             0.7155    -2.8900    -0.0188 C.ar    
   9 C9             1.1658    -4.1993    -0.0290 C.ar    
  10 C10            2.5262    -4.4465    -0.0430 C.ar    
  11 N11            3.3972    -3.4557    -0.0462 N.ar    
  12 C12            1.6452     3.1049     0.0021 C.ar    
  13 C13            0.6758     4.1091     0.0162 C.ar    
  14 C14            1.0597     5.4340     0.0193 C.ar    
  15 C15            2.4024     5.7685     0.0083 C.ar    
  16 C16            3.3681     4.7781    -0.0062 C.ar    
  17 C17            2.9976     3.4490    -0.0035 C.ar    
  18 S18           -0.1623     6.7033     0.0365 S.o2    
  19 O19            0.4803     7.8167    -0.5690 O.2     
  20 O20           -1.3019     6.1008    -0.5614 O.2     
  21 C21           -0.4603     7.0207     1.7975 C.3     
  22 H22            3.7590    -1.4112    -0.0453 H       
  23 H23           -0.3414    -2.6681    -0.0075 H       
  24 H24            0.4622    -5.0186    -0.0257 H       
  25 H25            2.8811    -5.4664    -0.0509 H       
  26 H26           -0.3724     3.8494     0.0244 H       
  27 H27            2.6978     6.8073     0.0108 H       
  28 H28            4.4144     5.0458    -0.0150 H       
  29 H29            3.7525     2.6767    -0.0104 H       
  30 H30            0.4673     7.3425     2.2708 H       
  31 H31           -1.2125     7.8024     1.9036 H       
  32 H32           -0.8149     6.1080     2.2763 H       
@<TRIPOS>BOND
   1    1    2 1
   2    1    5 1
   3    2    3 2
   4    3    4 1
   5    3    7 1
   6    4    5 2
   7    5   12 1
   8    6    7 ar
   9    6   11 ar
  10    6   22 1
  11    7    8 ar
  12    8    9 ar
  13    8   23 1
  14    9   10 ar
  15    9   24 1
  16   10   11 ar
  17   10   25 1
  18   12   13 ar
  19   12   17 ar
  20   13   14 ar
  21   13   26 1
  22   14   15 ar
  23   14   18 1
  24   15   16 ar
  25   15   27 1
  26   16   17 ar
  27   16   28 1
  28   17   29 1
  29   18   19 2
  30   18   20 2
  31   18   21 1
  32   21   30 1
  33   21   31 1
  34   21   32 1

#	End of record

