#	Name: ASD01820077
#	Creating user name:	WinNT
#	Creation time:	15. 06. 2019 19:36

#	Modifying user name:	WinNT
#	Modification time:	15. 06. 2019 19:36

#	Program:	/corina/corina34_cracker 3.40 0067  02.08.2006

@<TRIPOS>MOLECULE
ASD01820077
  73   76    0    0    0
SMALL
NO_CHARGES


@<TRIPOS>ATOM
   1 C1             0.7451     0.0155     2.4214 C.3     
   2 C2            -0.3859     0.9884     2.0788 C.3     
   3 N3            -0.0505     1.6705     0.8180 N.3     
   4 C4             1.0808     2.5845     1.0196 C.3     
   5 C5             2.2163     1.8662     1.6902 C.2     
   6 C6             2.0688     0.7209     2.3195 C.2     
   7 C7             3.7935     3.7403     1.1048 C.2     
   8 C8             3.5620     2.4745     1.6407 C.2     
   9 C9             0.0259    14.2107    -4.2869 C.3     
  10 O10           -1.1184    14.9006    -4.7935 O.3     
  11 C11           -0.9108    16.1363    -5.3197 C.2     
  12 O12            2.8179     4.5287     0.5820 O.3     
  13 C13            3.2170     5.8021     0.0711 C.3     
  14 C14           -1.2156     2.3854     0.2801 C.3     
  15 N15            5.0543     4.0878     1.1662 N.2     
  16 S16            5.8674     2.7942     1.8965 S.3     
  17 N17            4.6275     1.8656     2.0971 N.2     
  18 C18           -3.7094    15.2092    -5.2176 C.3     
  19 C19           -3.3364    16.4976    -5.8929 C.2     
  20 C20           -1.9245    16.9314    -5.8520 C.2     
  21 N21           -5.1614    15.1471    -5.0080 N.3     
  22 C22           -5.8709    15.4343    -6.2655 C.3     
  23 C23           -5.6678    16.9111    -6.6126 C.3     
  24 C24           -4.2079    17.2576    -6.5194 C.2     
  25 C25           -5.5595    13.8414    -4.4653 C.3     
  26 N26           -1.5305    18.0920    -6.3126 N.2     
  27 S27            0.0130    18.2206    -6.1103 S.3     
  28 N28            0.2625    16.7143    -5.3778 N.2     
  29 C29           -0.4015    12.8472    -3.7398 C.3     
  30 C30            0.8237    12.1085    -3.1974 C.3     
  31 C31            0.3963    10.7451    -2.6503 C.3     
  32 C32            1.6215    10.0064    -2.1079 C.3     
  33 C33            1.1941     8.6430    -1.5609 C.3     
  34 C34            2.4192     7.9043    -1.0184 C.3     
  35 C35            1.9919     6.5408    -0.4714 C.3     
  36 H36            0.6091    -0.3555     3.4372 H       
  37 H37            0.7262    -0.8225     1.7245 H       
  38 H38           -1.3192     0.4379     1.9603 H       
  39 H39           -0.4903     1.7240     2.8764 H       
  40 H40            1.4142     2.9647     0.0540 H       
  41 H41            0.7632     3.4198     1.6437 H       
  42 H42            2.9337     0.2687     2.7820 H       
  43 H43            0.7498    14.0695    -5.0895 H       
  44 H44            0.4793    14.7970    -3.4876 H       
  45 H45            3.6704     6.3884     0.8703 H       
  46 H46            3.9409     5.6609    -0.7315 H       
  47 H47           -1.5929     3.0810     1.0297 H       
  48 H48           -0.9227     2.9374    -0.6130 H       
  49 H49           -1.9958     1.6684     0.0246 H       
  50 H50           -3.3986    14.3713    -5.8417 H       
  51 H51           -3.2026    15.1465    -4.2546 H       
  52 H52           -5.4671    14.8119    -7.0641 H       
  53 H53           -6.9343    15.2303    -6.1408 H       
  54 H54           -6.0207    17.0971    -7.6270 H       
  55 H55           -6.2322    17.5288    -5.9141 H       
  56 H56           -3.8607    18.1678    -6.9856 H       
  57 H57           -5.0612    13.6778    -3.5098 H       
  58 H58           -6.6396    13.8225    -4.3196 H       
  59 H59           -5.2733    13.0550    -5.1637 H       
  60 H60           -1.1254    12.9884    -2.9373 H       
  61 H61           -0.8548    12.2609    -4.5391 H       
  62 H62            1.5476    11.9673    -4.0000 H       
  63 H63            1.2771    12.6948    -2.3982 H       
  64 H64           -0.3276    10.8863    -1.8478 H       
  65 H65           -0.0571    10.1588    -3.4496 H       
  66 H66            2.3454     9.8652    -2.9105 H       
  67 H67            2.0748    10.5927    -1.3087 H       
  68 H68            0.4702     8.7842    -0.7583 H       
  69 H69            0.7407     8.0567    -2.3601 H       
  70 H70            3.1432     7.7630    -1.8210 H       
  71 H71            2.8726     8.4906    -0.2192 H       
  72 H72            1.5385     5.9545    -1.2706 H       
  73 H73            1.2679     6.6820     0.3312 H       
@<TRIPOS>BOND
   1    1    2 1
   2    1    6 1
   3    1   36 1
   4    1   37 1
   5    2    3 1
   6    2   38 1
   7    2   39 1
   8    3    4 1
   9    3   14 1
  10    4    5 1
  11    4   40 1
  12    4   41 1
  13    5    6 2
  14    5    8 1
  15    6   42 1
  16    7    8 1
  17    7   12 1
  18    7   15 2
  19    8   17 2
  20    9   29 1
  21    9   10 1
  22    9   43 1
  23    9   44 1
  24   10   11 1
  25   11   20 1
  26   11   28 2
  27   12   13 1
  28   13   35 1
  29   13   45 1
  30   13   46 1
  31   14   47 1
  32   14   48 1
  33   14   49 1
  34   15   16 1
  35   16   17 1
  36   18   19 1
  37   18   21 1
  38   18   50 1
  39   18   51 1
  40   19   20 1
  41   19   24 2
  42   20   26 2
  43   21   22 1
  44   21   25 1
  45   22   23 1
  46   22   52 1
  47   22   53 1
  48   23   24 1
  49   23   54 1
  50   23   55 1
  51   24   56 1
  52   25   57 1
  53   25   58 1
  54   25   59 1
  55   26   27 1
  56   27   28 1
  57   29   30 1
  58   29   60 1
  59   29   61 1
  60   30   31 1
  61   30   62 1
  62   30   63 1
  63   31   32 1
  64   31   64 1
  65   31   65 1
  66   32   33 1
  67   32   66 1
  68   32   67 1
  69   33   34 1
  70   33   68 1
  71   33   69 1
  72   34   35 1
  73   34   70 1
  74   34   71 1
  75   35   72 1
  76   35   73 1

#	End of record

