#	Name: ASD01530039
#	Creating user name:	WinNT
#	Creation time:	15. 06. 2019 19:22

#	Modifying user name:	WinNT
#	Modification time:	15. 06. 2019 19:22

#	Program:	/corina/corina34_cracker 3.40 0067  02.08.2006

@<TRIPOS>MOLECULE
ASD01530039
  23   24    0    0    0
SMALL
NO_CHARGES


@<TRIPOS>ATOM
   1 C1            -0.0170     1.4015     0.0097 C.ar    
   2 C2             0.0021    -0.0041     0.0020 C.ar    
   3 C3             1.1938    -0.6615    -0.0129 C.ar    
   4 C4             2.3986     0.0383    -0.0202 C.ar    
   5 C5             2.4177     1.4000    -0.0126 C.ar    
   6 C6             1.2085     2.1116     0.0019 C.ar    
   7 C7            -1.2290     2.1132     0.0193 C.ar    
   8 C8            -1.2185     3.4748     0.0262 C.ar    
   9 C9            -0.0215     4.1843     0.0239 C.ar    
  10 C10            1.1895     3.5238     0.0096 C.ar    
  11 S11            2.6985     4.4334     0.0074 S.3     
  12 C12            2.1356     6.1578     0.0269 C.3     
  13 C13            3.3026     7.0549     0.0270 C.1     
  14 N14            4.2032     7.7473     0.0271 N.1     
  15 H15           -0.9241    -0.5595     0.0082 H       
  16 H16            1.2057    -1.7414    -0.0188 H       
  17 H17            3.3308    -0.5069    -0.0317 H       
  18 H18            3.3589     1.9296    -0.0183 H       
  19 H19           -2.1684     1.5803     0.0209 H       
  20 H20           -2.1548     4.0131     0.0331 H       
  21 H21           -0.0408     5.2641     0.0291 H       
  22 H22            1.5283     6.3517    -0.8572 H       
  23 H23            1.5405     6.3356     0.9227 H       
@<TRIPOS>BOND
   1    1    2 ar
   2    1    6 ar
   3    1    7 ar
   4    2    3 ar
   5    2   15 1
   6    3    4 ar
   7    3   16 1
   8    4    5 ar
   9    4   17 1
  10    5    6 ar
  11    5   18 1
  12    6   10 ar
  13    7    8 ar
  14    7   19 1
  15    8    9 ar
  16    8   20 1
  17    9   10 ar
  18    9   21 1
  19   10   11 1
  20   11   12 1
  21   12   13 1
  22   12   22 1
  23   12   23 1
  24   13   14 3

#	End of record

