#	Name: ASD01410431
#	Creating user name:	WinNT
#	Creation time:	15. 06. 2019 19:17

#	Modifying user name:	WinNT
#	Modification time:	15. 06. 2019 19:17

#	Program:	/corina/corina34_cracker 3.40 0067  02.08.2006

@<TRIPOS>MOLECULE
ASD01410431
  57   61    0    0    0
SMALL
NO_CHARGES


@<TRIPOS>ATOM
   1 C1            -0.6849     3.3296    -2.7806 C.ar    
   2 C2            -1.0126     2.5333    -3.8797 C.ar    
   3 C3            -2.1961     1.8243    -3.8887 C.ar    
   4 C4            -3.0604     1.8994    -2.8119 C.ar    
   5 C5            -2.7435     2.6889    -1.7147 C.ar    
   6 C6            -1.5549     3.4000    -1.6925 C.ar    
   7 C7            -1.2090     4.2571    -0.5022 C.3     
   8 O8            -3.5968     2.7593    -0.6594 O.3     
   9 C9            -4.7907     2.1171    -0.7602 C.ar    
  10 C10           -4.8459     0.7327    -0.6237 C.ar    
  11 C11           -6.0475     0.0642    -0.7228 C.ar    
  12 C12           -7.2147     0.7767    -0.9611 C.ar    
  13 C13           -7.1622     2.1760    -1.0996 C.ar    
  14 C14           -5.9449     2.8431    -0.9923 C.ar    
  15 F15           -2.2184     4.1479     0.4603 F       
  16 F16            0.0051     3.8277     0.0446 F       
  17 F17           -1.0924     5.5913    -0.9064 F       
  18 N18           -8.4427     0.1520    -1.0690 N.pl3   
  19 C19           -9.5550     0.8698    -1.3010 C.2     
  20 N20           -9.5579     2.1670    -1.4371 N.2     
  21 C21           -8.4260     2.8911    -1.3522 C.2     
  22 O22           -8.4458     4.1031    -1.4813 O.2     
  23 C23           -8.5326    -1.3036    -0.9300 C.3     
  24 C24           -8.9072    -1.6506     0.4879 C.ar    
  25 C25          -10.2360    -1.6376     0.8757 C.ar    
  26 C26          -10.5800    -1.9563     2.1782 C.ar    
  27 C27           -9.5953    -2.2884     3.0927 C.ar    
  28 C28           -8.2665    -2.3022     2.7047 C.ar    
  29 C29           -7.9229    -1.9877     1.4011 C.ar    
  30 F30           -6.6261    -2.0012     1.0223 F       
  31 F31           -9.9310    -2.5986     4.3641 F       
  32 F32          -11.1970    -1.3136    -0.0168 F       
  33 C33            0.5823     4.0907    -2.7674 C.2     
  34 N34            1.4552     3.9637    -3.7864 N.am    
  35 O35            0.8370     4.8310    -1.8376 O.2     
  36 C36            2.6941     4.5980    -3.7255 C.ar    
  37 C37            3.5440     4.5564    -4.8249 C.ar    
  38 C38            4.7716     5.1911    -4.7511 C.ar    
  39 C39            5.1079     5.8479    -3.5754 C.ar    
  40 C40            4.2145     5.8488    -2.5221 C.ar    
  41 N41            3.0491     5.2394    -2.6231 N.ar    
  42 H42           -0.3400     2.4726    -4.7226 H       
  43 H43           -2.4485     1.2090    -4.7397 H       
  44 H44           -3.9854     1.3422    -2.8246 H       
  45 H45           -3.9385     0.1770    -0.4386 H       
  46 H46           -6.0805    -1.0100    -0.6158 H       
  47 H47           -5.9011     3.9171    -1.0977 H       
  48 H48          -10.4957     0.3450    -1.3792 H       
  49 H49           -9.2924    -1.6873    -1.6108 H       
  50 H50           -7.5688    -1.7518    -1.1713 H       
  51 H51          -11.6167    -1.9456     2.4810 H       
  52 H52           -7.4982    -2.5609     3.4183 H       
  53 H53            1.2208     3.4307    -4.5623 H       
  54 H54            3.2503     4.0356    -5.7243 H       
  55 H55            5.4527     5.1753    -5.5891 H       
  56 H56            6.0584     6.3527    -3.4852 H       
  57 H57            4.4720     6.3583    -1.6052 H       
@<TRIPOS>BOND
   1    1    2 ar
   2    1   33 1
   3    1    6 ar
   4    2    3 ar
   5    2   42 1
   6    3    4 ar
   7    3   43 1
   8    4    5 ar
   9    4   44 1
  10    5    6 ar
  11    5    8 1
  12    6    7 1
  13    7   15 1
  14    7   16 1
  15    7   17 1
  16    8    9 1
  17    9   10 ar
  18    9   14 ar
  19   10   11 ar
  20   10   45 1
  21   11   12 ar
  22   11   46 1
  23   12   13 ar
  24   12   18 1
  25   13   14 ar
  26   13   21 1
  27   14   47 1
  28   18   19 1
  29   18   23 1
  30   19   20 2
  31   19   48 1
  32   20   21 1
  33   21   22 2
  34   23   24 1
  35   23   49 1
  36   23   50 1
  37   24   25 ar
  38   24   29 ar
  39   25   26 ar
  40   25   32 1
  41   26   27 ar
  42   26   51 1
  43   27   28 ar
  44   27   31 1
  45   28   29 ar
  46   28   52 1
  47   29   30 1
  48   33   34 am
  49   33   35 2
  50   34   36 1
  51   34   53 1
  52   36   37 ar
  53   36   41 ar
  54   37   38 ar
  55   37   54 1
  56   38   39 ar
  57   38   55 1
  58   39   40 ar
  59   39   56 1
  60   40   41 ar
  61   40   57 1

#	End of record

