#	Name: ASD01890226
#	Creating user name:	WinNT
#	Creation time:	15. 06. 2019 19:50

#	Modifying user name:	WinNT
#	Modification time:	15. 06. 2019 19:50

#	Program:	/corina/corina34_cracker 3.40 0067  02.08.2006

@<TRIPOS>MOLECULE
ASD01890226
  45   46    0    0    0
SMALL
NO_CHARGES


@<TRIPOS>ATOM
   1 C1            -0.0279     1.4541    -0.0223 C.2     
   2 C2            -0.0036    -0.0080    -0.0416 C.2     
   3 C3             1.1740    -0.6622    -0.1145 C.2     
   4 C4             2.4493     0.1057    -0.3495 C.3     
   5 C5             3.0808     0.4693     0.9958 C.3     
   6 O6             1.0138     2.0788     0.0396 O.2     
   7 O7            -1.2054     2.1100    -0.0789 O.3     
   8 C8             1.2133    -2.1258     0.0353 C.ar    
   9 C9             0.5944    -2.9462    -0.9132 C.ar    
  10 C10            0.6360    -4.3166    -0.7661 C.ar    
  11 C11            1.2876    -4.8805     0.3170 C.ar    
  12 C12            1.9021    -4.0752     1.2601 C.ar    
  13 C13            1.8747    -2.7034     1.1238 C.ar    
  14 C14            4.3561     1.2372     0.7609 C.ar    
  15 C15            4.3231     2.6165     0.6651 C.ar    
  16 C16            5.4896     3.3234     0.4499 C.ar    
  17 C17            6.6978     2.6472     0.3300 C.ar    
  18 C18            6.7271     1.2612     0.4273 C.ar    
  19 C19            5.5573     0.5613     0.6474 C.ar    
  20 S20            8.1887     3.5449     0.0548 S.3     
  21 C21            9.4435     2.2374    -0.0252 C.3     
  22 C22           -1.1544     3.5379    -0.0559 C.3     
  23 C23           -2.5756     4.1001    -0.1274 C.3     
  24 H24           -0.9284    -0.5640     0.0026 H       
  25 H25            3.1434    -0.5093    -0.9223 H       
  26 H26            2.2276     1.0170    -0.9049 H       
  27 H27            2.3867     1.0842     1.5687 H       
  28 H28            3.3025    -0.4420     1.5513 H       
  29 H29            0.0849    -2.5077    -1.7585 H       
  30 H30            0.1585    -4.9516    -1.4977 H       
  31 H31            1.3164    -5.9545     0.4269 H       
  32 H32            2.4080    -4.5227     2.1029 H       
  33 H33            2.3585    -2.0765     1.8581 H       
  34 H34            3.3838     3.1413     0.7584 H       
  35 H35            5.4630     4.4004     0.3745 H       
  36 H36            7.6642     0.7324     0.3344 H       
  37 H37            5.5799    -0.5155     0.7272 H       
  38 H38            9.2073     1.5567    -0.8431 H       
  39 H39           10.4232     2.6839    -0.1955 H       
  40 H40            9.4541     1.6859     0.9149 H       
  41 H41           -0.6784     3.8696     0.8669 H       
  42 H42           -0.5791     3.8947    -0.9102 H       
  43 H43           -2.5367     5.1893    -0.1098 H       
  44 H44           -3.0516     3.7684    -1.0501 H       
  45 H45           -3.1509     3.7433     0.7269 H       
@<TRIPOS>BOND
   1    1    2 1
   2    1    6 2
   3    1    7 1
   4    2    3 2
   5    2   24 1
   6    3    4 1
   7    3    8 1
   8    4    5 1
   9    4   25 1
  10    4   26 1
  11    5   14 1
  12    5   27 1
  13    5   28 1
  14    7   22 1
  15    8    9 ar
  16    8   13 ar
  17    9   10 ar
  18    9   29 1
  19   10   11 ar
  20   10   30 1
  21   11   12 ar
  22   11   31 1
  23   12   13 ar
  24   12   32 1
  25   13   33 1
  26   14   15 ar
  27   14   19 ar
  28   15   16 ar
  29   15   34 1
  30   16   17 ar
  31   16   35 1
  32   17   18 ar
  33   17   20 1
  34   18   19 ar
  35   18   36 1
  36   19   37 1
  37   20   21 1
  38   21   38 1
  39   21   39 1
  40   21   40 1
  41   22   23 1
  42   22   41 1
  43   22   42 1
  44   23   43 1
  45   23   44 1
  46   23   45 1

#	End of record

