#	Name: ASD03730707
#	Creating user name:	WinNT
#	Creation time:	15. 06. 2019 20:44

#	Modifying user name:	WinNT
#	Modification time:	15. 06. 2019 20:44

#	Program:	/corina/corina34_cracker 3.40 0067  02.08.2006

@<TRIPOS>MOLECULE
ASD03730707
  59   65    0    0    0
SMALL
NO_CHARGES


@<TRIPOS>ATOM
   1 C1             1.3803    -1.2138    -2.4771 C.2     
   2 C2             0.4813    -1.1566    -1.3052 C.ar    
   3 C3             0.7316    -0.2504    -0.2731 C.ar    
   4 C4            -0.1116    -0.2018     0.8174 C.ar    
   5 C5            -1.2034    -1.0489     0.8901 C.ar    
   6 C6            -1.4569    -1.9495    -0.1290 C.ar    
   7 C7            -0.6249    -2.0042    -1.2283 C.ar    
   8 O8             2.3187    -0.4457    -2.5613 O.2     
   9 N9             1.1628    -2.1213    -3.4496 N.am    
  10 C10            1.9206     0.6723    -0.3501 C.3     
  11 O11            0.1098    -0.7000     6.4711 O.3     
  12 C12            0.0669    -0.3720     7.8724 C.3     
  13 O13            1.3515     0.2281     8.1229 O.3     
  14 C14            1.7434     0.7647     6.9299 C.ar    
  15 C15            0.9802     0.1929     5.9146 C.ar    
  16 C16            2.7047     1.7111     6.6234 C.ar    
  17 C17            2.9182     2.0973     5.3036 C.ar    
  18 C18            2.1553     1.5130     4.2971 C.ar    
  19 C19            1.1919     0.5736     4.6001 C.ar    
  20 O20            3.7911     3.0128     4.7934 O.3     
  21 C21            2.6322     2.1060     2.9983 C.3     
  22 C22            3.9594     2.7741     3.3827 C.3     
  23 N23            2.0327     1.4297     0.8989 N.am    
  24 C24            2.8175     1.0648     1.9324 C.2     
  25 C25            1.6550     3.0904     2.4273 C.ar    
  26 C26            1.0874     4.2518     2.9017 C.ar    
  27 C27            0.1954     4.9587     2.1151 C.ar    
  28 C28           -0.1251     4.4957     0.8519 C.ar    
  29 C29            0.4400     3.3324     0.3726 C.ar    
  30 C30            1.3393     2.6145     1.1573 C.ar    
  31 O31            3.5334     0.0874     1.9898 O.2     
  32 C32            1.8965    -2.0614    -4.6386 C.ar    
  33 C33            1.3946    -2.6427    -5.7959 C.ar    
  34 C34            2.1221    -2.5812    -6.9694 C.ar    
  35 C35            3.3495    -1.9415    -6.9913 C.ar    
  36 C36            3.8508    -1.3623    -5.8405 C.ar    
  37 C37            3.1257    -1.4155    -4.6660 C.ar    
  38 Cl38           1.4963    -3.3072    -8.4168 Cl      
  39 H39            0.0809     0.4988     1.6165 H       
  40 H40           -1.8602    -1.0071     1.7463 H       
  41 H41           -2.3103    -2.6084    -0.0658 H       
  42 H42           -0.8267    -2.7043    -2.0255 H       
  43 H43            0.4975    -2.8160    -3.3247 H       
  44 H44            2.8266     0.0855    -0.5017 H       
  45 H45            1.7913     1.3629    -1.1834 H       
  46 H46           -0.7340     0.3391     8.0749 H       
  47 H47           -0.0586    -1.2729     8.4729 H       
  48 H48            3.2934     2.1532     7.4136 H       
  49 H49            0.6013     0.1337     3.8102 H       
  50 H50            4.0906     3.7126     2.8442 H       
  51 H51            4.7980     2.1018     3.2012 H       
  52 H52            1.3390     4.6114     3.8885 H       
  53 H53           -0.2493     5.8702     2.4864 H       
  54 H54           -0.8215     5.0475     0.2379 H       
  55 H55            0.1844     2.9769    -0.6146 H       
  56 H56            0.4374    -3.1424    -5.7787 H       
  57 H57            3.9167    -1.8952    -7.9091 H       
  58 H58            4.8087    -0.8639    -5.8608 H       
  59 H59            3.5164    -0.9592    -3.7685 H       
@<TRIPOS>BOND
   1    1    2 1
   2    1    8 2
   3    1    9 am
   4    2    3 ar
   5    2    7 ar
   6    3    4 ar
   7    3   10 1
   8    4    5 ar
   9    4   39 1
  10    5    6 ar
  11    5   40 1
  12    6    7 ar
  13    6   41 1
  14    7   42 1
  15    9   32 1
  16    9   43 1
  17   10   23 1
  18   10   44 1
  19   10   45 1
  20   11   12 1
  21   11   15 1
  22   12   13 1
  23   12   46 1
  24   12   47 1
  25   13   14 1
  26   14   15 ar
  27   14   16 ar
  28   15   19 ar
  29   16   17 ar
  30   16   48 1
  31   17   18 ar
  32   17   20 1
  33   18   19 ar
  34   18   21 1
  35   19   49 1
  36   20   22 1
  37   21   22 1
  38   21   24 1
  39   21   25 1
  40   22   50 1
  41   22   51 1
  42   23   24 am
  43   23   30 1
  44   24   31 2
  45   25   26 ar
  46   25   30 ar
  47   26   27 ar
  48   26   52 1
  49   27   28 ar
  50   27   53 1
  51   28   29 ar
  52   28   54 1
  53   29   30 ar
  54   29   55 1
  55   32   33 ar
  56   32   37 ar
  57   33   34 ar
  58   33   56 1
  59   34   35 ar
  60   34   38 1
  61   35   36 ar
  62   35   57 1
  63   36   37 ar
  64   36   58 1
  65   37   59 1

#	End of record

