#	Name: ASD01910606
#	Creating user name:	WinNT
#	Creation time:	15. 06. 2019 19:56

#	Modifying user name:	WinNT
#	Modification time:	15. 06. 2019 19:56

#	Program:	/corina/corina34_cracker 3.40 0067  02.08.2006

@<TRIPOS>MOLECULE
ASD01910606
  43   46    0    0    0
SMALL
NO_CHARGES


@<TRIPOS>ATOM
   1 C1             2.2781     0.0635     1.7918 C.ar    
   2 C2             2.2463    -1.2580     1.3733 C.ar    
   3 C3             3.2178    -1.7416     0.5120 C.ar    
   4 C4             4.2246    -0.9078     0.0654 C.ar    
   5 C5             4.2605     0.4262     0.4852 C.ar    
   6 C6             3.2775     0.9055     1.3533 C.ar    
   7 C7             5.3336     1.3234     0.0126 C.2     
   8 N8             5.4917     2.5983     0.3247 N.2     
   9 C9             6.5916     2.9957    -0.3334 C.2     
  10 N10            7.0431     1.9740    -0.9993 N.2     
  11 O11            6.3420     1.0020    -0.8129 O.3     
  12 C12            7.1947     4.3765    -0.3059 C.3     
  13 C13            8.6244     4.2989     0.2346 C.3     
  14 C14            9.2262     5.7047     0.2938 C.3     
  15 C15            9.2748     6.2950    -1.1190 C.3     
  16 N16            7.9269     6.2396    -1.7012 N.am    
  17 C17            7.2202     4.9518    -1.7255 C.3     
  18 C18            7.3498     7.3492    -2.2035 C.2     
  19 O19            6.2782     7.2725    -2.7732 O.2     
  20 F20            5.1722    -1.3795    -0.7741 F       
  21 F21            1.2640    -2.0777     1.8075 F       
  22 C22            8.0175     8.6556    -2.0623 C.2     
  23 C23            8.1524     9.6538    -2.9963 C.2     
  24 O24            8.8305    10.6370    -2.4000 O.3     
  25 N25            9.1232    10.3860    -1.2567 N.2     
  26 C26            8.6983     9.2150    -0.8843 C.2     
  27 C27            7.6374     9.6413    -4.4125 C.3     
  28 H28            1.5151     0.4353     2.4597 H       
  29 H29            3.1881    -2.7719     0.1896 H       
  30 H30            3.3002     1.9344     1.6807 H       
  31 H31            6.5969     5.0218     0.3379 H       
  32 H32            8.6113     3.8669     1.2353 H       
  33 H33            9.2276     3.6730    -0.4230 H       
  34 H34            8.6095     6.3379     0.9316 H       
  35 H35           10.2360     5.6513     0.7007 H       
  36 H36            9.6097     7.3311    -1.0708 H       
  37 H37            9.9626     5.7147    -1.7340 H       
  38 H38            7.7404     4.2619    -2.3899 H       
  39 H39            6.1995     5.1016    -2.0774 H       
  40 H40            8.8242     8.7494     0.0820 H       
  41 H41            6.6293    10.0552    -4.4361 H       
  42 H42            8.2922    10.2433    -5.0425 H       
  43 H43            7.6182     8.6164    -4.7831 H       
@<TRIPOS>BOND
   1    1    2 ar
   2    1    6 ar
   3    1   28 1
   4    2    3 ar
   5    2   21 1
   6    3    4 ar
   7    3   29 1
   8    4    5 ar
   9    4   20 1
  10    5    6 ar
  11    5    7 1
  12    6   30 1
  13    7    8 2
  14    7   11 1
  15    8    9 1
  16    9   10 2
  17    9   12 1
  18   10   11 1
  19   12   13 1
  20   12   17 1
  21   12   31 1
  22   13   14 1
  23   13   32 1
  24   13   33 1
  25   14   15 1
  26   14   34 1
  27   14   35 1
  28   15   16 1
  29   15   36 1
  30   15   37 1
  31   16   17 1
  32   16   18 am
  33   17   38 1
  34   17   39 1
  35   18   19 2
  36   18   22 1
  37   22   23 2
  38   22   26 1
  39   23   24 1
  40   23   27 1
  41   24   25 1
  42   25   26 2
  43   26   40 1
  44   27   41 1
  45   27   42 1
  46   27   43 1

#	End of record

