#	Name: ASD03090566
#	Creating user name:	WinNT
#	Creation time:	15. 06. 2019 20:29

#	Modifying user name:	WinNT
#	Modification time:	15. 06. 2019 20:29

#	Program:	/corina/corina34_cracker 3.40 0067  02.08.2006

@<TRIPOS>MOLECULE
ASD03090566
  31   32    0    0    0
SMALL
NO_CHARGES


@<TRIPOS>ATOM
   1 N1            -0.1766     1.3451    -0.5681 N.am    
   2 C2            -0.1679    -0.0024    -0.5927 C.2     
   3 O3             0.7312    -0.5944    -1.1582 O.2     
   4 N4            -1.1558    -0.6938     0.0094 N.am    
   5 C5            -1.1931    -2.0934    -0.0881 C.ar    
   6 C6            -2.4053    -2.7686     0.0336 C.ar    
   7 C7            -2.4395    -4.1496    -0.0634 C.ar    
   8 C8            -1.2673    -4.8581    -0.2816 C.ar    
   9 C9            -0.0601    -4.1844    -0.4022 C.ar    
  10 C10           -0.0241    -2.8048    -0.3114 C.ar    
  11 O11           -1.3009    -6.2143    -0.3769 O.3     
  12 C12           -2.5773    -6.8426    -0.2426 C.3     
  13 O13           -3.5538    -2.0725     0.2479 O.3     
  14 C14           -4.7599    -2.8303     0.3627 C.3     
  15 Cl15           1.4056    -5.0738    -0.6747 Cl      
  16 S16            0.9925     3.8161    -1.2572 S.3     
  17 C17            0.8431     2.0588    -1.1896 C.2     
  18 N18            1.8585     1.5508    -1.8250 N.2     
  19 N19            2.6929     2.3501    -2.3299 N.2     
  20 C20            2.4828     3.6191    -2.1819 C.2     
  21 Cl21           3.4878     4.8992    -2.7861 Cl      
  22 H22           -0.8960     1.8174    -0.1205 H       
  23 H23           -1.8410    -0.2240     0.5101 H       
  24 H24           -3.3785    -4.6747     0.0310 H       
  25 H25            0.9156    -2.2817    -0.4103 H       
  26 H26           -2.9971    -6.6073     0.7354 H       
  27 H27           -3.2458    -6.4776    -1.0223 H       
  28 H28           -2.4627    -7.9223    -0.3385 H       
  29 H29           -5.5987    -2.1550     0.5316 H       
  30 H30           -4.9250    -3.3919    -0.5569 H       
  31 H31           -4.6760    -3.5221     1.2008 H       
@<TRIPOS>BOND
   1    1    2 am
   2    1   17 1
   3    1   22 1
   4    2    3 2
   5    2    4 am
   6    4    5 1
   7    4   23 1
   8    5    6 ar
   9    5   10 ar
  10    6    7 ar
  11    6   13 1
  12    7    8 ar
  13    7   24 1
  14    8    9 ar
  15    8   11 1
  16    9   10 ar
  17    9   15 1
  18   10   25 1
  19   11   12 1
  20   12   26 1
  21   12   27 1
  22   12   28 1
  23   13   14 1
  24   14   29 1
  25   14   30 1
  26   14   31 1
  27   16   17 1
  28   16   20 1
  29   17   18 2
  30   18   19 1
  31   19   20 2
  32   20   21 1

#	End of record

