#	Name: ASD01412090
#	Creating user name:	WinNT
#	Creation time:	15. 06. 2019 19:20

#	Modifying user name:	WinNT
#	Modification time:	15. 06. 2019 19:20

#	Program:	/corina/corina34_cracker 3.40 0067  02.08.2006

@<TRIPOS>MOLECULE
ASD01412090
  63   66    0    0    0
SMALL
NO_CHARGES


@<TRIPOS>ATOM
   1 C1            -0.0167     1.3835     0.0096 C.ar    
   2 C2             0.0021    -0.0041     0.0020 C.ar    
   3 C3             1.2019    -0.6946    -0.0135 C.ar    
   4 C4             2.4081    -0.0049    -0.0206 C.ar    
   5 C5             2.4042     1.4038    -0.0123 C.ar    
   6 C6             1.1775     2.0993     0.0021 C.ar    
   7 C7             1.1998    -2.2016    -0.0221 C.3     
   8 O8            -1.1702    -0.6927     0.0103 O.3     
   9 N9             3.7269    -0.4110    -0.0352 N.pl3   
  10 C10            4.5461     0.6773    -0.0351 C.2     
  11 C11            3.8001     1.8046    -0.0210 C.2     
  12 C12            6.0573     0.7017    -0.0494 C.3     
  13 O13            6.4778     2.0246    -0.4063 O.3     
  14 C14            5.8741     3.0658     0.3662 C.3     
  15 C15            4.3913     3.1913    -0.0143 C.3     
  16 C16            6.5930     0.3462     1.3390 C.3     
  17 C17            6.5806    -0.3021    -1.0787 C.3     
  18 C18           -2.3743     0.0766     0.0267 C.3     
  19 C19            8.1226     0.3728     1.3176 C.3     
  20 C20            8.6565     0.1403     2.7325 C.3     
  21 C21           -3.5807    -0.8645     0.0339 C.3     
  22 N22           -4.8107    -0.0807     0.1711 N.pl3   
  23 N23           -5.4837     0.1940     1.3685 N.2     
  24 C24           -6.5362     0.9192     1.0889 C.2     
  25 C25           -6.5672     1.1293    -0.2936 C.2     
  26 C26           -5.4924     0.5091    -0.8332 C.2     
  27 C27           -3.6211    -1.6519    -1.2773 C.3     
  28 C28            6.1126    -1.0533     1.7280 C.3     
  29 C29            1.1603     3.5312     0.0093 C.1     
  30 N30            1.1466     4.6671     0.0151 N.1     
  31 C31            6.0627     0.0640    -2.4457 C.2     
  32 O32            5.3483     1.0287    -2.5827 O.2     
  33 O33            6.3950    -0.6818    -3.5112 O.3     
  34 H34           -0.9600     1.9094     0.0170 H       
  35 H35            1.1894    -2.5590    -1.0518 H       
  36 H36            2.0941    -2.5691     0.4811 H       
  37 H37            0.3143    -2.5666     0.4981 H       
  38 H38            4.0260    -1.3337    -0.0439 H       
  39 H39            5.9581     2.8270     1.4264 H       
  40 H40            6.3821     4.0089     0.1648 H       
  41 H41            4.3007     3.6361    -1.0053 H       
  42 H42            3.8731     3.8104     0.7180 H       
  43 H43            6.2271     1.0711     2.0661 H       
  44 H44            7.6704    -0.2809    -1.0854 H       
  45 H45            6.2383    -1.3032    -0.8165 H       
  46 H46           -2.3948     0.7004     0.9203 H       
  47 H47           -2.4130     0.7100    -0.8596 H       
  48 H48            8.4904    -0.4122     0.6569 H       
  49 H49            8.4641     1.3424     0.9552 H       
  50 H50            9.7462     0.1592     2.7173 H       
  51 H51            8.2886     0.9253     3.3932 H       
  52 H52            8.3150    -0.8293     3.0949 H       
  53 H53           -3.4960    -1.5573     0.8712 H       
  54 H54           -7.2568     1.2911     1.8022 H       
  55 H55           -7.3144     1.6912    -0.8343 H       
  56 H56           -5.2310     0.4843    -1.8808 H       
  57 H57           -3.7058    -0.9591    -2.1146 H       
  58 H58           -2.7060    -2.2351    -1.3793 H       
  59 H59           -4.4805    -2.3223    -1.2721 H       
  60 H60            6.4785    -1.7782     1.0008 H       
  61 H61            6.4942    -1.3066     2.7171 H       
  62 H62            5.0229    -1.0723     1.7432 H       
  63 H63            6.0386    -0.4076    -4.3673 H       
@<TRIPOS>BOND
   1    1    2 ar
   2    1    6 ar
   3    1   34 1
   4    2    3 ar
   5    2    8 1
   6    3    4 ar
   7    3    7 1
   8    4    5 ar
   9    4    9 1
  10    5    6 ar
  11    5   11 1
  12    6   29 1
  13    7   35 1
  14    7   36 1
  15    7   37 1
  16    8   18 1
  17    9   10 1
  18    9   38 1
  19   10   11 2
  20   10   12 1
  21   11   15 1
  22   12   13 1
  23   12   16 1
  24   12   17 1
  25   13   14 1
  26   14   15 1
  27   14   39 1
  28   14   40 1
  29   15   41 1
  30   15   42 1
  31   16   19 1
  32   16   28 1
  33   16   43 1
  34   17   31 1
  35   17   44 1
  36   17   45 1
  37   18   21 1
  38   18   46 1
  39   18   47 1
  40   19   20 1
  41   19   48 1
  42   19   49 1
  43   20   50 1
  44   20   51 1
  45   20   52 1
  46   21   22 1
  47   21   27 1
  48   21   53 1
  49   22   23 1
  50   22   26 1
  51   23   24 2
  52   24   25 1
  53   24   54 1
  54   25   26 2
  55   25   55 1
  56   26   56 1
  57   27   57 1
  58   27   58 1
  59   27   59 1
  60   28   60 1
  61   28   61 1
  62   28   62 1
  63   29   30 3
  64   31   32 2
  65   31   33 1
  66   33   63 1

#	End of record

