#	Name: ASD01850019
#	Creating user name:	WinNT
#	Creation time:	15. 06. 2019 19:38

#	Modifying user name:	WinNT
#	Modification time:	15. 06. 2019 19:38

#	Program:	/corina/corina34_cracker 3.40 0067  02.08.2006

@<TRIPOS>MOLECULE
ASD01850019
  49   53    0    0    0
SMALL
NO_CHARGES


@<TRIPOS>ATOM
   1 F1             0.2212     0.3947     1.0680 F       
   2 C2             0.1121     1.7174     0.8157 C.ar    
   3 C3             1.2452     2.5126     0.7847 C.ar    
   4 C4             1.1324     3.8654     0.5260 C.ar    
   5 C5            -0.1111     4.4249     0.2982 C.ar    
   6 C6            -1.2431     3.6320     0.3294 C.ar    
   7 C7            -1.1323     2.2779     0.5822 C.ar    
   8 C8            -0.2327     5.9003     0.0163 C.3     
   9 N9             0.9605     6.4008    -0.6766 N.am    
  10 C10            1.8734     6.9037     0.3723 C.3     
  11 C11            1.1090     6.7252     1.7066 C.3     
  12 N12           -0.2997     6.6786     1.2778 N.am    
  13 C13           -1.5724     7.0262     1.4708 C.2     
  14 O14           -2.0462     7.3937     2.5282 O.2     
  15 C15           -2.3191     6.8960     0.2009 C.ar    
  16 C16           -1.5028     6.2006    -0.7271 C.ar    
  17 C17           -1.9580     5.9607    -2.0030 C.ar    
  18 C18           -3.2196     6.3879    -2.3808 C.ar    
  19 C19           -4.0276     7.0573    -1.4784 C.ar    
  20 C20           -3.5941     7.3070    -0.1872 C.ar    
  21 C21            1.1808     6.4013    -2.0062 C.2     
  22 O22            0.3872     5.8634    -2.7542 O.2     
  23 C23            2.3845     7.0541    -2.5539 C.ar    
  24 C24            2.5298     7.2091    -3.9361 C.ar    
  25 C25            3.6498     7.8163    -4.4424 C.ar    
  26 C26            4.6425     8.2787    -3.5814 C.ar    
  27 C27            4.5004     8.1257    -2.2042 C.ar    
  28 C28            3.3800     7.5245    -1.6919 C.ar    
  29 S29            6.0808     9.0581    -4.2359 S.3     
  30 C30            7.0366     9.4655    -2.7489 C.3     
  31 F31            7.3328     8.2910    -2.0487 F       
  32 F32            8.2269    10.1006    -3.1190 F       
  33 F33            6.2871    10.3189    -1.9320 F       
  34 H34            2.2167     2.0758     0.9629 H       
  35 H35            2.0161     4.4859     0.5021 H       
  36 H36           -2.2141     4.0703     0.1520 H       
  37 H37           -2.0168     1.6587     0.6065 H       
  38 H38            2.7933     6.3191     0.3836 H       
  39 H39            2.0972     7.9571     0.2040 H       
  40 H40            1.3950     5.7925     2.1928 H       
  41 H41            1.2830     7.5746     2.3671 H       
  42 H42           -1.3306     5.4390    -2.7106 H       
  43 H43           -3.5742     6.1986    -3.3832 H       
  44 H44           -5.0125     7.3839    -1.7778 H       
  45 H45           -4.2348     7.8302     0.5071 H       
  46 H46            1.7606     6.8505    -4.6040 H       
  47 H47            3.7627     7.9360    -5.5097 H       
  48 H48            5.2719     8.4849    -1.5391 H       
  49 H49            3.2704     7.4061    -0.6240 H       
@<TRIPOS>BOND
   1    1    2 1
   2    2    3 ar
   3    2    7 ar
   4    3    4 ar
   5    3   34 1
   6    4    5 ar
   7    4   35 1
   8    5    6 ar
   9    5    8 1
  10    6    7 ar
  11    6   36 1
  12    7   37 1
  13    8    9 1
  14    8   12 1
  15    8   16 1
  16    9   10 1
  17    9   21 am
  18   10   11 1
  19   10   38 1
  20   10   39 1
  21   11   12 1
  22   11   40 1
  23   11   41 1
  24   12   13 am
  25   13   14 2
  26   13   15 1
  27   15   16 ar
  28   15   20 ar
  29   16   17 ar
  30   17   18 ar
  31   17   42 1
  32   18   19 ar
  33   18   43 1
  34   19   20 ar
  35   19   44 1
  36   20   45 1
  37   21   22 2
  38   21   23 1
  39   23   24 ar
  40   23   28 ar
  41   24   25 ar
  42   24   46 1
  43   25   26 ar
  44   25   47 1
  45   26   27 ar
  46   26   29 1
  47   27   28 ar
  48   27   48 1
  49   28   49 1
  50   29   30 1
  51   30   31 1
  52   30   32 1
  53   30   33 1

#	End of record

