#	Name: ASD01813784
#	Creating user name:	WinNT
#	Creation time:	15. 06. 2019 19:31

#	Modifying user name:	WinNT
#	Modification time:	15. 06. 2019 19:31

#	Program:	/corina/corina34_cracker 3.40 0067  02.08.2006

@<TRIPOS>MOLECULE
ASD01813784
  62   67    0    0    0
SMALL
NO_CHARGES


@<TRIPOS>ATOM
   1 C1            -0.0169     1.3972     0.0097 C.2     
   2 C2             0.0021    -0.0041     0.0020 C.2     
   3 C3             1.1986    -0.6593    -0.0129 C.2     
   4 C4             2.3918     0.0821    -0.0204 C.2     
   5 N5             2.3438     1.4497    -0.0122 N.am    
   6 C6             1.1421     2.0936     0.0024 C.2     
   7 C7             3.6227    -0.5889    -0.0356 C.2     
   8 C8             4.7877     0.1218    -0.0430 C.2     
   9 C9             4.7345     1.5280    -0.0351 C.2     
  10 C10            3.4812     2.1736    -0.0189 C.2     
  11 O11            3.4258     3.3917    -0.0123 O.2     
  12 C12            5.9703     2.3140    -0.0422 C.2     
  13 O13            7.0487     1.7516    -0.0551 O.2     
  14 O14            5.9124     3.6618    -0.0346 O.3     
  15 C15            3.6593    -2.0954    -0.0434 C.3     
  16 N16            3.7785    -2.5752    -1.4268 N.3     
  17 C17            4.0547    -4.0181    -1.4618 C.3     
  18 C18            4.0925    -4.4924    -2.9165 C.3     
  19 N19            5.1249    -3.7436    -3.6465 N.3     
  20 C20            4.8487    -2.3006    -3.6115 C.3     
  21 C21            4.8109    -1.8263    -2.1568 C.3     
  22 C22            5.2441    -4.2233    -5.0298 C.3     
  23 C23            6.3261    -3.4217    -5.7562 C.3     
  24 C24            6.4502    -3.9214    -7.1970 C.3     
  25 C25            6.8304    -5.4034    -7.1918 C.3     
  26 C26            5.7485    -6.2050    -6.4654 C.3     
  27 C27            5.6243    -5.7053    -5.0247 C.3     
  28 C28            3.9060    -4.0426    -5.7493 C.3     
  29 C29            5.1121    -3.7407    -7.9165 C.3     
  30 C30            4.0301    -4.5423    -7.1901 C.3     
  31 C31            4.4104    -6.0243    -7.1850 C.3     
  32 H32           -0.9605     1.9226     0.0170 H       
  33 H33           -0.9233    -0.5609     0.0082 H       
  34 H34            1.2282    -1.7389    -0.0187 H       
  35 H35            1.1156     3.1733     0.0091 H       
  36 H36            5.7392    -0.3889    -0.0544 H       
  37 H37            6.7544     4.1373    -0.0398 H       
  38 H38            4.5154    -2.4410     0.5360 H       
  39 H39            2.7413    -2.4834     0.3979 H       
  40 H40            5.0172    -4.2157    -0.9898 H       
  41 H41            3.2700    -4.5517    -0.9256 H       
  42 H42            4.3259    -5.5567    -2.9460 H       
  43 H43            3.1215    -4.3197    -3.3806 H       
  44 H44            5.6334    -1.7670    -4.1477 H       
  45 H45            3.8863    -2.1031    -4.0835 H       
  46 H46            4.5775    -0.7620    -2.1273 H       
  47 H47            5.7819    -1.9990    -1.6927 H       
  48 H48            6.0552    -2.3659    -5.7599 H       
  49 H49            7.2794    -3.5505    -5.2436 H       
  50 H50            7.2210    -3.3503    -7.7145 H       
  51 H51            6.9189    -5.7594    -8.2183 H       
  52 H52            7.7837    -5.5321    -6.6792 H       
  53 H53            6.0193    -7.2608    -6.4618 H       
  54 H54            6.5776    -5.8341    -4.5121 H       
  55 H55            4.8535    -6.2764    -4.5072 H       
  56 H56            3.1352    -4.6137    -5.2318 H       
  57 H57            3.6351    -2.9868    -5.7530 H       
  58 H58            4.8412    -2.6849    -7.9202 H       
  59 H59            5.2005    -4.0967    -8.9429 H       
  60 H60            3.0768    -4.4136    -7.7027 H       
  61 H61            4.4988    -6.3803    -8.2114 H       
  62 H62            3.6395    -6.5954    -6.6675 H       
@<TRIPOS>BOND
   1    1    2 1
   2    1    6 2
   3    1   32 1
   4    2    3 2
   5    2   33 1
   6    3    4 1
   7    3   34 1
   8    4    5 1
   9    4    7 2
  10    5    6 1
  11    5   10 am
  12    6   35 1
  13    7    8 1
  14    7   15 1
  15    8    9 2
  16    8   36 1
  17    9   10 1
  18    9   12 1
  19   10   11 2
  20   12   13 2
  21   12   14 1
  22   14   37 1
  23   15   16 1
  24   15   38 1
  25   15   39 1
  26   16   17 1
  27   16   21 1
  28   17   18 1
  29   17   40 1
  30   17   41 1
  31   18   19 1
  32   18   42 1
  33   18   43 1
  34   19   20 1
  35   19   22 1
  36   20   21 1
  37   20   44 1
  38   20   45 1
  39   21   46 1
  40   21   47 1
  41   22   23 1
  42   22   28 1
  43   22   27 1
  44   23   24 1
  45   23   48 1
  46   23   49 1
  47   24   25 1
  48   24   29 1
  49   24   50 1
  50   25   26 1
  51   25   51 1
  52   25   52 1
  53   26   27 1
  54   26   31 1
  55   26   53 1
  56   27   54 1
  57   27   55 1
  58   28   30 1
  59   28   56 1
  60   28   57 1
  61   29   30 1
  62   29   58 1
  63   29   59 1
  64   30   31 1
  65   30   60 1
  66   31   61 1
  67   31   62 1

#	End of record

