#	Name: ASD01884421
#	Creating user name:	WinNT
#	Creation time:	15. 06. 2019 19:48

#	Modifying user name:	WinNT
#	Modification time:	15. 06. 2019 19:48

#	Program:	/corina/corina34_cracker 3.40 0067  02.08.2006

@<TRIPOS>MOLECULE
ASD01884421
  36   38    0    0    0
SMALL
NO_CHARGES


@<TRIPOS>ATOM
   1 C1            -0.0164     1.3569     0.0095 C.2     
   2 C2             0.0021    -0.0041     0.0020 C.2     
   3 C3             1.2451    -0.6752    -0.0135 C.2     
   4 C4             2.4110     0.0555    -0.0207 C.2     
   5 N5             2.3715     1.4102    -0.0126 N.am    
   6 C6             1.1971     2.0672     0.0017 C.2     
   7 C7             1.2931    -2.1566    -0.0214 C.ar    
   8 C8             3.6243     2.1696    -0.0195 C.3     
   9 O9             1.1853     3.2874     0.0084 O.2     
  10 C10            4.0411     2.4381    -1.4426 C.ar    
  11 C11            3.6117     3.5850    -2.0838 C.ar    
  12 C12            3.9940     3.8313    -3.3892 C.ar    
  13 C13            4.8060     2.9309    -4.0532 C.ar    
  14 C14            5.2361     1.7845    -3.4117 C.ar    
  15 C15            4.8573     1.5403    -2.1048 C.ar    
  16 C16            0.8157    -2.8754     1.0753 C.ar    
  17 C17            1.8103    -2.8314    -1.1279 C.ar    
  18 C18            1.8554    -4.2068    -1.1366 C.ar    
  19 C19            1.3828    -4.9279    -0.0362 C.ar    
  20 C20            0.8596    -4.2508     1.0693 C.ar    
  21 C21            1.4287    -6.3592    -0.0441 C.1     
  22 N22            1.4652    -7.4946    -0.0503 N.1     
  23 H23           -0.9569     1.8877     0.0169 H       
  24 H24           -0.9216    -0.5637     0.0082 H       
  25 H25            3.3634    -0.4536    -0.0325 H       
  26 H26            3.4783     3.1161     0.5011 H       
  27 H27            4.4009     1.5939     0.4841 H       
  28 H28            2.9773     4.2884    -1.5651 H       
  29 H29            3.6580     4.7270    -3.8905 H       
  30 H30            5.1041     3.1230    -5.0734 H       
  31 H31            5.8702     1.0809    -3.9305 H       
  32 H32            5.1934     0.6447    -1.6036 H       
  33 H33            0.4119    -2.3520     1.9294 H       
  34 H34            2.1751    -2.2740    -1.9780 H       
  35 H35            2.2555    -4.7288    -1.9932 H       
  36 H36            0.4945    -4.8067     1.9202 H       
@<TRIPOS>BOND
   1    1    2 2
   2    1    6 1
   3    1   23 1
   4    2    3 1
   5    2   24 1
   6    3    4 2
   7    3    7 1
   8    4    5 1
   9    4   25 1
  10    5    6 am
  11    5    8 1
  12    6    9 2
  13    7   16 ar
  14    7   17 ar
  15    8   10 1
  16    8   26 1
  17    8   27 1
  18   10   11 ar
  19   10   15 ar
  20   11   12 ar
  21   11   28 1
  22   12   13 ar
  23   12   29 1
  24   13   14 ar
  25   13   30 1
  26   14   15 ar
  27   14   31 1
  28   15   32 1
  29   16   20 ar
  30   16   33 1
  31   17   18 ar
  32   17   34 1
  33   18   19 ar
  34   18   35 1
  35   19   20 ar
  36   19   21 1
  37   20   36 1
  38   21   22 3

#	End of record

