#	Name: ASD03081299
#	Creating user name:	WinNT
#	Creation time:	15. 06. 2019 20:27

#	Modifying user name:	WinNT
#	Modification time:	15. 06. 2019 20:27

#	Program:	/corina/corina34_cracker 3.40 0067  02.08.2006

@<TRIPOS>MOLECULE
ASD03081299
  30   32    0    0    0
SMALL
NO_CHARGES


@<TRIPOS>ATOM
   1 O1            -0.0162     1.3443     0.0094 O.3     
   2 C2             0.0021    -0.0041     0.0020 C.2     
   3 N3             1.2607    -0.3805    -0.0120 N.2     
   4 N4             2.0177     0.6598    -0.0137 N.2     
   5 C5             1.2725     1.7416    -0.0007 C.2     
   6 C6             1.7573     3.1373     0.0014 C.ar    
   7 C7             3.1273     3.4029    -0.0102 C.ar    
   8 C8             3.5740     4.7132    -0.0086 C.ar    
   9 C9             2.6605     5.7590     0.0045 C.ar    
  10 C10            1.3029     5.4977     0.0164 C.ar    
  11 C11            0.8465     4.1954     0.0091 C.ar    
  12 O12            4.9074     4.9762    -0.0194 O.3     
  13 C13            5.2975     6.3509    -0.0170 C.3     
  14 F14            4.8005     6.9747     1.1324 F       
  15 F15            6.6936     6.4395    -0.0291 F       
  16 F16            4.7801     6.9844    -1.1520 F       
  17 C17           -2.4678    -0.3632     0.0246 C.ar    
  18 C18           -1.1769    -0.8945     0.0089 C.ar    
  19 C19           -1.0185    -2.2856    -0.0006 C.ar    
  20 C20           -2.1550    -3.0751     0.0060 C.ar    
  21 C21           -3.3991    -2.4709     0.0216 C.ar    
  22 N22           -3.5184    -1.1569     0.0303 N.ar    
  23 H23            3.8368     2.5887    -0.0200 H       
  24 H24            3.0118     6.7802     0.0057 H       
  25 H25            0.5974     6.3153     0.0273 H       
  26 H26           -0.2147     3.9947     0.0139 H       
  27 H27           -2.6059     0.7079     0.0366 H       
  28 H28           -0.0347    -2.7310    -0.0131 H       
  29 H29           -2.0714    -4.1518    -0.0013 H       
  30 H30           -4.2876    -3.0848     0.0264 H       
@<TRIPOS>BOND
   1    1    2 1
   2    1    5 1
   3    2    3 2
   4    2   18 1
   5    3    4 1
   6    4    5 2
   7    5    6 1
   8    6    7 ar
   9    6   11 ar
  10    7    8 ar
  11    7   23 1
  12    8    9 ar
  13    8   12 1
  14    9   10 ar
  15    9   24 1
  16   10   11 ar
  17   10   25 1
  18   11   26 1
  19   12   13 1
  20   13   14 1
  21   13   15 1
  22   13   16 1
  23   17   18 ar
  24   17   22 ar
  25   17   27 1
  26   18   19 ar
  27   19   20 ar
  28   19   28 1
  29   20   21 ar
  30   20   29 1
  31   21   22 ar
  32   21   30 1

#	End of record

