#	Name: ASD08070190
#	Creating user name:	WinNT
#	Creation time:	15. 06. 2019 21:14

#	Modifying user name:	WinNT
#	Modification time:	15. 06. 2019 21:14

#	Program:	/corina/corina34_cracker 3.40 0067  02.08.2006

@<TRIPOS>MOLECULE
ASD08070190
  42   43    0    0    0
SMALL
NO_CHARGES


@<TRIPOS>ATOM
   1 C1            -0.0167     1.3780     0.0096 C.ar    
   2 C2             0.0021    -0.0041     0.0020 C.ar    
   3 C3             1.2116    -0.6834    -0.0132 C.ar    
   4 C4             2.4134     0.0380    -0.0209 C.ar    
   5 C5             2.3801     1.4357    -0.0130 C.ar    
   6 C6             1.1677     2.0947     0.0022 C.ar    
   7 C7             3.7052    -0.6731    -0.0366 C.2     
   8 N8             4.3064    -1.0039     1.1234 N.am    
   9 Cl9            3.8615     2.3407    -0.0218 Cl      
  10 O10            4.2279    -0.9609    -1.0961 O.2     
  11 C11            6.7283    -0.6967     0.9764 C.3     
  12 C12            5.5898    -1.7103     1.1077 C.3     
  13 C13            7.0951    -3.2346     2.3933 C.3     
  14 C14            5.7549    -2.4969     2.4097 C.3     
  15 Cl15          -1.4901    -0.8911     0.0121 Cl      
  16 O16            1.2311    -2.0401    -0.0202 O.3     
  17 C17            5.7182    -1.5321     3.5966 C.3     
  18 C18            1.2280    -2.6823    -1.2968 C.3     
  19 C19            8.0686    -1.4344     0.9601 C.3     
  20 C20            8.2337    -2.2210     2.2620 C.3     
  21 C21            7.2602    -4.0212     3.6953 C.3     
  22 H22           -0.9610     1.9019     0.0169 H       
  23 H23            1.1428     3.1744     0.0082 H       
  24 H24            3.8895    -0.7743     1.9685 H       
  25 H25            6.6107    -0.1363     0.0489 H       
  26 H26            6.7022    -0.0094     1.8220 H       
  27 H27            5.6159    -2.3977     0.2622 H       
  28 H28            7.1213    -3.9220     1.5478 H       
  29 H29            4.9438    -3.2190     2.5032 H       
  30 H30            6.5293    -0.8100     3.5030 H       
  31 H31            4.7633    -1.0065     3.6082 H       
  32 H32            5.8358    -2.0925     4.5241 H       
  33 H33            0.3285    -2.3995    -1.8436 H       
  34 H34            2.1082    -2.3738    -1.8609 H       
  35 H35            1.2450    -3.7635    -1.1596 H       
  36 H36            8.0947    -2.1218     0.1146 H       
  37 H37            8.8797    -0.7123     0.8666 H       
  38 H38            8.2075    -1.5337     3.1076 H       
  39 H39            9.1885    -2.7466     2.2504 H       
  40 H40            6.4491    -4.7433     3.7888 H       
  41 H41            8.2151    -4.5468     3.6836 H       
  42 H42            7.2341    -3.3339     4.5408 H       
@<TRIPOS>BOND
   1    1    2 ar
   2    1    6 ar
   3    1   22 1
   4    2    3 ar
   5    2   15 1
   6    3    4 ar
   7    3   16 1
   8    4    5 ar
   9    4    7 1
  10    5    6 ar
  11    5    9 1
  12    6   23 1
  13    7    8 am
  14    7   10 2
  15    8   12 1
  16    8   24 1
  17   11   12 1
  18   11   19 1
  19   11   25 1
  20   11   26 1
  21   12   14 1
  22   12   27 1
  23   13   14 1
  24   13   21 1
  25   13   20 1
  26   13   28 1
  27   14   17 1
  28   14   29 1
  29   16   18 1
  30   17   30 1
  31   17   31 1
  32   17   32 1
  33   18   33 1
  34   18   34 1
  35   18   35 1
  36   19   20 1
  37   19   36 1
  38   19   37 1
  39   20   38 1
  40   20   39 1
  41   21   40 1
  42   21   41 1
  43   21   42 1

#	End of record

