#	Name: ASD01918192
#	Creating user name:	WinNT
#	Creation time:	15. 06. 2019 20:11

#	Modifying user name:	WinNT
#	Modification time:	15. 06. 2019 20:11

#	Program:	/corina/corina34_cracker 3.40 0067  02.08.2006

@<TRIPOS>MOLECULE
ASD01918192
  40   42    0    0    0
SMALL
NO_CHARGES


@<TRIPOS>ATOM
   1 N1             0.0425     1.3148     0.1322 N.ar    
   2 C2             0.0697    -0.0011     0.1439 C.ar    
   3 C3             1.2715    -0.6878     0.1652 C.ar    
   4 C4             2.4628     0.0236     0.1743 C.ar    
   5 C5             2.4071     1.4065     0.1617 C.ar    
   6 C6             1.1600     2.0345     0.1403 C.ar    
   7 N7             1.0880     3.4000     0.1271 N.2     
   8 N8            -0.0615     3.9851     0.1069 N.2     
   9 C9            -0.1333     5.3466     0.0937 C.ar    
  10 C10           -1.4469     7.3620     0.0649 C.ar    
  11 C11           -1.3795     5.9829     0.0777 C.ar    
  12 C12            1.0391     6.1109     0.1022 C.ar    
  13 C13            0.9648     7.4859     0.0898 C.ar    
  14 C14           -0.2733     8.1182     0.0685 C.ar    
  15 O15           -2.6561     7.9835     0.0497 O.3     
  16 C16           -3.8152     7.1477     0.0478 C.3     
  17 N17           -0.3432     9.5123     0.0551 N.am    
  18 C18            0.6799    10.2335    -0.4445 C.2     
  19 O19            1.6922     9.6743    -0.8180 O.2     
  20 C20            0.5705    11.7075    -0.5384 C.ar    
  21 C21            1.6201    12.4747    -1.0536 C.ar    
  22 C22           -0.5875    12.3703    -0.1197 C.ar    
  23 C23           -0.6469    13.7463    -0.2256 C.ar    
  24 C24            1.4753    13.8467    -1.1234 C.ar    
  25 N25            0.3679    14.4322    -0.7128 N.ar    
  26 H26           -0.8587    -0.5529     0.1371 H       
  27 H27            1.2818    -1.7677     0.1750 H       
  28 H28            3.4125    -0.4904     0.1913 H       
  29 H29            3.3150     1.9914     0.1686 H       
  30 H30           -2.2866     5.3967     0.0749 H       
  31 H31            2.0021     5.6223     0.1187 H       
  32 H32            1.8703     8.0744     0.0971 H       
  33 H33           -4.7109     7.7686     0.0351 H       
  34 H34           -3.8022     6.5105    -0.8365 H       
  35 H35           -3.8165     6.5263     0.9433 H       
  36 H36           -1.1280     9.9620     0.4054 H       
  37 H37            2.5303    12.0016    -1.3915 H       
  38 H38           -1.4229    11.8147     0.2800 H       
  39 H39           -1.5370    14.2673     0.0947 H       
  40 H40            2.2804    14.4478    -1.5194 H       
@<TRIPOS>BOND
   1    1    2 ar
   2    1    6 ar
   3    2    3 ar
   4    2   26 1
   5    3    4 ar
   6    3   27 1
   7    4    5 ar
   8    4   28 1
   9    5    6 ar
  10    5   29 1
  11    6    7 1
  12    7    8 2
  13    8    9 1
  14    9   12 ar
  15    9   11 ar
  16   10   11 ar
  17   10   14 ar
  18   10   15 1
  19   11   30 1
  20   12   13 ar
  21   12   31 1
  22   13   14 ar
  23   13   32 1
  24   14   17 1
  25   15   16 1
  26   16   33 1
  27   16   34 1
  28   16   35 1
  29   17   18 am
  30   17   36 1
  31   18   19 2
  32   18   20 1
  33   20   21 ar
  34   20   22 ar
  35   21   24 ar
  36   21   37 1
  37   22   23 ar
  38   22   38 1
  39   23   25 ar
  40   23   39 1
  41   24   25 ar
  42   24   40 1

#	End of record

