#	Name: ASD01560025
#	Creating user name:	WinNT
#	Creation time:	15. 06. 2019 19:22

#	Modifying user name:	WinNT
#	Modification time:	15. 06. 2019 19:22

#	Program:	/corina/corina34_cracker 3.40 0067  02.08.2006

@<TRIPOS>MOLECULE
ASD01560025
  31   33    0    0    0
SMALL
NO_CHARGES


@<TRIPOS>ATOM
   1 O1             0.0021    -0.0041     0.0020 O.2     
   2 C2            -0.0144     1.2117     0.0087 C.2     
   3 N3             1.1471     1.8906     0.0013 N.am    
   4 C4             1.1546     3.2600     0.0090 C.2     
   5 C5             2.4615     4.0103     0.0005 C.3     
   6 S6             3.2207     3.9182     1.6411 S.3     
   7 C7             4.6879     4.8501     1.3520 C.2     
   8 N8             5.5890     5.0384     2.3716 N.am    
   9 C9             6.7142     5.7505     2.1579 C.2     
  10 O10            7.5124     5.9178     3.0594 O.2     
  11 N11            6.9485     6.2750     0.9391 N.am    
  12 C12            6.0400     6.0784    -0.0697 C.2     
  13 N13            4.9162     5.3564     0.1602 N.2     
  14 C14            6.5325     6.7193    -1.1878 C.2     
  15 C15            7.7494     7.3036    -0.8373 C.2     
  16 N16            7.9981     7.0420     0.4216 N.2     
  17 C17            8.6339     8.1053    -1.7572 C.3     
  18 C18           -0.0152     3.9348     0.0238 C.2     
  19 C19           -1.2304     3.2069     0.0310 C.2     
  20 O20           -2.2979     3.7930     0.0440 O.2     
  21 N21           -1.1944     1.8590     0.0179 N.am    
  22 Cl22          -0.0294     5.6707     0.0344 Cl      
  23 H23            1.9871     1.4056    -0.0094 H       
  24 H24            3.1313     3.5651    -0.7352 H       
  25 H25            2.2800     5.0535    -0.2577 H       
  26 H26            5.4155     4.6586     3.2472 H       
  27 H27            6.0613     6.7606    -2.1587 H       
  28 H28            8.3552     9.1577    -1.7033 H       
  29 H29            9.6742     7.9889    -1.4535 H       
  30 H30            8.5120     7.7491    -2.7801 H       
  31 H31           -2.0224     1.3537     0.0227 H       
@<TRIPOS>BOND
   1    1    2 2
   2    2    3 am
   3    2   21 am
   4    3    4 1
   5    3   23 1
   6    4    5 1
   7    4   18 2
   8    5    6 1
   9    5   24 1
  10    5   25 1
  11    6    7 1
  12    7    8 1
  13    7   13 2
  14    8    9 am
  15    8   26 1
  16    9   10 2
  17    9   11 am
  18   11   12 1
  19   11   16 1
  20   12   13 1
  21   12   14 2
  22   14   15 1
  23   14   27 1
  24   15   16 2
  25   15   17 1
  26   17   28 1
  27   17   29 1
  28   17   30 1
  29   18   19 1
  30   18   22 1
  31   19   20 2
  32   19   21 am
  33   21   31 1

#	End of record

