#	Name: ASD01008002
#	Creating user name:	WinNT
#	Creation time:	15. 06. 2019 18:55

#	Modifying user name:	WinNT
#	Modification time:	15. 06. 2019 18:55

#	Program:	/corina/corina34_cracker 3.40 0067  02.08.2006

@<TRIPOS>MOLECULE
ASD01008002
  47   49    0    0    0
SMALL
NO_CHARGES


@<TRIPOS>ATOM
   1 C1            -0.6280     1.6536     0.2214 C.2     
   2 C2            -0.8826     0.1686     0.1912 C.3     
   3 C3            -0.5735    -0.4299     1.5649 C.3     
   4 O4             0.3999     2.0996    -0.2307 O.2     
   5 O5            -1.5456     2.4813     0.7454 O.3     
   6 S6            -0.8800    -2.2175     1.5285 S.3     
   7 C7            -0.3350    -2.7584     3.1720 C.3     
   8 C8             1.0889    -2.3198     3.3986 C.ar    
   9 C9             2.1154    -2.9083     2.6839 C.ar    
  10 C10            3.4215    -2.5060     2.8919 C.ar    
  11 C11            3.7010    -1.5150     3.8142 C.ar    
  12 C12            2.6743    -0.9259     4.5282 C.ar    
  13 C13            1.3678    -1.3252     4.3172 C.ar    
  14 C14           -1.2232    -2.1442     4.2232 C.ar    
  15 C15           -0.9175    -2.2985     5.5625 C.ar    
  16 C16           -1.7323    -1.7352     6.5267 C.ar    
  17 C17           -2.8524    -1.0172     6.1516 C.ar    
  18 C18           -3.1575    -0.8621     4.8123 C.ar    
  19 C19           -2.3404    -1.4218     3.8479 C.ar    
  20 C20           -0.4179    -4.2606     3.2595 C.ar    
  21 C21           -1.3952    -4.9407     2.5572 C.ar    
  22 C22           -1.4717    -6.3184     2.6370 C.ar    
  23 C23           -0.5700    -7.0168     3.4200 C.ar    
  24 C24            0.4080    -6.3356     4.1227 C.ar    
  25 C25            0.4870    -4.9584     4.0376 C.ar    
  26 Cl26          -0.6658    -8.7472     3.5213 Cl      
  27 N27           -0.0195    -0.4557    -0.8204 N.3     
  28 H28           -1.9274    -0.0160    -0.0588 H       
  29 H29            0.4712    -0.2454     1.8149 H       
  30 H30           -1.2140     0.0333     2.3155 H       
  31 H31           -1.3376     3.4257     0.7426 H       
  32 H32            1.8971    -3.6825     1.9634 H       
  33 H33            4.2236    -2.9662     2.3340 H       
  34 H34            4.7214    -1.2012     3.9772 H       
  35 H35            2.8927    -0.1519     5.2491 H       
  36 H36            0.5653    -0.8624     4.8724 H       
  37 H37           -0.0424    -2.8595     5.8555 H       
  38 H38           -1.4939    -1.8563     7.5730 H       
  39 H39           -3.4893    -0.5776     6.9049 H       
  40 H40           -4.0328    -0.3014     4.5193 H       
  41 H41           -2.5767    -1.2975     2.8015 H       
  42 H42           -2.0993    -4.3954     1.9462 H       
  43 H43           -2.2356    -6.8496     2.0885 H       
  44 H44            1.1122    -6.8803     4.7341 H       
  45 H45            1.2531    -4.4268     4.5826 H       
  46 H46           -0.2485    -0.1243    -1.7455 H       
  47 H47            0.9550    -0.2987    -0.6109 H       
@<TRIPOS>BOND
   1    1    2 1
   2    1    4 2
   3    1    5 1
   4    2    3 1
   5    2   27 1
   6    2   28 1
   7    3    6 1
   8    3   29 1
   9    3   30 1
  10    5   31 1
  11    6    7 1
  12    7    8 1
  13    7   14 1
  14    7   20 1
  15    8    9 ar
  16    8   13 ar
  17    9   10 ar
  18    9   32 1
  19   10   11 ar
  20   10   33 1
  21   11   12 ar
  22   11   34 1
  23   12   13 ar
  24   12   35 1
  25   13   36 1
  26   14   15 ar
  27   14   19 ar
  28   15   16 ar
  29   15   37 1
  30   16   17 ar
  31   16   38 1
  32   17   18 ar
  33   17   39 1
  34   18   19 ar
  35   18   40 1
  36   19   41 1
  37   20   21 ar
  38   20   25 ar
  39   21   22 ar
  40   21   42 1
  41   22   23 ar
  42   22   43 1
  43   23   24 ar
  44   23   26 1
  45   24   25 ar
  46   24   44 1
  47   25   45 1
  48   27   46 1
  49   27   47 1

#	End of record

