#	Name: ASD01908160
#	Creating user name:	WinNT
#	Creation time:	15. 06. 2019 19:54

#	Modifying user name:	WinNT
#	Modification time:	15. 06. 2019 19:54

#	Program:	/corina/corina34_cracker 3.40 0067  02.08.2006

@<TRIPOS>MOLECULE
ASD01908160
  24   24    0    0    0
SMALL
NO_CHARGES


@<TRIPOS>ATOM
   1 N1            -0.0169     1.3951     0.0097 N.pl3   
   2 N2             0.0021    -0.0041     0.0020 N.2     
   3 C3             1.2415    -0.4101    -0.0120 C.2     
   4 C4             2.0753     0.7311    -0.0138 C.2     
   5 C5             1.2499     1.8386    -0.0000 C.2     
   6 C6             3.5481     0.7382    -0.0271 C.2     
   7 O7             4.1607    -0.3113    -0.0379 O.2     
   8 O8             4.2163     1.9084    -0.0273 O.3     
   9 C9             1.7035    -1.8445    -0.0237 C.3     
  10 C10            1.8464    -2.3225    -1.4700 C.3     
  11 C11            5.6666     1.8394    -0.0408 C.3     
  12 C12            6.2446     3.2560    -0.0389 C.3     
  13 H13           -0.8118     1.9509     0.0166 H       
  14 H14            1.5658     2.8713     0.0025 H       
  15 H15            2.6667    -1.9201     0.4809 H       
  16 H16            0.9725    -2.4659     0.4938 H       
  17 H17            0.8832    -2.2469    -1.9746 H       
  18 H18            2.5774    -1.7012    -1.9875 H       
  19 H19            2.1806    -3.3600    -1.4785 H       
  20 H20            6.0131     1.3044     0.8434 H       
  21 H21            5.9970     1.3133    -0.9364 H       
  22 H22            5.8981     3.7910    -0.9231 H       
  23 H23            5.9142     3.7820     0.8567 H       
  24 H24            7.3334     3.2042    -0.0490 H       
@<TRIPOS>BOND
   1    1    2 1
   2    1    5 1
   3    1   13 1
   4    2    3 2
   5    3    4 1
   6    3    9 1
   7    4    5 2
   8    4    6 1
   9    5   14 1
  10    6    7 2
  11    6    8 1
  12    8   11 1
  13    9   10 1
  14    9   15 1
  15    9   16 1
  16   10   17 1
  17   10   18 1
  18   10   19 1
  19   11   12 1
  20   11   20 1
  21   11   21 1
  22   12   22 1
  23   12   23 1
  24   12   24 1

#	End of record

