#	Name: ASD03240580
#	Creating user name:	WinNT
#	Creation time:	15. 06. 2019 20:35

#	Modifying user name:	WinNT
#	Modification time:	15. 06. 2019 20:35

#	Program:	/corina/corina34_cracker 3.40 0067  02.08.2006

@<TRIPOS>MOLECULE
ASD03240580
  68   74    0    0    0
SMALL
NO_CHARGES


@<TRIPOS>ATOM
   1 C1             1.4564     1.2776     2.0767 C.ar    
   2 C2             1.6911    -0.0529     2.3562 C.ar    
   3 N3             2.9192    -0.5344     2.3877 N.ar    
   4 C4             3.9778     0.2301     2.1554 C.ar    
   5 C5             3.8136     1.5804     1.8529 C.ar    
   6 C6             2.5328     2.1163     1.8187 C.ar    
   7 N7             5.2496    -0.3299     2.2387 N.pl3   
   8 C8             6.1599     0.1146     3.1938 C.ar    
   9 C9             6.6142     1.4377     3.1816 C.ar    
  10 C10            6.1525     2.3728     2.1324 C.2     
  11 N11            4.9108     2.4046     1.5651 N.pl3   
  12 C12            6.6209    -0.7591     4.1695 C.ar    
  13 C13            7.5140    -0.3180     5.1272 C.ar    
  14 C14            7.9549     0.9942     5.1234 C.ar    
  15 C15            7.5110     1.8737     4.1567 C.ar    
  16 N16            6.8934     3.3198     1.5925 N.2     
  17 C17            6.1793     3.9839     0.6707 C.2     
  18 C18            4.9142     3.4219     0.6307 C.2     
  19 C19            3.7929     3.8292    -0.2376 C.ar    
  20 C20            3.4848     5.1825    -0.3976 C.ar    
  21 C21            3.0379     2.8636    -0.9082 C.ar    
  22 C22            1.9912     3.2517    -1.7182 C.ar    
  23 C23            1.6882     4.5937    -1.8675 C.ar    
  24 C24            2.4353     5.5558    -1.2109 C.ar    
  25 C25            6.6582     5.1159    -0.1559 C.ar    
  26 C26            0.5430     5.0096    -2.7543 C.3     
  27 N27           -0.4167     3.9235    -2.9938 N.3     
  28 C28           -0.1168     6.3320    -2.3289 C.3     
  29 C29           -0.2104     6.6755    -3.8249 C.3     
  30 C30            0.9879     5.7324    -4.0367 C.3     
  31 C31            6.2075     5.2628    -1.4681 C.ar    
  32 C32            7.5562     6.0404     0.3781 C.ar    
  33 C33            7.9999     7.0932    -0.3932 C.ar    
  34 C34            7.5529     7.2345    -1.7020 C.ar    
  35 C35            6.6544     6.3174    -2.2350 C.ar    
  36 N36            8.0036     8.3021    -2.4809 N.am    
  37 S37            8.5125     8.0369    -4.0343 S.o2    
  38 C38            9.9255     6.9124    -3.8620 C.3     
  39 O39            7.4190     7.3725    -4.6526 O.2     
  40 O40            8.9434     9.3138    -4.4848 O.2     
  41 F41            9.4866     5.6873    -3.3486 F       
  42 F42           10.5149     6.7089    -5.1144 F       
  43 F43           10.8646     7.4739    -2.9903 F       
  44 H44            0.4471     1.6614     2.0545 H       
  45 H45            0.8570    -0.7103     2.5525 H       
  46 H46            2.3773     3.1616     1.5961 H       
  47 H47            5.5040    -1.0370     1.6254 H       
  48 H48            6.2810    -1.7842     4.1801 H       
  49 H49            7.8701    -1.0013     5.8839 H       
  50 H50            8.6487     1.3309     5.8795 H       
  51 H51            7.8564     2.8970     4.1559 H       
  52 H52            4.0668     5.9345     0.1145 H       
  53 H53            3.2735     1.8160    -0.7929 H       
  54 H54            1.4069     2.5065    -2.2375 H       
  55 H55            2.1931     6.6014    -1.3320 H       
  56 H56            0.0551     3.0837    -3.2941 H       
  57 H57           -0.9779     3.7494    -2.1735 H       
  58 H58           -1.0869     6.2015    -1.8494 H       
  59 H59            0.5474     6.9914    -1.7702 H       
  60 H60           -1.1285     6.3255    -4.2967 H       
  61 H61            0.0098     7.7195    -4.0478 H       
  62 H62            1.9547     6.2274    -3.9451 H       
  63 H63            0.9082     5.1201    -4.9349 H       
  64 H64            5.5094     4.5506    -1.8827 H       
  65 H65            7.9032     5.9315     1.3950 H       
  66 H66            8.6951     7.8092     0.0198 H       
  67 H67            6.3090     6.4292    -3.2522 H       
  68 H68            8.0187     9.1992    -2.1122 H       
@<TRIPOS>BOND
   1    1    2 ar
   2    1    6 ar
   3    1   44 1
   4    2    3 ar
   5    2   45 1
   6    3    4 ar
   7    4    5 ar
   8    4    7 1
   9    5    6 ar
  10    5   11 1
  11    6   46 1
  12    7    8 1
  13    7   47 1
  14    8    9 ar
  15    8   12 ar
  16    9   10 1
  17    9   15 ar
  18   10   11 1
  19   10   16 2
  20   11   18 1
  21   12   13 ar
  22   12   48 1
  23   13   14 ar
  24   13   49 1
  25   14   15 ar
  26   14   50 1
  27   15   51 1
  28   16   17 1
  29   17   18 2
  30   17   25 1
  31   18   19 1
  32   19   20 ar
  33   19   21 ar
  34   20   24 ar
  35   20   52 1
  36   21   22 ar
  37   21   53 1
  38   22   23 ar
  39   22   54 1
  40   23   24 ar
  41   23   26 1
  42   24   55 1
  43   25   32 ar
  44   25   31 ar
  45   26   27 1
  46   26   28 1
  47   26   30 1
  48   27   56 1
  49   27   57 1
  50   28   29 1
  51   28   58 1
  52   28   59 1
  53   29   30 1
  54   29   60 1
  55   29   61 1
  56   30   62 1
  57   30   63 1
  58   31   35 ar
  59   31   64 1
  60   32   33 ar
  61   32   65 1
  62   33   34 ar
  63   33   66 1
  64   34   35 ar
  65   34   36 1
  66   35   67 1
  67   36   37 am
  68   36   68 1
  69   37   38 1
  70   37   39 2
  71   37   40 2
  72   38   41 1
  73   38   42 1
  74   38   43 1

#	End of record

