#	Name: ASD03330187
#	Creating user name:	WinNT
#	Creation time:	15. 06. 2019 20:36

#	Modifying user name:	WinNT
#	Modification time:	15. 06. 2019 20:36

#	Program:	/corina/corina34_cracker 3.40 0067  02.08.2006

@<TRIPOS>MOLECULE
ASD03330187
  61   64    0    0    0
SMALL
NO_CHARGES


@<TRIPOS>ATOM
   1 C1            -0.6018     0.6193    -2.9966 C.ar    
   2 C2            -0.3278    -0.1320    -1.8600 C.ar    
   3 C3            -1.3684    -0.6422    -1.0996 C.ar    
   4 C4            -2.6837    -0.4030    -1.4730 C.ar    
   5 C5            -2.9582     0.3470    -2.6083 C.ar    
   6 C6            -1.9190     0.8628    -3.3667 C.ar    
   7 N7            -3.7348    -0.9191    -0.7037 N.am    
   8 C8            -4.8905    -0.2341    -0.5959 C.2     
   9 N9            -5.9383    -0.7783     0.0541 N.am    
  10 O10           -4.9879     0.8748    -1.0850 O.2     
  11 C11           -7.1008    -0.0268     0.2603 C.ar    
  12 C12           -8.3385    -0.6513     0.2648 C.ar    
  13 C13           -9.4926     0.1006     0.4709 C.ar    
  14 C14           -9.3967     1.4765     0.6714 C.ar    
  15 C15           -8.1602     2.0910     0.6651 C.ar    
  16 C16           -7.0143     1.3448     0.4664 C.ar    
  17 C17          -10.8203    -0.5611     0.4764 C.ar    
  18 N18          -10.9023    -1.8722     0.2840 N.ar    
  19 C19          -11.9672     0.1974     0.6888 C.ar    
  20 C20          -13.2033    -0.4306     0.6925 C.ar    
  21 C21          -13.2524    -1.7979     0.4835 C.ar    
  22 C22          -12.0669    -2.4993     0.2822 C.ar    
  23 N23          -12.1079    -3.8725     0.0713 N.3     
  24 C24          -10.7517    -4.4186    -0.1191 C.3     
  25 C25          -10.5479    -5.5178     0.9448 C.3     
  26 C26          -12.0000    -5.9241     1.3100 C.3     
  27 C27          -12.7383    -4.5657     1.2149 C.3     
  28 O28            0.4198     1.1213    -3.7439 O.3     
  29 C29            0.9135     0.2992    -4.8033 C.3     
  30 O30            0.9607    -0.3670    -1.4942 O.3     
  31 C31            1.1684    -1.1469    -0.3150 C.3     
  32 O32           -2.1883     1.5975    -4.4790 O.3     
  33 C33           -3.5647     1.7980    -4.8066 C.3     
  34 H34           -1.1557    -1.2264    -0.2165 H       
  35 H35           -3.9819     0.5320    -2.8985 H       
  36 H36           -3.6308    -1.7695    -0.2488 H       
  37 H37           -5.8867    -1.6908     0.3791 H       
  38 H38           -8.4076    -1.7177     0.1085 H       
  39 H39          -10.2898     2.0623     0.8315 H       
  40 H40           -8.0881     3.1573     0.8204 H       
  41 H41           -6.0495     1.8302     0.4624 H       
  42 H42          -11.8954     1.2630     0.8492 H       
  43 H43          -14.1088     0.1352     0.8554 H       
  44 H44          -14.2001    -2.3159     0.4807 H       
  45 H45          -10.6612    -4.8473    -1.1172 H       
  46 H46          -10.0119    -3.6297     0.0165 H       
  47 H47          -10.0048    -6.3645     0.5250 H       
  48 H48          -10.0285    -5.1192     1.8162 H       
  49 H49          -12.3992    -6.6369     0.5884 H       
  50 H50          -12.0502    -6.3259     2.3220 H       
  51 H51          -12.5971    -3.9921     2.1310 H       
  52 H52          -13.8000    -4.7233     1.0248 H       
  53 H53            1.7234     0.8166    -5.3175 H       
  54 H54            1.2853    -0.6392    -4.3918 H       
  55 H55            0.1085     0.0930    -5.5086 H       
  56 H56            0.7171    -2.1305    -0.4457 H       
  57 H57            2.2380    -1.2587    -0.1370 H       
  58 H58            0.7086    -0.6466     0.5373 H       
  59 H59           -4.0436     0.8327    -4.9702 H       
  60 H60           -4.0617     2.3158    -3.9862 H       
  61 H61           -3.6386     2.3986    -5.7132 H       
@<TRIPOS>BOND
   1    1    2 ar
   2    1   28 1
   3    1    6 ar
   4    2    3 ar
   5    2   30 1
   6    3    4 ar
   7    3   34 1
   8    4    5 ar
   9    4    7 1
  10    5    6 ar
  11    5   35 1
  12    6   32 1
  13    7    8 am
  14    7   36 1
  15    8    9 am
  16    8   10 2
  17    9   11 1
  18    9   37 1
  19   11   12 ar
  20   11   16 ar
  21   12   13 ar
  22   12   38 1
  23   13   14 ar
  24   13   17 1
  25   14   15 ar
  26   14   39 1
  27   15   16 ar
  28   15   40 1
  29   16   41 1
  30   17   18 ar
  31   17   19 ar
  32   18   22 ar
  33   19   20 ar
  34   19   42 1
  35   20   21 ar
  36   20   43 1
  37   21   22 ar
  38   21   44 1
  39   22   23 1
  40   23   24 1
  41   23   27 1
  42   24   25 1
  43   24   45 1
  44   24   46 1
  45   25   26 1
  46   25   47 1
  47   25   48 1
  48   26   27 1
  49   26   49 1
  50   26   50 1
  51   27   51 1
  52   27   52 1
  53   28   29 1
  54   29   53 1
  55   29   54 1
  56   29   55 1
  57   30   31 1
  58   31   56 1
  59   31   57 1
  60   31   58 1
  61   32   33 1
  62   33   59 1
  63   33   60 1
  64   33   61 1

#	End of record

