#	Name: ASD03092425
#	Creating user name:	WinNT
#	Creation time:	15. 06. 2019 20:32

#	Modifying user name:	WinNT
#	Modification time:	15. 06. 2019 20:32

#	Program:	/corina/corina34_cracker 3.40 0067  02.08.2006

@<TRIPOS>MOLECULE
ASD03092425
  62   65    0    0    0
SMALL
NO_CHARGES


@<TRIPOS>ATOM
   1 N1             0.9009     1.0919    -0.3481 N.pl3   
   2 N2             0.7515    -0.1825    -0.2854 N.2     
   3 C3             1.9283    -0.7744    -0.2404 C.2     
   4 C4             2.9062     0.2477    -0.2798 C.2     
   5 C5             2.2136     1.4087    -0.3474 C.2     
   6 C6             2.1788    -2.2280    -0.1631 C.2     
   7 O7             3.3193    -2.6472    -0.1269 O.2     
   8 N8             1.1428    -3.0896    -0.1327 N.am    
   9 C9             2.7984     2.7962    -0.4108 C.3     
  10 C10           -0.1950     2.0617    -0.4169 C.3     
  11 C11            1.3912    -4.5314    -0.0560 C.3     
  12 S12           -2.0250    -6.4781     0.6773 S.3     
  13 C13           -1.7068    -6.2151    -0.9816 C.2     
  14 N14           -0.5834    -5.5797    -1.1298 N.2     
  15 C15            0.0763    -5.2673    -0.0356 C.2     
  16 C16           -0.5242    -5.6615     1.1068 C.2     
  17 C17            0.5116    -6.2499     4.6684 C.ar    
  18 C18            0.0264    -6.4958     3.4023 C.ar    
  19 C19           -0.0139    -5.4461     2.4749 C.ar    
  20 C20            0.4445    -4.1862     2.8827 C.ar    
  21 C21            0.9129    -4.0303     4.1692 C.ar    
  22 N22            0.9337    -5.0469     5.0113 N.ar    
  23 C23            1.4088    -2.6809     4.6211 C.3     
  24 C24            0.5547    -7.3681     5.6778 C.3     
  25 N25           -2.5278    -6.6212    -2.0178 N.3     
  26 C26           -3.7195    -7.3133    -1.5057 C.3     
  27 C27           -4.5683    -7.7968    -2.6845 C.3     
  28 O28           -4.9046    -6.6805    -3.5128 O.3     
  29 C29           -3.7676    -5.9836    -4.0294 C.3     
  30 C30           -2.9107    -5.4817    -2.8642 C.3     
  31 C31           -4.2359    -4.7933    -4.8689 C.3     
  32 C32           -5.8494    -8.4473    -2.1587 C.3     
  33 H33            3.9792     0.1268    -0.2596 H       
  34 H34            0.2328    -2.7551    -0.1615 H       
  35 H35            2.9263     3.1831     0.6002 H       
  36 H36            3.7662     2.7600    -0.9111 H       
  37 H37            2.1259     3.4489    -0.9673 H       
  38 H38           -0.4843     2.3551     0.5922 H       
  39 H39            0.1324     2.9413    -0.9712 H       
  40 H40           -1.0484     1.6102    -0.9228 H       
  41 H41            1.9707    -4.8469    -0.9236 H       
  42 H42            1.9476    -4.7563     0.8539 H       
  43 H43           -0.3169    -7.4826     3.1287 H       
  44 H44            0.4311    -3.3502     2.1990 H       
  45 H45            0.5809    -2.1130     5.0457 H       
  46 H46            2.1839    -2.8128     5.3761 H       
  47 H47            1.8203    -2.1408     3.7684 H       
  48 H48            1.5116    -7.8852     5.6065 H       
  49 H49            0.4376    -6.9572     6.6805 H       
  50 H50           -0.2538    -8.0708     5.4764 H       
  51 H51           -3.4129    -8.1682    -0.9030 H       
  52 H52           -4.3042    -6.6266    -0.8936 H       
  53 H53           -4.0023    -8.5243    -3.2663 H       
  54 H54           -3.1783    -6.6584    -4.6503 H       
  55 H55           -3.4825    -4.7658    -2.2738 H       
  56 H56           -2.0138    -4.9997    -3.2531 H       
  57 H57           -4.8234    -4.1184    -4.2464 H       
  58 H58           -3.3689    -4.2626    -5.2623 H       
  59 H59           -4.8491    -5.1510    -5.6961 H       
  60 H60           -6.4154    -7.7183    -1.5788 H       
  61 H61           -6.4533    -8.7913    -2.9985 H       
  62 H62           -5.5923    -9.2956    -1.5244 H       
@<TRIPOS>BOND
   1    1    2 1
   2    1    5 1
   3    1   10 1
   4    2    3 2
   5    3    4 1
   6    3    6 1
   7    4    5 2
   8    4   33 1
   9    5    9 1
  10    6    7 2
  11    6    8 am
  12    8   11 1
  13    8   34 1
  14    9   35 1
  15    9   36 1
  16    9   37 1
  17   10   38 1
  18   10   39 1
  19   10   40 1
  20   11   15 1
  21   11   41 1
  22   11   42 1
  23   12   13 1
  24   12   16 1
  25   13   14 2
  26   13   25 1
  27   14   15 1
  28   15   16 2
  29   16   19 1
  30   17   18 ar
  31   17   22 ar
  32   17   24 1
  33   18   19 ar
  34   18   43 1
  35   19   20 ar
  36   20   21 ar
  37   20   44 1
  38   21   22 ar
  39   21   23 1
  40   23   45 1
  41   23   46 1
  42   23   47 1
  43   24   48 1
  44   24   49 1
  45   24   50 1
  46   25   26 1
  47   25   30 1
  48   26   27 1
  49   26   51 1
  50   26   52 1
  51   27   28 1
  52   27   32 1
  53   27   53 1
  54   28   29 1
  55   29   30 1
  56   29   31 1
  57   29   54 1
  58   30   55 1
  59   30   56 1
  60   31   57 1
  61   31   58 1
  62   31   59 1
  63   32   60 1
  64   32   61 1
  65   32   62 1

#	End of record

