#	Name: ASD01814005
#	Creating user name:	WinNT
#	Creation time:	15. 06. 2019 19:31

#	Modifying user name:	WinNT
#	Modification time:	15. 06. 2019 19:31

#	Program:	/corina/corina34_cracker 3.40 0067  02.08.2006

@<TRIPOS>MOLECULE
ASD01814005
  57   62    0    0    0
SMALL
NO_CHARGES


@<TRIPOS>ATOM
   1 C1             0.7215     1.6291     0.1388 C.ar    
   2 C2             0.8114     0.2475     0.2062 C.ar    
   3 C3             2.0235    -0.3891     0.0451 C.ar    
   4 C4             3.1758     0.3553    -0.1889 C.ar    
   5 C5             3.0851     1.7564    -0.2579 C.ar    
   6 C6             1.8508     2.3894    -0.0923 C.ar    
   7 N7             4.3929    -0.2710    -0.3510 N.pl3   
   8 C8             5.5298     0.4000    -0.5772 C.2     
   9 C9             5.5660     1.7767    -0.6655 C.2     
  10 C10            4.3127     2.5328    -0.5062 C.2     
  11 F11            1.7625     3.7359    -0.1584 F       
  12 O12            4.2916     3.7492    -0.5759 O.2     
  13 C13            6.8342     2.4764    -0.9139 C.2     
  14 O14            6.8566     3.8216    -0.9981 O.3     
  15 O15            7.8631     1.8421    -1.0435 O.2     
  16 C16            4.4453    -1.7329    -0.2721 C.3     
  17 C17            4.2337    -2.3180    -1.6447 C.ar    
  18 C18            5.3188    -2.5541    -2.4688 C.ar    
  19 C19            5.1282    -3.0902    -3.7273 C.ar    
  20 C20            3.8454    -3.3926    -4.1646 C.ar    
  21 C21            2.7579    -3.1548    -3.3344 C.ar    
  22 C22            2.9555    -2.6230    -2.0752 C.ar    
  23 N23            3.6487    -3.9359    -5.4403 N.pl3   
  24 C24            4.0278    -5.1844    -5.8606 C.2     
  25 N25            3.6826    -5.3538    -7.1135 N.2     
  26 C26            3.0667    -4.2371    -7.5723 C.ar    
  27 C27            3.0304    -3.3158    -6.5104 C.ar    
  28 C28            2.5111    -3.8849    -8.8067 C.ar    
  29 C29            1.9448    -2.6529    -8.9717 C.ar    
  30 C30            1.9141    -1.7418    -7.9252 C.ar    
  31 C31            2.4496    -2.0693    -6.6972 C.ar    
  32 C32            4.7223    -6.1886    -5.0262 C.ar    
  33 C33            4.7010    -6.0794    -3.6352 C.ar    
  34 C34            5.3505    -7.0199    -2.8624 C.ar    
  35 C35            6.0220    -8.0694    -3.4638 C.ar    
  36 C36            6.0470    -8.1834    -4.8424 C.ar    
  37 C37            5.3970    -7.2526    -5.6264 C.ar    
  38 H38           -0.2363     2.1125     0.2630 H       
  39 H39           -0.0785    -0.3370     0.3875 H       
  40 H40            2.0789    -1.4662     0.1008 H       
  41 H41            6.4490    -0.1549    -0.6939 H       
  42 H42            7.7142     4.2370    -1.1626 H       
  43 H43            5.4190    -2.0416     0.1083 H       
  44 H44            3.6636    -2.0888     0.3990 H       
  45 H45            6.3162    -2.3187    -2.1281 H       
  46 H46            5.9759    -3.2737    -4.3707 H       
  47 H47            1.7589    -3.3886    -3.6718 H       
  48 H48            2.1102    -2.4381    -1.4289 H       
  49 H49            2.5301    -4.5858    -9.6282 H       
  50 H50            1.5169    -2.3848    -9.9263 H       
  51 H51            1.4630    -0.7716    -8.0719 H       
  52 H52            2.4229    -1.3564    -5.8864 H       
  53 H53            4.1774    -5.2604    -3.1645 H       
  54 H54            5.3351    -6.9364    -1.7858 H       
  55 H55            6.5292    -8.8028    -2.8545 H       
  56 H56            6.5729    -9.0050    -5.3058 H       
  57 H57            5.4169    -7.3428    -6.7024 H       
@<TRIPOS>BOND
   1    1    2 ar
   2    1    6 ar
   3    1   38 1
   4    2    3 ar
   5    2   39 1
   6    3    4 ar
   7    3   40 1
   8    4    5 ar
   9    4    7 1
  10    5    6 ar
  11    5   10 1
  12    6   11 1
  13    7    8 1
  14    7   16 1
  15    8    9 2
  16    8   41 1
  17    9   10 1
  18    9   13 1
  19   10   12 2
  20   13   14 1
  21   13   15 2
  22   14   42 1
  23   16   17 1
  24   16   43 1
  25   16   44 1
  26   17   18 ar
  27   17   22 ar
  28   18   19 ar
  29   18   45 1
  30   19   20 ar
  31   19   46 1
  32   20   21 ar
  33   20   23 1
  34   21   22 ar
  35   21   47 1
  36   22   48 1
  37   23   24 1
  38   23   27 1
  39   24   25 2
  40   24   32 1
  41   25   26 1
  42   26   27 ar
  43   26   28 ar
  44   27   31 ar
  45   28   29 ar
  46   28   49 1
  47   29   30 ar
  48   29   50 1
  49   30   31 ar
  50   30   51 1
  51   31   52 1
  52   32   33 ar
  53   32   37 ar
  54   33   34 ar
  55   33   53 1
  56   34   35 ar
  57   34   54 1
  58   35   36 ar
  59   35   55 1
  60   36   37 ar
  61   36   56 1
  62   37   57 1

#	End of record

