#	Name: ASD01810463
#	Creating user name:	WinNT
#	Creation time:	15. 06. 2019 19:24

#	Modifying user name:	WinNT
#	Modification time:	15. 06. 2019 19:24

#	Program:	/corina/corina34_cracker 3.40 0067  02.08.2006

@<TRIPOS>MOLECULE
ASD01810463
  72   77    0    0    0
SMALL
NO_CHARGES


@<TRIPOS>ATOM
   1 C1             0.0555     1.2004     0.1993 C.ar    
   2 C2            -0.1078    -0.1538    -0.0987 C.ar    
   3 C3            -1.3721    -0.6725    -0.2985 C.ar    
   4 C4            -2.4821     0.1428    -0.2053 C.ar    
   5 C5            -2.3329     1.4994     0.0923 C.ar    
   6 C6            -1.0607     2.0277     0.3007 C.ar    
   7 C7             1.4104     1.7542     0.4130 C.2     
   8 N8             2.5267     1.0568     0.4804 N.2     
   9 C9             1.0982    -1.0513    -0.2030 C.3     
  10 C10           -3.5228     2.3716     0.1914 C.2     
  11 N11           -4.6844     1.8758     0.6619 N.am    
  12 O12           -3.4533     3.5357    -0.1514 O.2     
  13 C13           -5.9041     2.6950     0.6581 C.3     
  14 C14           -6.4899     2.7137     2.0735 C.3     
  15 C15           -6.6999     1.2758     2.5534 C.3     
  16 C16           -5.3538     0.5491     2.5973 C.3     
  17 C17           -4.7564     0.5039     1.1827 C.3     
  18 C18           -7.3078     1.2904     3.9323 C.ar    
  19 C19           -8.5384     0.6961     4.1487 C.ar    
  20 C20           -9.1004     0.7055     5.4085 C.ar    
  21 C21           -8.4245     1.3166     6.4664 C.ar    
  22 C22           -7.1829     1.9144     6.2409 C.ar    
  23 C23           -6.6301     1.8931     4.9772 C.ar    
  24 C24           -9.0021     1.3305     7.7767 C.1     
  25 N25           -9.4603     1.3416     8.8161 N.1     
  26 C26            1.1741    -2.1126     0.9073 C.3     
  27 C27            1.6572    -3.0948    -0.1730 C.3     
  28 C28            0.9171    -2.2138    -1.1933 C.3     
  29 C29            3.5467     1.8906     0.6792 C.2     
  30 C30            3.0664     3.1450     0.7417 C.2     
  31 N31            1.7188     3.0777     0.5683 N.pl3   
  32 C32            5.0181     1.5350     0.8155 C.3     
  33 C33            5.7459     2.1826    -0.3740 C.3     
  34 N34            5.9680     3.5926    -0.1365 N.3     
  35 C35            4.8513     4.5064    -0.2514 C.3     
  36 C36            3.9187     4.3812     0.9655 C.3     
  37 C37            7.1264     4.0787    -0.8979 C.3     
  38 H38           -1.4928    -1.7207    -0.5291 H       
  39 H39           -3.4680    -0.2690    -0.3630 H       
  40 H40           -0.9397     3.0759     0.5310 H       
  41 H41            2.0269    -0.4980    -0.3423 H       
  42 H42           -5.6605     3.7118     0.3500 H       
  43 H43           -6.6303     2.2659    -0.0322 H       
  44 H44           -5.8005     3.2246     2.7458 H       
  45 H45           -7.4456     3.2376     2.0648 H       
  46 H46           -7.3699     0.7581     1.8669 H       
  47 H47           -4.6752     1.0803     3.2647 H       
  48 H48           -5.5010    -0.4677     2.9615 H       
  49 H49           -5.3902    -0.1047     0.5377 H       
  50 H50           -3.7545     0.0764     1.2226 H       
  51 H51           -9.0603     0.2242     3.3294 H       
  52 H52          -10.0612     0.2416     5.5759 H       
  53 H53           -6.6550     2.3891     7.0547 H       
  54 H54           -5.6699     2.3552     4.8014 H       
  55 H55            1.9246    -1.8962     1.6676 H       
  56 H56            0.2037    -2.3719     1.3306 H       
  57 H57            2.7391    -3.1010    -0.3050 H       
  58 H58            1.2361    -4.0952    -0.0733 H       
  59 H59           -0.1235    -2.5007    -1.3443 H       
  60 H60            1.4601    -2.0790    -2.1288 H       
  61 H61            1.0972     3.8224     0.5618 H       
  62 H62            5.4114     1.9298     1.7523 H       
  63 H63            5.1440     0.4527     0.7845 H       
  64 H64            6.7063     1.6879    -0.5191 H       
  65 H65            5.1417     2.0614    -1.2730 H       
  66 H66            5.2277     5.5275    -0.3117 H       
  67 H67            4.2914     4.2767    -1.1580 H       
  68 H68            3.2828     5.2634     1.0396 H       
  69 H69            4.5074     4.2678     1.8758 H       
  70 H70            6.9815     3.8636    -1.9566 H       
  71 H71            7.2287     5.1546    -0.7565 H       
  72 H72            8.0286     3.5786    -0.5457 H       
@<TRIPOS>BOND
   1    1    2 ar
   2    1    7 1
   3    1    6 ar
   4    2    3 ar
   5    2    9 1
   6    3    4 ar
   7    3   38 1
   8    4    5 ar
   9    4   39 1
  10    5    6 ar
  11    5   10 1
  12    6   40 1
  13    7    8 2
  14    7   31 1
  15    8   29 1
  16    9   26 1
  17    9   28 1
  18    9   41 1
  19   10   11 am
  20   10   12 2
  21   11   13 1
  22   11   17 1
  23   13   14 1
  24   13   42 1
  25   13   43 1
  26   14   15 1
  27   14   44 1
  28   14   45 1
  29   15   16 1
  30   15   18 1
  31   15   46 1
  32   16   17 1
  33   16   47 1
  34   16   48 1
  35   17   49 1
  36   17   50 1
  37   18   19 ar
  38   18   23 ar
  39   19   20 ar
  40   19   51 1
  41   20   21 ar
  42   20   52 1
  43   21   22 ar
  44   21   24 1
  45   22   23 ar
  46   22   53 1
  47   23   54 1
  48   24   25 3
  49   26   27 1
  50   26   55 1
  51   26   56 1
  52   27   28 1
  53   27   57 1
  54   27   58 1
  55   28   59 1
  56   28   60 1
  57   29   30 2
  58   29   32 1
  59   30   31 1
  60   30   36 1
  61   31   61 1
  62   32   33 1
  63   32   62 1
  64   32   63 1
  65   33   34 1
  66   33   64 1
  67   33   65 1
  68   34   35 1
  69   34   37 1
  70   35   36 1
  71   35   66 1
  72   35   67 1
  73   36   68 1
  74   36   69 1
  75   37   70 1
  76   37   71 1
  77   37   72 1

#	End of record

