#	Name: ASD08178494
#	Creating user name:	WinNT
#	Creation time:	15. 06. 2019 21:19

#	Modifying user name:	WinNT
#	Modification time:	15. 06. 2019 21:19

#	Program:	/corina/corina34_cracker 3.40 0067  02.08.2006

@<TRIPOS>MOLECULE
ASD08178494
  77   80    0    0    0
SMALL
NO_CHARGES


@<TRIPOS>ATOM
   1 N1            -0.0168     1.3902     0.0097 N.am    
   2 C2            -0.2173     0.0103     0.0231 C.ar    
   3 C3             0.8683    -0.8557    -0.0926 C.ar    
   4 N4            -1.4399    -0.4832     0.1513 N.ar    
   5 N5            -1.6667    -1.7463     0.1686 N.ar    
   6 C6            -0.7002    -2.6368     0.0602 C.ar    
   7 C7             0.6159    -2.2190    -0.0733 C.ar    
   8 C8            -1.0247    -4.1082     0.0874 C.3     
   9 C9            -1.8115    -4.4335     1.3586 C.3     
  10 C10           -2.1410    -5.9273     1.3862 C.3     
  11 C11           -2.9278    -6.2527     2.6574 C.3     
  12 C12           -3.2523    -7.7241     2.6845 C.2     
  13 N13           -2.5213    -8.6581     3.2049 N.2     
  14 N14           -2.9690    -9.8359     3.1257 N.2     
  15 C15           -4.1130   -10.0077     2.5350 C.2     
  16 S16           -4.6995    -8.4828     2.0200 S.3     
  17 N17           -4.7575   -11.2270     2.3553 N.am    
  18 C18           -4.1929   -12.3617     2.8139 C.2     
  19 C19           -4.8913   -13.6828     2.6192 C.3     
  20 O20           -3.1229   -12.3195     3.3832 O.2     
  21 C21           -4.0568   -14.7853     3.2184 C.2     
  22 C22           -1.0750     2.2250     0.0167 C.2     
  23 C23           -0.8601     3.7130     0.1198 C.3     
  24 O24           -2.2000     1.7786    -0.0599 O.2     
  25 C25           -2.1935     4.4152     0.1067 C.ar    
  26 C26           -2.8562     4.6617     1.2951 C.ar    
  27 C27           -2.7499     4.8170    -1.0920 C.ar    
  28 C28           -3.9776     5.4634    -1.1035 C.ar    
  29 C29           -4.6431     5.7045     0.0895 C.ar    
  30 C30           -4.0797     5.3052     1.2863 C.ar    
  31 C31           -4.4701   -15.6741     4.1388 C.2     
  32 N32           -3.4009   -16.4968     4.4051 N.am    
  33 C33           -2.3675   -16.0690     3.6256 C.2     
  34 N34           -2.7750   -15.0516     2.9204 N.2     
  35 C35           -3.3786   -17.5286     5.2719 C.2     
  36 O36           -2.2542   -18.2502     5.4301 O.3     
  37 O37           -4.3733   -17.8070     5.9101 O.2     
  38 C38           -2.3028   -19.3468     6.3806 C.3     
  39 C39           -3.3765   -20.3480     5.9496 C.3     
  40 C40           -0.9422   -20.0452     6.4236 C.3     
  41 C41           -2.6410   -18.8028     7.7700 C.3     
  42 O42           -4.5270     5.8601    -2.2815 O.3     
  43 C43           -5.7930     6.5198    -2.2173 C.3     
  44 F44           -5.6749     7.6819    -1.4474 F       
  45 F45           -6.2092     6.8569    -3.5098 F       
  46 F46           -6.7344     5.6663    -1.6320 F       
  47 H47            0.8842     1.7494    -0.0006 H       
  48 H48            1.8745    -0.4770    -0.1944 H       
  49 H49            1.4199    -2.9345    -0.1636 H       
  50 H50           -1.6240    -4.3643    -0.7864 H       
  51 H51           -0.0997    -4.6845     0.0751 H       
  52 H52           -1.2123    -4.1774     2.2323 H       
  53 H53           -2.7366    -3.8571     1.3708 H       
  54 H54           -2.7402    -6.1835     0.5124 H       
  55 H55           -1.2159    -6.5037     1.3739 H       
  56 H56           -2.3286    -5.9966     3.5311 H       
  57 H57           -3.8529    -5.6763     2.6696 H       
  58 H58           -5.6133   -11.2607     1.9000 H       
  59 H59           -5.8640   -13.6554     3.1104 H       
  60 H60           -5.0274   -13.8683     1.5537 H       
  61 H61           -0.3385     3.9413     1.0493 H       
  62 H62           -0.2620     4.0532    -0.7255 H       
  63 H63           -2.4174     4.3507     2.2316 H       
  64 H64           -2.2297     4.6284    -2.0195 H       
  65 H65           -5.5986     6.2077     0.0832 H       
  66 H66           -4.5974     5.4927     2.2154 H       
  67 H67           -5.4527   -15.7307     4.5835 H       
  68 H68           -1.3789   -16.5028     3.5946 H       
  69 H69           -3.1356   -20.7355     4.9597 H       
  70 H70           -3.4130   -21.1712     6.6631 H       
  71 H71           -4.3459   -19.8505     5.9189 H       
  72 H72           -0.1772   -19.3319     6.7306 H       
  73 H73           -0.9787   -20.8684     7.1371 H       
  74 H74           -0.7012   -20.4327     5.4337 H       
  75 H75           -3.6104   -18.3053     7.7393 H       
  76 H76           -2.6776   -19.6260     8.4835 H       
  77 H77           -1.8761   -18.0896     8.0770 H       
@<TRIPOS>BOND
   1    1    2 1
   2    1   22 am
   3    1   47 1
   4    2    3 ar
   5    2    4 ar
   6    3    7 ar
   7    3   48 1
   8    4    5 ar
   9    5    6 ar
  10    6    7 ar
  11    6    8 1
  12    7   49 1
  13    8    9 1
  14    8   50 1
  15    8   51 1
  16    9   10 1
  17    9   52 1
  18    9   53 1
  19   10   11 1
  20   10   54 1
  21   10   55 1
  22   11   12 1
  23   11   56 1
  24   11   57 1
  25   12   13 2
  26   12   16 1
  27   13   14 1
  28   14   15 2
  29   15   16 1
  30   15   17 1
  31   17   18 am
  32   17   58 1
  33   18   19 1
  34   18   20 2
  35   19   21 1
  36   19   59 1
  37   19   60 1
  38   21   31 2
  39   21   34 1
  40   22   23 1
  41   22   24 2
  42   23   25 1
  43   23   61 1
  44   23   62 1
  45   25   26 ar
  46   25   27 ar
  47   26   30 ar
  48   26   63 1
  49   27   28 ar
  50   27   64 1
  51   28   29 ar
  52   28   42 1
  53   29   30 ar
  54   29   65 1
  55   30   66 1
  56   31   32 1
  57   31   67 1
  58   32   33 1
  59   32   35 am
  60   33   34 2
  61   33   68 1
  62   35   36 1
  63   35   37 2
  64   36   38 1
  65   38   39 1
  66   38   40 1
  67   38   41 1
  68   39   69 1
  69   39   70 1
  70   39   71 1
  71   40   72 1
  72   40   73 1
  73   40   74 1
  74   41   75 1
  75   41   76 1
  76   41   77 1
  77   42   43 1
  78   43   44 1
  79   43   45 1
  80   43   46 1

#	End of record

