#	Name: ASD03430691
#	Creating user name:	WinNT
#	Creation time:	15. 06. 2019 20:41

#	Modifying user name:	WinNT
#	Modification time:	15. 06. 2019 20:41

#	Program:	/corina/corina34_cracker 3.40 0067  02.08.2006

@<TRIPOS>MOLECULE
ASD03430691
  60   66    0    0    0
SMALL
NO_CHARGES


@<TRIPOS>ATOM
   1 C1             2.6257     0.5997     0.2116 C.ar    
   2 C2             2.0185    -0.6324     0.1084 C.ar    
   3 C3             2.7321    -1.7193    -0.3512 C.ar    
   4 C4             4.0721    -1.5825    -0.7051 C.ar    
   5 C5             4.6743    -0.3339    -0.6077 C.ar    
   6 C6             3.9567     0.7657    -0.1527 C.ar    
   7 O7             4.6013    -2.7755    -1.0995 O.3     
   8 C8             2.3673    -3.1581    -0.5957 C.3     
   9 C9             3.5340    -3.6777    -1.4478 C.3     
  10 C10            0.9249    -4.4587     0.6486 C.ar    
  11 C11            2.2154    -3.9362     0.6774 C.ar    
  12 C12            1.0529    -3.3006    -1.3084 C.2     
  13 N13            0.2724    -4.0699    -0.5237 N.am    
  14 O14            0.7527    -2.8181    -2.3799 O.2     
  15 C15            3.0496    -4.1874     1.7461 C.ar    
  16 C16            2.6068    -4.9672     2.8031 C.ar    
  17 C17            1.3281    -5.4916     2.7820 C.ar    
  18 C18            0.4901    -5.2420     1.7147 C.ar    
  19 C19           -1.1007    -4.4533    -0.8609 C.3     
  20 C20            2.1231     1.9483     0.6888 C.3     
  21 C21            3.4437     2.7271     0.8963 C.3     
  22 O22            4.3498     2.0608     0.0007 O.3     
  23 C23           -0.9022    -5.8186     1.7031 C.3     
  24 F24            4.2988    -3.6731     1.7632 F       
  25 C25           -2.0564    -3.7961     0.1012 C.ar    
  26 C26           -3.2271    -4.4380     0.4594 C.ar    
  27 C27           -4.1038    -3.8352     1.3420 C.ar    
  28 C28           -3.8096    -2.5906     1.8667 C.ar    
  29 C29           -2.6384    -1.9490     1.5092 C.ar    
  30 C30           -1.7597    -2.5538     0.6300 C.ar    
  31 C31           -1.4162    -4.0075    -2.2655 C.ar    
  32 C32           -1.6891    -4.9456    -3.2435 C.ar    
  33 C33           -1.9784    -4.5367    -4.5319 C.ar    
  34 C34           -1.9953    -3.1898    -4.8422 C.ar    
  35 C35           -1.7233    -2.2517    -3.8640 C.ar    
  36 C36           -1.4383    -2.6604    -2.5746 C.ar    
  37 H37            0.9818    -0.7475     0.3882 H       
  38 H38            5.7107    -0.2169    -0.8883 H       
  39 H39            3.2990    -3.6073    -2.5098 H       
  40 H40            3.7877    -4.7016    -1.1734 H       
  41 H41            3.2593    -5.1646     3.6408 H       
  42 H42            0.9834    -6.1003     3.6048 H       
  43 H43           -1.2030    -5.5363    -0.7918 H       
  44 H44            1.5052     2.4251    -0.0721 H       
  45 H45            1.5770     1.8506     1.6270 H       
  46 H46            3.3231     3.7734     0.6158 H       
  47 H47            3.7857     2.6395     1.9275 H       
  48 H48           -1.6071    -5.0736     2.0721 H       
  49 H49           -1.1705    -6.0998     0.6847 H       
  50 H50           -0.9359    -6.6996     2.3440 H       
  51 H51           -3.4570    -5.4104     0.0495 H       
  52 H52           -5.0188    -4.3364     1.6213 H       
  53 H53           -4.4948    -2.1193     2.5557 H       
  54 H54           -2.4087    -0.9765     1.9189 H       
  55 H55           -0.8430    -2.0542     0.3536 H       
  56 H56           -1.6759    -5.9980    -3.0011 H       
  57 H57           -2.1909    -5.2697    -5.2962 H       
  58 H58           -2.2207    -2.8704    -5.8490 H       
  59 H59           -1.7362    -1.1993    -4.1066 H       
  60 H60           -1.2295    -1.9273    -1.8095 H       
@<TRIPOS>BOND
   1    1    2 ar
   2    1    6 ar
   3    1   20 1
   4    2    3 ar
   5    2   37 1
   6    3    4 ar
   7    3    8 1
   8    4    5 ar
   9    4    7 1
  10    5    6 ar
  11    5   38 1
  12    6   22 1
  13    7    9 1
  14    8    9 1
  15    8   11 1
  16    8   12 1
  17    9   39 1
  18    9   40 1
  19   10   11 ar
  20   10   13 1
  21   10   18 ar
  22   11   15 ar
  23   12   13 am
  24   12   14 2
  25   13   19 1
  26   15   16 ar
  27   15   24 1
  28   16   17 ar
  29   16   41 1
  30   17   18 ar
  31   17   42 1
  32   18   23 1
  33   19   25 1
  34   19   31 1
  35   19   43 1
  36   20   21 1
  37   20   44 1
  38   20   45 1
  39   21   22 1
  40   21   46 1
  41   21   47 1
  42   23   48 1
  43   23   49 1
  44   23   50 1
  45   25   26 ar
  46   25   30 ar
  47   26   27 ar
  48   26   51 1
  49   27   28 ar
  50   27   52 1
  51   28   29 ar
  52   28   53 1
  53   29   30 ar
  54   29   54 1
  55   30   55 1
  56   31   32 ar
  57   31   36 ar
  58   32   33 ar
  59   32   56 1
  60   33   34 ar
  61   33   57 1
  62   34   35 ar
  63   34   58 1
  64   35   36 ar
  65   35   59 1
  66   36   60 1

#	End of record

