#	Name: ASD01708023
#	Creating user name:	WinNT
#	Creation time:	15. 06. 2019 19:22

#	Modifying user name:	WinNT
#	Modification time:	15. 06. 2019 19:22

#	Program:	/corina/corina34_cracker 3.40 0067  02.08.2006

@<TRIPOS>MOLECULE
ASD01708023
  62   66    0    0    0
SMALL
NO_CHARGES


@<TRIPOS>ATOM
   1 C1            -0.0162     1.3436     0.0094 C.2     
   2 N2            -0.0142    -0.0042     0.0050 N.am    
   3 O3             1.0358     1.9530     0.0188 O.2     
   4 C4             1.2385    -0.7679    -0.1199 C.3     
   5 C5            -1.2590    -0.7695     0.1306 C.3     
   6 C6            -1.0626    -1.9035     1.1061 C.ar    
   7 C7             0.1825    -2.2652     1.5732 C.ar    
   8 C8             1.4405    -1.5525     1.1753 C.3     
   9 C9            -2.1933    -2.5907     1.5314 C.ar    
  10 C10           -2.0878    -3.6423     2.4154 C.ar    
  11 C11           -0.8282    -4.0214     2.8880 C.ar    
  12 C12            0.3022    -3.3264     2.4608 C.ar    
  13 Cl13           1.8706    -3.7910     3.0423 Cl      
  14 Cl14          -3.5093    -4.4901     2.9390 Cl      
  15 C15           -0.6959    -5.1493     3.8323 C.2     
  16 N16           -0.7501    -4.9263     5.1603 N.am    
  17 O17           -0.5381    -6.2790     3.4116 O.2     
  18 C18           -0.6189    -6.0450     6.0970 C.3     
  19 C19           -1.9646    -6.6932     6.2970 C.2     
  20 O20           -2.0865    -7.7467     7.1198 O.3     
  21 O21           -2.9339    -6.2646     5.7167 O.2     
  22 C22           -0.0974    -5.5280     7.4392 C.3     
  23 N23            1.2604    -5.0054     7.2670 N.pl3   
  24 C24           -5.6484     3.0118    -1.0034 C.2     
  25 C25           -5.0593     3.9353    -0.2282 C.2     
  26 O26           -4.7813     2.0271    -1.2914 O.3     
  27 C27           -3.5827     2.2594    -0.7180 C.ar    
  28 C28           -3.6846     3.4739    -0.0143 C.ar    
  29 C29           -2.3834     1.5669    -0.7080 C.ar    
  30 C30           -1.2955     2.0797    -0.0033 C.ar    
  31 C31           -1.4100     3.2898     0.6935 C.ar    
  32 C32           -2.5874     3.9776     0.6876 C.ar    
  33 C33            1.6805    -3.7637     7.6026 C.2     
  34 N34            2.2600    -5.6504     6.7755 N.2     
  35 N35            3.3075    -4.9039     6.7642 N.2     
  36 C36            2.9925    -3.7081     7.2744 C.2     
  37 C37            3.9164    -2.5304     7.4488 C.3     
  38 C38            5.1377    -2.9569     8.2658 C.3     
  39 O39            3.2278    -1.4820     8.1335 O.3     
  40 H40            1.1680    -1.4570    -0.9614 H       
  41 H41            2.0738    -0.0842    -0.2710 H       
  42 H42           -2.0525    -0.1147     0.4906 H       
  43 H43           -1.5365    -1.1729    -0.8433 H       
  44 H44            2.2344    -2.2840     1.0246 H       
  45 H45            1.7316    -0.8677     1.9718 H       
  46 H46           -3.1659    -2.2969     1.1649 H       
  47 H47           -0.8760    -4.0249     5.4960 H       
  48 H48            0.0805    -6.7770     5.6930 H       
  49 H49           -2.9696    -8.1287     7.2160 H       
  50 H50           -0.7496    -4.7329     7.8005 H       
  51 H51           -0.0838    -6.3435     8.1623 H       
  52 H52           -6.6728     3.0521    -1.3429 H       
  53 H53           -5.5081     4.8378     0.1599 H       
  54 H54           -2.2915     0.6336    -1.2436 H       
  55 H55           -0.5622     3.6796     1.2373 H       
  56 H56           -2.6715     4.9103     1.2255 H       
  57 H57            1.0881    -2.9756     8.0433 H       
  58 H58            4.2399    -2.1743     6.4707 H       
  59 H59            5.6629    -3.7566     7.7436 H       
  60 H60            5.8059    -2.1051     8.3920 H       
  61 H61            4.8142    -3.3130     9.2439 H       
  62 H62            2.9107    -1.7287     9.0131 H       
@<TRIPOS>BOND
   1    1    2 am
   2    1    3 2
   3    1   30 1
   4    2    4 1
   5    2    5 1
   6    4    8 1
   7    4   40 1
   8    4   41 1
   9    5    6 1
  10    5   42 1
  11    5   43 1
  12    6    7 ar
  13    6    9 ar
  14    7    8 1
  15    7   12 ar
  16    8   44 1
  17    8   45 1
  18    9   10 ar
  19    9   46 1
  20   10   11 ar
  21   10   14 1
  22   11   12 ar
  23   11   15 1
  24   12   13 1
  25   15   16 am
  26   15   17 2
  27   16   18 1
  28   16   47 1
  29   18   19 1
  30   18   22 1
  31   18   48 1
  32   19   20 1
  33   19   21 2
  34   20   49 1
  35   22   23 1
  36   22   50 1
  37   22   51 1
  38   23   33 1
  39   23   34 1
  40   24   25 2
  41   24   26 1
  42   24   52 1
  43   25   28 1
  44   25   53 1
  45   26   27 1
  46   27   28 ar
  47   27   29 ar
  48   28   32 ar
  49   29   30 ar
  50   29   54 1
  51   30   31 ar
  52   31   32 ar
  53   31   55 1
  54   32   56 1
  55   33   36 2
  56   33   57 1
  57   34   35 2
  58   35   36 1
  59   36   37 1
  60   37   38 1
  61   37   39 1
  62   37   58 1
  63   38   59 1
  64   38   60 1
  65   38   61 1
  66   39   62 1

#	End of record

