#	Name: ASD01209044
#	Creating user name:	WinNT
#	Creation time:	15. 06. 2019 19:10

#	Modifying user name:	WinNT
#	Modification time:	15. 06. 2019 19:10

#	Program:	/corina/corina34_cracker 3.40 0067  02.08.2006

@<TRIPOS>MOLECULE
ASD01209044
  53   57    0    0    0
SMALL
NO_CHARGES


@<TRIPOS>ATOM
   1 C1            -0.7347    -2.6304     0.7383 C.3     
   2 C2            -1.1039    -2.0716    -0.6583 C.3     
   3 C3            -1.3127    -0.5570    -0.6005 C.3     
   4 C4            -2.5347    -0.2432     0.2649 C.3     
   5 C5            -2.6682     1.2495     0.4234 C.2     
   6 N6            -1.7307     1.9417     1.1004 N.am    
   7 C7            -1.9032     3.3018     1.3327 C.2     
   8 N8            -3.7384    -0.7755    -0.3785 N.pl3   
   9 N9            -1.0659     4.0576     1.9704 N.2     
  10 C10           -1.3888     5.3316     2.0993 C.2     
  11 C11           -2.5557     5.6668     1.5431 C.2     
  12 S12           -3.2475     4.2209     0.8122 S.3     
  13 Cl13          -3.2645     7.2515     1.5369 Cl      
  14 C14           -4.5840    -1.7076     0.1642 C.ar    
  15 C15           -5.6020    -1.9315    -0.7831 C.ar    
  16 C16           -5.3002    -1.0691    -1.9210 C.2     
  17 N17           -4.2121    -0.4095    -1.6426 N.2     
  18 S18           -7.9022    -3.1376    -1.6749 S.o2    
  19 C19           -8.7856    -1.5569    -1.7828 C.3     
  20 O20           -8.7206    -4.1255    -1.0638 O.2     
  21 O21           -7.2110    -3.4063    -2.8870 O.2     
  22 O22           -3.6192     1.8278    -0.0583 O.2     
  23 C23            0.1504    -2.4235    -1.4979 C.3     
  24 C24            0.5803    -3.8020    -0.9548 C.3     
  25 C25            0.0133    -3.9188     0.4447 C.2     
  26 O26            0.1338    -4.8619     1.1893 O.2     
  27 C27           -4.6074    -2.4024     1.3706 C.ar    
  28 C28           -5.6134    -3.2916     1.6238 C.ar    
  29 C29           -6.6184    -3.5139     0.6908 C.ar    
  30 C30           -6.6219    -2.8464    -0.4999 C.ar    
  31 C31          -10.0467    -1.5100    -2.6479 C.3     
  32 C32          -10.1633    -1.4711    -1.1229 C.3     
  33 H33           -0.0917    -1.9297     1.2709 H       
  34 H34           -1.6356    -2.8365     1.3162 H       
  35 H35           -1.9902    -2.5686    -1.0528 H       
  36 H36           -0.4304    -0.0848    -0.1682 H       
  37 H37           -1.4730    -0.1736    -1.6082 H       
  38 H38           -2.4133    -0.7033     1.2456 H       
  39 H39           -0.9356     1.4912     1.4255 H       
  40 H40           -0.7606     6.0442     2.6132 H       
  41 H41           -5.8783    -0.9888    -2.8297 H       
  42 H42           -8.1589    -0.6654    -1.7579 H       
  43 H43           -0.1034    -2.4908    -2.5558 H       
  44 H44            0.9374    -1.6865    -1.3379 H       
  45 H45            0.1778    -4.5935    -1.5870 H       
  46 H46            1.6679    -3.8672    -0.9227 H       
  47 H47           -3.8320    -2.2391     2.1043 H       
  48 H48           -5.6273    -3.8285     2.5608 H       
  49 H49           -7.4048    -4.2209     0.9100 H       
  50 H50          -10.2498    -0.5875    -3.1919 H       
  51 H51          -10.3455    -2.4290    -3.1523 H       
  52 H52          -10.5389    -2.3645    -0.6239 H       
  53 H53          -10.4432    -0.5231    -0.6635 H       
@<TRIPOS>BOND
   1    1    2 1
   2    1   25 1
   3    1   33 1
   4    1   34 1
   5    2    3 1
   6    2   23 1
   7    2   35 1
   8    3    4 1
   9    3   36 1
  10    3   37 1
  11    4    5 1
  12    4    8 1
  13    4   38 1
  14    5    6 am
  15    5   22 2
  16    6    7 1
  17    6   39 1
  18    7    9 2
  19    7   12 1
  20    8   14 1
  21    8   17 1
  22    9   10 1
  23   10   11 2
  24   10   40 1
  25   11   12 1
  26   11   13 1
  27   14   15 ar
  28   14   27 ar
  29   15   16 1
  30   15   30 ar
  31   16   17 2
  32   16   41 1
  33   18   19 1
  34   18   20 2
  35   18   21 2
  36   18   30 1
  37   19   31 1
  38   19   32 1
  39   19   42 1
  40   23   24 1
  41   23   43 1
  42   23   44 1
  43   24   25 1
  44   24   45 1
  45   24   46 1
  46   25   26 2
  47   27   28 ar
  48   27   47 1
  49   28   29 ar
  50   28   48 1
  51   29   30 ar
  52   29   49 1
  53   31   32 1
  54   31   50 1
  55   31   51 1
  56   32   52 1
  57   32   53 1

#	End of record

