#	Name: ASD01209213
#	Creating user name:	WinNT
#	Creation time:	15. 06. 2019 19:11

#	Modifying user name:	WinNT
#	Modification time:	15. 06. 2019 19:11

#	Program:	/corina/corina34_cracker 3.40 0067  02.08.2006

@<TRIPOS>MOLECULE
ASD01209213
  68   71    0    0    0
SMALL
NO_CHARGES


@<TRIPOS>ATOM
   1 N1            -0.0540     1.1502     0.0950 N.pl3   
   2 C2            -0.2249    -0.2011     0.0897 C.2     
   3 C3             0.8185    -1.2186     0.2244 C.2     
   4 N4             1.3394    -1.4933     1.4368 N.am    
   5 O5             1.2160    -1.8168    -0.7586 O.2     
   6 C6             2.2572    -2.5251     1.5804 C.2     
   7 P7             5.9714    -3.4894     4.0558 P.3     
   8 O8             5.7096    -2.0331     4.0887 O.2     
   9 C9             4.3951    -4.3863     3.8711 C.3     
  10 N10            2.8167    -2.8712     2.6977 N.2     
  11 S11            2.8085    -3.5292     0.3112 S.3     
  12 C12            3.8348    -4.4104     1.4399 C.2     
  13 C13            3.6682    -3.8788     2.6524 C.2     
  14 C14           -1.5994    -0.4227    -0.0707 C.ar    
  15 C15           -2.1805     0.9256    -0.1543 C.ar    
  16 N16           -1.1708     1.7703    -0.0392 N.2     
  17 C17           -2.4430    -1.5370    -0.1583 C.ar    
  18 C18           -3.7817    -1.3523    -0.3189 C.ar    
  19 C19           -4.3382    -0.0759    -0.3988 C.ar    
  20 C20           -3.5749     1.0448    -0.3204 C.ar    
  21 S21           -6.0802     0.0873    -0.6075 S.o2    
  22 O22           -6.2400     1.3448    -1.2496 O.2     
  23 O23           -6.4706    -1.1184    -1.2503 O.2     
  24 C24           -6.7349     0.1481     1.0832 C.3     
  25 C25            1.2434     1.8147     0.2422 C.3     
  26 C26            1.7952     2.1677    -1.1405 C.3     
  27 C27            3.0738     2.9969    -0.9854 C.3     
  28 C28            3.6614     3.2783    -2.3708 C.3     
  29 O29            3.9146     2.0411    -3.0396 O.3     
  30 C30            2.7478     1.2447    -3.2548 C.3     
  31 C31            2.1235     0.8815    -1.9049 C.3     
  32 O32            6.9337    -3.8337     2.8117 O.3     
  33 C33            8.8512    -3.7614     1.3425 C.3     
  34 C34            8.2019    -3.2062     2.6118 C.3     
  35 O35            6.6862    -3.9373     5.4271 O.3     
  36 C36            8.2939    -3.9945     7.2306 C.3     
  37 C37            7.8898    -3.3368     5.9097 C.3     
  38 H38            1.0730    -0.9701     2.2089 H       
  39 H39            4.5944    -5.4519     3.7577 H       
  40 H40            3.7789    -4.2240     4.7554 H       
  41 H41            4.4828    -5.2386     1.1940 H       
  42 H42           -2.0345    -2.5350    -0.0994 H       
  43 H43           -4.4284    -2.2146    -0.3864 H       
  44 H44           -4.0333     2.0206    -0.3854 H       
  45 H45           -6.3062     1.0017     1.6083 H       
  46 H46           -7.8196     0.2497     1.0493 H       
  47 H47           -6.4722    -0.7705     1.6078 H       
  48 H48            1.1206     2.7257     0.8279 H       
  49 H49            1.9382     1.1465     0.7509 H       
  50 H50            1.0526     2.7427    -1.6936 H       
  51 H51            2.8389     3.9396    -0.4911 H       
  52 H52            3.7977     2.4421    -0.3886 H       
  53 H53            2.9533     3.8680    -2.9531 H       
  54 H54            4.5944     3.8317    -2.2644 H       
  55 H55            2.0278     1.8077    -3.8486 H       
  56 H56            3.0228     0.3329    -3.7851 H       
  57 H57            2.8282     0.2839    -1.3266 H       
  58 H58            1.2091     0.3113    -2.0681 H       
  59 H59            8.2069    -3.5596     0.4867 H       
  60 H60            9.8185    -3.2827     1.1900 H       
  61 H61            8.9906    -4.8374     1.4465 H       
  62 H62            8.0624    -2.1301     2.5077 H       
  63 H63            8.8461    -3.4080     3.4675 H       
  64 H64            7.4993    -3.8557     7.9637 H       
  65 H65            8.4584    -5.0601     7.0705 H       
  66 H66            9.2119    -3.5365     7.5987 H       
  67 H67            8.6844    -3.4756     5.1766 H       
  68 H68            7.7253    -2.2712     6.0698 H       
@<TRIPOS>BOND
   1    1    2 1
   2    1   25 1
   3    1   16 1
   4    2    3 1
   5    2   14 2
   6    3    4 am
   7    3    5 2
   8    4    6 1
   9    4   38 1
  10    6   10 2
  11    6   11 1
  12    7    8 2
  13    7   32 1
  14    7   35 1
  15    7    9 1
  16    9   13 1
  17    9   39 1
  18    9   40 1
  19   10   13 1
  20   11   12 1
  21   12   13 2
  22   12   41 1
  23   14   15 ar
  24   14   17 ar
  25   15   16 2
  26   15   20 ar
  27   17   18 ar
  28   17   42 1
  29   18   19 ar
  30   18   43 1
  31   19   20 ar
  32   19   21 1
  33   20   44 1
  34   21   22 2
  35   21   23 2
  36   21   24 1
  37   24   45 1
  38   24   46 1
  39   24   47 1
  40   25   26 1
  41   25   48 1
  42   25   49 1
  43   26   27 1
  44   26   31 1
  45   26   50 1
  46   27   28 1
  47   27   51 1
  48   27   52 1
  49   28   29 1
  50   28   53 1
  51   28   54 1
  52   29   30 1
  53   30   31 1
  54   30   55 1
  55   30   56 1
  56   31   57 1
  57   31   58 1
  58   32   34 1
  59   33   34 1
  60   33   59 1
  61   33   60 1
  62   33   61 1
  63   34   62 1
  64   34   63 1
  65   35   37 1
  66   36   37 1
  67   36   64 1
  68   36   65 1
  69   36   66 1
  70   37   67 1
  71   37   68 1

#	End of record

