#	Name: ASD08178371
#	Creating user name:	WinNT
#	Creation time:	15. 06. 2019 21:18

#	Modifying user name:	WinNT
#	Modification time:	15. 06. 2019 21:18

#	Program:	/corina/corina34_cracker 3.40 0067  02.08.2006

@<TRIPOS>MOLECULE
ASD08178371
  96  100    0    0    0
SMALL
NO_CHARGES


@<TRIPOS>ATOM
   1 N1            -1.6440     1.3692     0.3077 N.am    
   2 C2            -1.4107    -0.0055     0.3256 C.ar    
   3 C3            -0.1121    -0.4934     0.4584 C.ar    
   4 N4            -2.4230    -0.8536     0.2219 N.ar    
   5 N5            -2.2508    -2.1254     0.2346 N.ar    
   6 C6            -1.0570    -2.6731     0.3514 C.ar    
   7 C7             0.0666    -1.8683     0.4711 C.ar    
   8 C8            -0.9139    -4.1733     0.3608 C.3     
   9 C9            -1.8018    -4.7633     1.4583 C.3     
  10 C10           -1.6565    -6.2864     1.4679 C.3     
  11 C11           -2.5444    -6.8765     2.5653 C.3     
  12 C12           -2.4013    -8.3766     2.5748 C.2     
  13 N13           -1.5397    -9.0575     3.2615 N.2     
  14 N14           -1.5797   -10.3128     3.1325 N.2     
  15 C15           -2.4729   -10.8083     2.3302 C.2     
  16 S16           -3.3822    -9.5212     1.6586 S.3     
  17 N17           -2.6633   -12.1602     2.0648 N.am    
  18 C18           -3.6284   -12.5494     1.2083 C.2     
  19 C19           -3.7627   -14.0031     0.8345 C.3     
  20 O20           -4.3888   -11.7297     0.7384 O.2     
  21 C21           -4.8263   -14.1538    -0.2224 C.ar    
  22 C22           -4.4868   -14.0800    -1.5601 C.ar    
  23 C23           -5.4626   -14.2183    -2.5297 C.ar    
  24 C24           -6.7777   -14.4307    -2.1612 C.ar    
  25 C25           -7.1172   -14.5055    -0.8231 C.ar    
  26 C26           -6.1410   -14.3716     0.1461 C.ar    
  27 C27           -2.8847     1.8391     0.0704 C.2     
  28 C28           -3.1612     3.3175     0.1641 C.3     
  29 O29           -3.7786     1.0721    -0.2186 O.2     
  30 C30           -4.6131     3.5776    -0.1445 C.ar    
  31 C31           -5.5478     3.5730     0.8739 C.ar    
  32 C32           -5.0094     3.8263    -1.4453 C.ar    
  33 C33           -6.3413     4.0649    -1.7284 C.ar    
  34 C34           -7.2769     4.0543    -0.7109 C.ar    
  35 C35           -6.8796     3.8116     0.5908 C.ar    
  36 C36           -8.5512   -14.7366    -0.4214 C.3     
  37 C37           -8.8092   -16.2172    -0.3100 C.2     
  38 O38           -7.9166   -17.0069    -0.5348 O.2     
  39 N39          -10.0319   -16.6637     0.0393 N.am    
  40 C40          -10.2989   -18.1041     0.1520 C.3     
  41 C41          -11.1217   -15.7192     0.3206 C.3     
  42 C42          -11.7042   -16.0356     1.7017 C.3     
  43 C43          -12.1200   -17.5076     1.7504 C.3     
  44 C44          -10.8923   -18.3889     1.5353 C.3     
  45 F45          -12.6815   -17.7922     2.9998 F       
  46 F46          -13.0628   -17.7591     0.7479 F       
  47 C47           -1.8147   -13.1611     2.7161 C.3     
  48 O48           -0.8620   -13.6873     1.7550 O.3     
  49 C49            0.2045   -12.9226     1.4730 C.2     
  50 O50            0.3884   -11.8945     2.0806 O.2     
  51 C51            1.1725   -13.3463     0.3985 C.3     
  52 C52            2.2886   -12.3066     0.2787 C.3     
  53 C53            3.2714   -12.7368    -0.8121 C.3     
  54 H54           -0.9141     1.9871     0.4700 H       
  55 H55            0.7287     0.1784     0.5482 H       
  56 H56            1.0519    -2.3000     0.5673 H       
  57 H57           -1.2176    -4.5733    -0.6065 H       
  58 H58            0.1258    -4.4379     0.5533 H       
  59 H59           -1.4981    -4.3633     2.4257 H       
  60 H60           -2.8416    -4.4987     1.2659 H       
  61 H61           -1.9602    -6.6865     0.5005 H       
  62 H62           -0.6168    -6.5510     1.6603 H       
  63 H63           -2.2407    -6.4764     3.5327 H       
  64 H64           -3.5842    -6.6119     2.3729 H       
  65 H65           -2.8114   -14.3680     0.4472 H       
  66 H66           -4.0417   -14.5806     1.7158 H       
  67 H67           -3.4592   -13.9140    -1.8480 H       
  68 H68           -5.1973   -14.1599    -3.5750 H       
  69 H69           -7.5401   -14.5380    -2.9186 H       
  70 H70           -6.4063   -14.4300     1.1914 H       
  71 H71           -2.9359     3.6661     1.1720 H       
  72 H72           -2.5362     3.8502    -0.5527 H       
  73 H73           -5.2376     3.3828     1.8907 H       
  74 H74           -4.2784     3.8346    -2.2403 H       
  75 H75           -6.6508     4.2599    -2.7446 H       
  76 H76           -8.3173     4.2410    -0.9320 H       
  77 H77           -7.6106     3.8033     1.3858 H       
  78 H78           -8.7399   -14.2615     0.5413 H       
  79 H79           -9.2130   -14.3081    -1.1740 H       
  80 H80          -11.0079   -18.4058    -0.6189 H       
  81 H81           -9.3681   -18.6587     0.0325 H       
  82 H82          -10.7336   -14.7007     0.3123 H       
  83 H83          -11.8992   -15.8224    -0.4363 H       
  84 H84          -10.9514   -15.8447     2.4665 H       
  85 H85          -12.5750   -15.4054     1.8823 H       
  86 H86          -11.1828   -19.4379     1.5930 H       
  87 H87          -10.1505   -18.1735     2.3044 H       
  88 H88           -1.2777   -12.6987     3.5443 H       
  89 H89           -2.4357   -13.9733     3.0941 H       
  90 H90            1.6032   -14.3133     0.6583 H       
  91 H91            0.6469   -13.4264    -0.5530 H       
  92 H92            1.8579   -11.3396     0.0190 H       
  93 H93            2.8142   -12.2265     1.2303 H       
  94 H94            3.7020   -13.7038    -0.5524 H       
  95 H95            2.7458   -12.8169    -1.7637 H       
  96 H96            4.0665   -11.9961    -0.8975 H       
@<TRIPOS>BOND
   1    1    2 1
   2    1   27 am
   3    1   54 1
   4    2    3 ar
   5    2    4 ar
   6    3    7 ar
   7    3   55 1
   8    4    5 ar
   9    5    6 ar
  10    6    7 ar
  11    6    8 1
  12    7   56 1
  13    8    9 1
  14    8   57 1
  15    8   58 1
  16    9   10 1
  17    9   59 1
  18    9   60 1
  19   10   11 1
  20   10   61 1
  21   10   62 1
  22   11   12 1
  23   11   63 1
  24   11   64 1
  25   12   13 2
  26   12   16 1
  27   13   14 1
  28   14   15 2
  29   15   16 1
  30   15   17 1
  31   17   18 am
  32   17   47 1
  33   18   19 1
  34   18   20 2
  35   19   21 1
  36   19   65 1
  37   19   66 1
  38   21   22 ar
  39   21   26 ar
  40   22   23 ar
  41   22   67 1
  42   23   24 ar
  43   23   68 1
  44   24   25 ar
  45   24   69 1
  46   25   26 ar
  47   25   36 1
  48   26   70 1
  49   27   28 1
  50   27   29 2
  51   28   30 1
  52   28   71 1
  53   28   72 1
  54   30   31 ar
  55   30   32 ar
  56   31   35 ar
  57   31   73 1
  58   32   33 ar
  59   32   74 1
  60   33   34 ar
  61   33   75 1
  62   34   35 ar
  63   34   76 1
  64   35   77 1
  65   36   37 1
  66   36   78 1
  67   36   79 1
  68   37   38 2
  69   37   39 am
  70   39   40 1
  71   39   41 1
  72   40   44 1
  73   40   80 1
  74   40   81 1
  75   41   42 1
  76   41   82 1
  77   41   83 1
  78   42   43 1
  79   42   84 1
  80   42   85 1
  81   43   44 1
  82   43   45 1
  83   43   46 1
  84   44   86 1
  85   44   87 1
  86   47   48 1
  87   47   88 1
  88   47   89 1
  89   48   49 1
  90   49   50 2
  91   49   51 1
  92   51   52 1
  93   51   90 1
  94   51   91 1
  95   52   53 1
  96   52   92 1
  97   52   93 1
  98   53   94 1
  99   53   95 1
 100   53   96 1

#	End of record

