#	Name: ASD04591115
#	Creating user name:	WinNT
#	Creation time:	15. 06. 2019 20:52

#	Modifying user name:	WinNT
#	Modification time:	15. 06. 2019 20:52

#	Program:	/corina/corina34_cracker 3.40 0067  02.08.2006

@<TRIPOS>MOLECULE
ASD04591115
  60   65    0    0    0
SMALL
NO_CHARGES


@<TRIPOS>ATOM
   1 N1            -0.0159     1.3227     0.0093 N.ar    
   2 C2             0.0021    -0.0041     0.0020 C.ar    
   3 N3             1.1298    -0.6960    -0.0120 N.ar    
   4 C4             2.3053    -0.0745    -0.0199 C.ar    
   5 C5             2.3200     1.3349    -0.0129 C.ar    
   6 C6             1.1087     2.0191     0.0023 C.ar    
   7 N7             3.6032    -0.5218    -0.0347 N.pl3   
   8 C8             4.4830     0.5469    -0.0379 C.ar    
   9 C9             3.7326     1.7362    -0.0246 C.ar    
  10 C10            5.8688     0.6385    -0.0513 C.ar    
  11 N11            6.4627     1.8145    -0.0515 N.ar    
  12 C12            5.7871     2.9500    -0.0392 C.ar    
  13 C13            4.4084     2.9558    -0.0250 C.ar    
  14 N14           -1.2019    -0.6887     0.0098 N.pl3   
  15 C15           -2.4052     0.0165     0.0251 C.ar    
  16 C16            4.0011    -1.9317    -0.0453 C.3     
  17 C17            3.4604    -2.6413     1.2084 C.3     
  18 C18            2.5264    -3.7639     0.7111 C.3     
  19 C19            3.0181    -4.0573    -0.7281 C.3     
  20 C20            3.3769    -2.6478    -1.2607 C.3     
  21 C21           -3.6091    -0.6786     0.0329 C.ar    
  22 C22           -4.7970     0.0301     0.0480 C.ar    
  23 C23           -4.7390     1.4225     0.0549 C.ar    
  24 C24           -3.5009     2.0479     0.0465 C.ar    
  25 N25           -2.3877     1.3398     0.0375 N.ar    
  26 N26           -5.9158     2.1807     0.0698 N.3     
  27 C27           -5.6154     3.6192     0.0747 C.3     
  28 C28           -6.9236     4.4111     0.0107 C.3     
  29 N29           -7.7692     4.0486     1.1566 N.3     
  30 C30           -8.0696     2.6101     1.1517 C.3     
  31 C31           -6.7614     1.8183     1.2158 C.3     
  32 C32           -3.6199    -2.1856     0.0244 C.3     
  33 H33            1.0870     3.0989     0.0076 H       
  34 H34            6.4647    -0.2621    -0.0613 H       
  35 H35            6.3229     3.8877    -0.0396 H       
  36 H36            3.8622     3.8875    -0.0151 H       
  37 H37           -1.2083    -1.6587     0.0047 H       
  38 H38            5.0875    -2.0125    -0.0807 H       
  39 H39            4.2843    -3.0673     1.7810 H       
  40 H40            2.9019    -1.9367     1.8247 H       
  41 H41            2.6284    -4.6503     1.3372 H       
  42 H42            1.4917    -3.4217     0.6984 H       
  43 H43            3.8985    -4.6998    -0.7121 H       
  44 H44            2.2228    -4.5047    -1.3243 H       
  45 H45            2.4794    -2.1253    -1.5919 H       
  46 H46            4.0994    -2.7197    -2.0736 H       
  47 H47           -5.7470    -0.4836     0.0540 H       
  48 H48           -3.4475     3.1265     0.0514 H       
  49 H49           -5.0795     3.8757     0.9886 H       
  50 H50           -4.9989     3.8650    -0.7899 H       
  51 H51           -6.7047     5.4783     0.0434 H       
  52 H52           -7.4465     4.1751    -0.9162 H       
  53 H53           -7.3380     4.3249     2.0259 H       
  54 H54           -8.6861     2.3643     2.0163 H       
  55 H55           -8.6055     2.3536     0.2378 H       
  56 H56           -6.9803     0.7510     1.1830 H       
  57 H57           -6.2385     2.0542     2.1426 H       
  58 H58           -3.6124    -2.5547     1.0499 H       
  59 H59           -4.5174    -2.5396    -0.4828 H       
  60 H60           -2.7375    -2.5523    -0.5002 H       
@<TRIPOS>BOND
   1    1    2 ar
   2    1    6 ar
   3    2    3 ar
   4    2   14 1
   5    3    4 ar
   6    4    5 ar
   7    4    7 1
   8    5    6 ar
   9    5    9 1
  10    6   33 1
  11    7    8 1
  12    7   16 1
  13    8    9 ar
  14    8   10 ar
  15    9   13 ar
  16   10   11 ar
  17   10   34 1
  18   11   12 ar
  19   12   13 ar
  20   12   35 1
  21   13   36 1
  22   14   15 1
  23   14   37 1
  24   15   21 ar
  25   15   25 ar
  26   16   17 1
  27   16   20 1
  28   16   38 1
  29   17   18 1
  30   17   39 1
  31   17   40 1
  32   18   19 1
  33   18   41 1
  34   18   42 1
  35   19   20 1
  36   19   43 1
  37   19   44 1
  38   20   45 1
  39   20   46 1
  40   21   22 ar
  41   21   32 1
  42   22   23 ar
  43   22   47 1
  44   23   24 ar
  45   23   26 1
  46   24   25 ar
  47   24   48 1
  48   26   27 1
  49   26   31 1
  50   27   28 1
  51   27   49 1
  52   27   50 1
  53   28   29 1
  54   28   51 1
  55   28   52 1
  56   29   30 1
  57   29   53 1
  58   30   31 1
  59   30   54 1
  60   30   55 1
  61   31   56 1
  62   31   57 1
  63   32   58 1
  64   32   59 1
  65   32   60 1

#	End of record

