#	Name: ASD00060028
#	Creating user name:	WinNT
#	Creation time:	15. 06. 2019 18:29

#	Modifying user name:	WinNT
#	Modification time:	15. 06. 2019 18:29

#	Program:	/corina/corina34_cracker 3.40 0067  02.08.2006

@<TRIPOS>MOLECULE
ASD00060028
  32   35    0    0    0
SMALL
NO_CHARGES


@<TRIPOS>ATOM
   1 C1             5.3828     6.1963     3.9019 C.ar    
   2 C2             6.4546     5.7677     4.6434 C.ar    
   3 C3             7.1753     4.6452     4.2597 C.ar    
   4 C4             6.8152     3.9513     3.1247 C.ar    
   5 C5             5.7301     4.3732     2.3606 C.ar    
   6 C6             4.9960     5.5017     2.7364 C.ar    
   7 S7             5.0281     3.7190     0.8828 S.3     
   8 C8             3.8164     4.9927     0.8779 C.2     
   9 N9             3.9818     5.7731     1.8901 N.2     
  10 Cl10           8.5294     4.1160     5.2084 Cl      
  11 N11            2.8277     5.1361    -0.0745 N.am    
  12 S12            1.6710     6.3078     0.1028 S.o2    
  13 O13            2.3636     7.5159     0.3855 O.2     
  14 O14            0.7799     6.1613    -0.9944 O.2     
  15 C15            0.7468     5.9136     1.5503 C.2     
  16 C16            0.7398     6.6850     2.6192 C.2     
  17 C17           -0.0708     4.7159     1.6544 C.ar    
  18 C18           -0.7050     4.6261     2.8968 C.ar    
  19 S19           -0.2741     6.0169     3.8837 S.3     
  20 C20           -0.2864     3.6944     0.7048 C.ar    
  21 C21           -1.0986     2.6415     0.9963 C.ar    
  22 C22           -1.7275     2.5551     2.2307 C.ar    
  23 C23           -1.5342     3.5355     3.1753 C.ar    
  24 H24            4.8286     7.0688     4.2151 H       
  25 H25            6.7404     6.3088     5.5334 H       
  26 H26            7.3764     3.0779     2.8269 H       
  27 H27            2.8105     4.5506    -0.8477 H       
  28 H28            1.2889     7.6110     2.7051 H       
  29 H29            0.1960     3.7485    -0.2600 H       
  30 H30           -1.2553     1.8667     0.2604 H       
  31 H31           -2.3701     1.7152     2.4500 H       
  32 H32           -2.0257     3.4637     4.1343 H       
@<TRIPOS>BOND
   1    1    2 ar
   2    1    6 ar
   3    1   24 1
   4    2    3 ar
   5    2   25 1
   6    3    4 ar
   7    3   10 1
   8    4    5 ar
   9    4   26 1
  10    5    6 ar
  11    5    7 1
  12    6    9 1
  13    7    8 1
  14    8    9 2
  15    8   11 1
  16   11   12 am
  17   11   27 1
  18   12   13 2
  19   12   14 2
  20   12   15 1
  21   15   16 2
  22   15   17 1
  23   16   19 1
  24   16   28 1
  25   17   18 ar
  26   17   20 ar
  27   18   19 1
  28   18   23 ar
  29   20   21 ar
  30   20   29 1
  31   21   22 ar
  32   21   30 1
  33   22   23 ar
  34   22   31 1
  35   23   32 1

#	End of record

