#	Name: ASD03430723
#	Creating user name:	WinNT
#	Creation time:	15. 06. 2019 20:41

#	Modifying user name:	WinNT
#	Modification time:	15. 06. 2019 20:41

#	Program:	/corina/corina34_cracker 3.40 0067  02.08.2006

@<TRIPOS>MOLECULE
ASD03430723
  48   53    0    0    0
SMALL
NO_CHARGES


@<TRIPOS>ATOM
   1 C1            -0.0167     1.3821     0.0096 C.ar    
   2 C2             0.0021    -0.0041     0.0020 C.ar    
   3 C3             1.2029    -0.6816    -0.0154 C.ar    
   4 C4             2.4087     0.0135    -0.0154 C.ar    
   5 C5             2.3863     1.4046    -0.0119 C.ar    
   6 C6             1.1817     2.0867     0.0020 C.ar    
   7 O7             3.4717    -0.8411    -0.0035 O.3     
   8 C8             1.5516    -2.1451    -0.0480 C.3     
   9 C9             3.0377    -2.1456    -0.4326 C.3     
  10 C10            0.4304    -3.8658     1.0066 C.ar    
  11 C11            1.3154    -2.8194     1.2712 C.ar    
  12 C12            0.7204    -2.9091    -1.0382 C.2     
  13 N13            0.1046    -3.8894    -0.3482 N.am    
  14 O14            0.6223    -2.6873    -2.2265 O.2     
  15 C15            1.7761    -2.5957     2.5445 C.ar    
  16 C16            1.3597    -3.4222     3.5932 C.ar    
  17 C17            0.4752    -4.4725     3.3330 C.ar    
  18 C18            0.0180    -4.6896     2.0542 C.ar    
  19 C19           -0.8030    -4.8676    -0.9529 C.3     
  20 O20            1.1867     3.4483     0.0122 O.3     
  21 C21           -2.2131    -4.3374    -0.9110 C.ar    
  22 O22           -1.2109     2.0362     0.0189 O.3     
  23 C23           -1.1858     3.4155     0.4026 C.3     
  24 C24           -0.0357     4.1007    -0.3468 C.3     
  25 C25           -2.7254    -3.6723    -2.0086 C.ar    
  26 C26           -4.0240    -3.1884    -1.9599 C.ar    
  27 C27           -4.7614    -3.3927    -0.8038 C.ar    
  28 C28           -4.1818    -4.0672     0.2543 C.ar    
  29 N29           -2.9456    -4.5183     0.1707 N.ar    
  30 C30            1.8367    -3.1942     4.9240 C.1     
  31 N31            2.2150    -3.0133     5.9798 N.1     
  32 H32           -0.9268    -0.5550     0.0101 H       
  33 H33            3.3149     1.9560    -0.0200 H       
  34 H34            3.1586    -2.2587    -1.5100 H       
  35 H35            3.5758    -2.9280     0.1026 H       
  36 H36            2.4600    -1.7821     2.7366 H       
  37 H37            0.1502    -5.1152     4.1378 H       
  38 H38           -0.6653    -5.5031     1.8598 H       
  39 H39           -0.5112    -5.0424    -1.9884 H       
  40 H40           -0.7503    -5.8040    -0.3975 H       
  41 H41           -2.1311     3.8885     0.1365 H       
  42 H42           -1.0238     3.4953     1.4775 H       
  43 H43            0.0118     5.1525    -0.0646 H       
  44 H44           -0.1947     4.0148    -1.4217 H       
  45 H45           -2.1220    -3.5309    -2.8930 H       
  46 H46           -4.4507    -2.6644    -2.8024 H       
  47 H47           -5.7757    -3.0291    -0.7308 H       
  48 H48           -4.7494    -4.2301     1.1586 H       
@<TRIPOS>BOND
   1    1    2 ar
   2    1    6 ar
   3    1   22 1
   4    2    3 ar
   5    2   32 1
   6    3    4 ar
   7    3    8 1
   8    4    5 ar
   9    4    7 1
  10    5    6 ar
  11    5   33 1
  12    6   20 1
  13    7    9 1
  14    8    9 1
  15    8   11 1
  16    8   12 1
  17    9   34 1
  18    9   35 1
  19   10   11 ar
  20   10   13 1
  21   10   18 ar
  22   11   15 ar
  23   12   13 am
  24   12   14 2
  25   13   19 1
  26   15   16 ar
  27   15   36 1
  28   16   17 ar
  29   16   30 1
  30   17   18 ar
  31   17   37 1
  32   18   38 1
  33   19   21 1
  34   19   39 1
  35   19   40 1
  36   20   24 1
  37   21   25 ar
  38   21   29 ar
  39   22   23 1
  40   23   24 1
  41   23   41 1
  42   23   42 1
  43   24   43 1
  44   24   44 1
  45   25   26 ar
  46   25   45 1
  47   26   27 ar
  48   26   46 1
  49   27   28 ar
  50   27   47 1
  51   28   29 ar
  52   28   48 1
  53   30   31 3

#	End of record

