#	Name: ASD02560057
#	Creating user name:	WinNT
#	Creation time:	15. 06. 2019 20:24

#	Modifying user name:	WinNT
#	Modification time:	15. 06. 2019 20:24

#	Program:	/corina/corina34_cracker 3.40 0067  02.08.2006

@<TRIPOS>MOLECULE
ASD02560057
  43   45    0    0    0
SMALL
NO_CHARGES


@<TRIPOS>ATOM
   1 C1             1.4868    -0.6407     0.5169 C.ar    
   2 C2             0.8841    -0.8746    -0.7055 C.ar    
   3 C3             1.3394    -0.2273    -1.8395 C.ar    
   4 C4             2.3982     0.6553    -1.7545 C.ar    
   5 C5             3.0055     0.8929    -0.5282 C.ar    
   6 C6             2.5458     0.2410     0.6089 C.ar    
   7 C7             2.8943     1.3595    -2.9910 C.3     
   8 N8             2.6551     3.5884    -0.9345 N.ar    
   9 C9             3.8666     3.1392    -0.6150 C.ar    
  10 N10            4.0781     1.7856    -0.4387 N.pl3   
  11 C11            2.4520     4.8833    -1.1038 C.ar    
  12 N12            3.4498     5.7370    -0.9566 N.ar    
  13 C13            4.6643     5.2953    -0.6371 C.ar    
  14 N14            4.8724     3.9946    -0.4662 N.ar    
  15 N15            5.7069     6.1889    -0.4830 N.pl3   
  16 C16            5.5179     7.5382    -0.7779 C.ar    
  17 C17            4.6589     7.9099    -1.8075 C.ar    
  18 C18            4.4698     9.2415    -2.1014 C.ar    
  19 C19            5.1416    10.2206    -1.3638 C.ar    
  20 C20            6.0035     9.8436    -0.3298 C.ar    
  21 C21            6.1842     8.5103    -0.0382 C.ar    
  22 C22            3.2014     0.4961     1.9416 C.3     
  23 C23           -0.2712    -1.8375    -0.8021 C.3     
  24 C24            4.9478    11.6067    -1.6670 C.1     
  25 N25            4.7940    12.7062    -1.9076 N.1     
  26 H26            1.1262    -1.1447     1.4014 H       
  27 H27            0.8667    -0.4125    -2.7927 H       
  28 H28            2.3493     2.2946    -3.1200 H       
  29 H29            3.9586     1.5707    -2.8865 H       
  30 H30            2.7340     0.7226    -3.8609 H       
  31 H31            4.9706     1.4543    -0.2528 H       
  32 H32            1.4679     5.2446    -1.3634 H       
  33 H33            6.5704     5.8773    -0.1697 H       
  34 H34            4.1402     7.1529    -2.3770 H       
  35 H35            3.8035     9.5293    -2.9012 H       
  36 H36            6.5242    10.5974     0.2421 H       
  37 H37            6.8499     8.2182     0.7605 H       
  38 H38            2.7648     1.3849     2.3972 H       
  39 H39            3.0430    -0.3621     2.5947 H       
  40 H40            4.2708     0.6500     1.7969 H       
  41 H41           -1.2066    -1.2992    -0.6489 H       
  42 H42           -0.2762    -2.3012    -1.7885 H       
  43 H43           -0.1665    -2.6084    -0.0387 H       
@<TRIPOS>BOND
   1    1    2 ar
   2    1    6 ar
   3    1   26 1
   4    2    3 ar
   5    2   23 1
   6    3    4 ar
   7    3   27 1
   8    4    5 ar
   9    4    7 1
  10    5    6 ar
  11    5   10 1
  12    6   22 1
  13    7   28 1
  14    7   29 1
  15    7   30 1
  16    8    9 ar
  17    8   11 ar
  18    9   10 1
  19    9   14 ar
  20   10   31 1
  21   11   12 ar
  22   11   32 1
  23   12   13 ar
  24   13   14 ar
  25   13   15 1
  26   15   16 1
  27   15   33 1
  28   16   17 ar
  29   16   21 ar
  30   17   18 ar
  31   17   34 1
  32   18   19 ar
  33   18   35 1
  34   19   20 ar
  35   19   24 1
  36   20   21 ar
  37   20   36 1
  38   21   37 1
  39   22   38 1
  40   22   39 1
  41   22   40 1
  42   23   41 1
  43   23   42 1
  44   23   43 1
  45   24   25 3

#	End of record

