#	Name: ASD01884290
#	Creating user name:	WinNT
#	Creation time:	15. 06. 2019 19:47

#	Modifying user name:	WinNT
#	Modification time:	15. 06. 2019 19:47

#	Program:	/corina/corina34_cracker 3.40 0067  02.08.2006

@<TRIPOS>MOLECULE
ASD01884290
  31   31    0    0    0
SMALL
NO_CHARGES


@<TRIPOS>ATOM
   1 O1             0.8615     1.1579    -0.0327 O.3     
   2 C2             1.2170     1.0142    -1.3322 C.2     
   3 C3             1.5364    -0.2322    -1.8389 C.2     
   4 C4             1.2613     2.1315    -2.1895 C.2     
   5 C5             1.6175     1.9723    -3.4821 C.2     
   6 N6             1.9352     0.7451    -3.9724 N.am    
   7 C7             1.8999    -0.3471    -3.1866 C.2     
   8 O8             2.1895    -1.4399    -3.6487 O.2     
   9 C9             2.3169     0.6082    -5.3801 C.3     
  10 C10            3.8314     0.7770    -5.5167 C.3     
  11 C11            4.2301     0.6340    -6.9869 C.3     
  12 C12            5.7446     0.8028    -7.1234 C.3     
  13 Cl13           1.4880    -1.6355    -0.8182 Cl      
  14 S14           -0.5245     1.7539     0.1677 S.o2    
  15 O15           -0.6923     2.6304    -0.9381 O.2     
  16 O16           -1.3695     0.6248     0.3423 O.2     
  17 F17            0.4861     3.7686     1.5312 F       
  18 F18           -1.6551     3.1824     2.0705 F       
  19 C19           -0.3933     2.6958     1.7124 C.3     
  20 F20            0.0903     1.8626     2.7269 F       
  21 H21            1.0107     3.1126    -1.8138 H       
  22 H22            1.6500     2.8317    -4.1354 H       
  23 H23            2.0274    -0.3789    -5.7407 H       
  24 H24            1.8115     1.3731    -5.9697 H       
  25 H25            4.1210     1.7640    -5.1561 H       
  26 H26            4.3369     0.0121    -4.9271 H       
  27 H27            3.9405    -0.3531    -7.3475 H       
  28 H28            3.7246     1.3988    -7.5764 H       
  29 H29            6.2500     0.0379    -6.5338 H       
  30 H30            6.0286     0.7009    -8.1708 H       
  31 H31            6.0341     1.7898    -6.7628 H       
@<TRIPOS>BOND
   1    1    2 1
   2    1   14 1
   3    2    3 2
   4    2    4 1
   5    3   13 1
   6    3    7 1
   7    4    5 2
   8    4   21 1
   9    5    6 1
  10    5   22 1
  11    6    7 am
  12    6    9 1
  13    7    8 2
  14    9   10 1
  15    9   23 1
  16    9   24 1
  17   10   11 1
  18   10   25 1
  19   10   26 1
  20   11   12 1
  21   11   27 1
  22   11   28 1
  23   12   29 1
  24   12   30 1
  25   12   31 1
  26   14   19 1
  27   14   15 2
  28   14   16 2
  29   17   19 1
  30   18   19 1
  31   19   20 1

#	End of record

