#	Name: ASD01870153
#	Creating user name:	WinNT
#	Creation time:	15. 06. 2019 19:38

#	Modifying user name:	WinNT
#	Modification time:	15. 06. 2019 19:38

#	Program:	/corina/corina34_cracker 3.40 0067  02.08.2006

@<TRIPOS>MOLECULE
ASD01870153
  41   44    0    0    0
SMALL
NO_CHARGES


@<TRIPOS>ATOM
   1 C1            -0.1275     1.2468     0.2147 C.ar    
   2 C2            -0.1910    -0.1060    -0.1333 C.ar    
   3 C3             1.0550     1.7745     0.7425 C.ar    
   4 C4             2.1516     0.9609     0.9175 C.ar    
   5 C5             2.0845    -0.3843     0.5701 C.ar    
   6 C6             0.9100    -0.9130     0.0448 C.ar    
   7 N7             3.2002    -1.2068     0.7489 N.am    
   8 C8             3.2303    -2.2025     1.6433 C.2     
   9 C9             4.3247    -1.0674     0.0360 C.2     
  10 C10            5.3270    -2.1113     0.4780 C.3     
  11 C11            4.5773    -2.8889     1.5790 C.3     
  12 O12            4.5105    -0.2368    -0.8272 O.2     
  13 O13            2.3225    -2.5059     2.3871 O.2     
  14 C14            4.9801    -3.5887     0.2830 C.3     
  15 C15            3.8675    -3.9260    -0.7115 C.3     
  16 C16            6.1283    -4.5974     0.3537 C.3     
  17 C17           -1.3032     2.1165     0.0198 C.2     
  18 C18           -1.4408     3.3595     0.8059 C.ar    
  19 O19           -2.1589     1.8101    -0.7879 O.2     
  20 C20           -2.2452     4.4009     0.3365 C.ar    
  21 C21           -2.3699     5.5583     1.0751 C.ar    
  22 C22           -1.6993     5.6901     2.2802 C.ar    
  23 C23           -0.7718     3.4963     2.0247 C.ar    
  24 C24           -0.9001     4.6610     2.7511 C.ar    
  25 Cl25          -1.8605     7.1511     3.2038 Cl      
  26 H26           -1.1026    -0.5173    -0.5409 H       
  27 H27            1.1080     2.8189     1.0121 H       
  28 H28            3.0654     1.3678     1.3248 H       
  29 H29            0.8618    -1.9580    -0.2238 H       
  30 H30            6.3670    -1.8035     0.5856 H       
  31 H31            5.0509    -3.1675     2.5204 H       
  32 H32            3.3675    -3.0087    -1.0223 H       
  33 H33            4.2968    -4.4192    -1.5836 H       
  34 H34            3.1453    -4.5905    -0.2371 H       
  35 H35            5.8661    -5.3985     1.0448 H       
  36 H36            6.3059    -5.0158    -0.6370 H       
  37 H37            7.0309    -4.0965     0.7038 H       
  38 H38           -2.7679     4.2996    -0.6031 H       
  39 H39           -2.9914     6.3640     0.7134 H       
  40 H40           -0.1518     2.6932     2.3948 H       
  41 H41           -0.3796     4.7699     3.6911 H       
@<TRIPOS>BOND
   1    1    2 ar
   2    1    3 ar
   3    1   17 1
   4    2    6 ar
   5    2   26 1
   6    3    4 ar
   7    3   27 1
   8    4    5 ar
   9    4   28 1
  10    5    6 ar
  11    5    7 1
  12    6   29 1
  13    7    8 am
  14    7    9 am
  15    8   13 2
  16    8   11 1
  17    9   12 2
  18    9   10 1
  19   10   11 1
  20   10   14 1
  21   10   30 1
  22   11   14 1
  23   11   31 1
  24   14   15 1
  25   14   16 1
  26   15   32 1
  27   15   33 1
  28   15   34 1
  29   16   35 1
  30   16   36 1
  31   16   37 1
  32   17   18 1
  33   17   19 2
  34   18   20 ar
  35   18   23 ar
  36   20   21 ar
  37   20   38 1
  38   21   22 ar
  39   21   39 1
  40   22   24 ar
  41   22   25 1
  42   23   24 ar
  43   23   40 1
  44   24   41 1

#	End of record

