#	Name: ASD03320227
#	Creating user name:	WinNT
#	Creation time:	15. 06. 2019 20:36

#	Modifying user name:	WinNT
#	Modification time:	15. 06. 2019 20:36

#	Program:	/corina/corina34_cracker 3.40 0067  02.08.2006

@<TRIPOS>MOLECULE
ASD03320227
  66   70    0    0    0
SMALL
NO_CHARGES


@<TRIPOS>ATOM
   1 C1            -0.0297     1.3777    -0.0514 C.ar    
   2 C2            -0.0210    -0.0030    -0.0773 C.ar    
   3 C3             0.8953    -0.7085     0.6763 C.ar    
   4 C4             1.8228    -0.0275     1.4720 C.ar    
   5 C5             1.8191     1.3683     1.5017 C.ar    
   6 C6             0.8906     2.0717     0.7385 C.ar    
   7 C7             0.8962    -2.2151     0.6422 C.3     
   8 C8             0.8789     3.5498     0.7635 C.2     
   9 N9            -0.0199     4.2293     0.0240 N.am    
  10 O10            1.6801     4.1524     1.4511 O.2     
  11 C11           -0.0961     5.6222     0.1220 C.ar    
  12 C12            2.7730    -0.7599     2.2539 C.1     
  13 C13            3.5519    -1.3604     2.8950 C.1     
  14 C14            4.5020    -2.0928     3.6770 C.2     
  15 C15            5.4753    -1.5626     4.5076 C.2     
  16 N16            6.1489    -2.5677     5.0518 N.2     
  17 N17            4.6227    -3.4593     3.7547 N.pl3   
  18 N18            3.9257    -4.5117     3.1538 N.2     
  19 C19            5.6591    -3.7224     4.6139 C.2     
  20 C20            6.0066    -5.0601     4.8753 C.2     
  21 C21            5.3092    -6.0595     4.2655 C.2     
  22 C22            4.2491    -5.7532     3.4038 C.2     
  23 C23           -1.3974     7.6364     0.1202 C.ar    
  24 C24           -0.2466     8.3783     0.3149 C.ar    
  25 C25            0.9796     7.7463     0.4081 C.ar    
  26 C26            1.0582     6.3706     0.3122 C.ar    
  27 C27           -1.3258     6.2608     0.0235 C.ar    
  28 C28           -0.3285     9.8795     0.4194 C.3     
  29 C29           -2.7318     8.3295     0.0196 C.3     
  30 N30           -2.8989     8.8763    -1.3335 N.3     
  31 C31           -2.9921     7.7992    -2.3290 C.3     
  32 C32           -4.0726     9.7578    -1.4041 C.3     
  33 C33           -4.1656    10.3678    -2.8047 C.3     
  34 N34           -4.2588     9.2908    -3.8001 N.3     
  35 C35           -3.0851     8.4093    -3.7295 C.3     
  36 C36           -4.4259     9.8375    -5.1533 C.3     
  37 F37            0.9538    10.4041     0.6134 F       
  38 F38           -0.8719    10.4001    -0.7599 F       
  39 F39           -1.1435    10.2277     1.5019 F       
  40 H40           -0.7471     1.9228    -0.6470 H       
  41 H41           -0.7350    -0.5334    -0.6899 H       
  42 H42            2.5325     1.9000     2.1139 H       
  43 H43            1.5574    -2.5601    -0.1527 H       
  44 H44            1.2475    -2.6000     1.5996 H       
  45 H45           -0.1155    -2.5749     0.4550 H       
  46 H46           -0.6140     3.7521    -0.5762 H       
  47 H47            5.6549    -0.5120     4.6822 H       
  48 H48            6.8165    -5.2924     5.5510 H       
  49 H49            5.5662    -7.0907     4.4579 H       
  50 H50            3.6989    -6.5530     2.9305 H       
  51 H51            1.8765     8.3285     0.5598 H       
  52 H52            2.0162     5.8774     0.3854 H       
  53 H53           -2.2248     5.6820    -0.1289 H       
  54 H54           -3.5289     7.6145     0.2236 H       
  55 H55           -2.7759     9.1401     0.7471 H       
  56 H56           -2.1060     7.1677    -2.2655 H       
  57 H57           -3.8812     7.1996    -2.1337 H       
  58 H58           -4.9739     9.1804    -1.1984 H       
  59 H59           -3.9742    10.5541    -0.6664 H       
  60 H60           -5.0517    10.9994    -2.8682 H       
  61 H61           -3.2765    10.9675    -2.9999 H       
  62 H62           -2.1837     8.9866    -3.9353 H       
  63 H63           -3.1835     7.6129    -4.4673 H       
  64 H64           -3.5708    10.4673    -5.3989 H       
  65 H65           -4.4922     9.0192    -5.8702 H       
  66 H66           -5.3386    10.4318    -5.1949 H       
@<TRIPOS>BOND
   1    1    2 ar
   2    1    6 ar
   3    1   40 1
   4    2    3 ar
   5    2   41 1
   6    3    4 ar
   7    3    7 1
   8    4    5 ar
   9    4   12 1
  10    5    6 ar
  11    5   42 1
  12    6    8 1
  13    7   43 1
  14    7   44 1
  15    7   45 1
  16    8    9 am
  17    8   10 2
  18    9   11 1
  19    9   46 1
  20   11   27 ar
  21   11   26 ar
  22   12   13 3
  23   13   14 1
  24   14   15 2
  25   14   17 1
  26   15   16 1
  27   15   47 1
  28   16   19 2
  29   17   19 1
  30   17   18 1
  31   18   22 2
  32   19   20 1
  33   20   21 2
  34   20   48 1
  35   21   22 1
  36   21   49 1
  37   22   50 1
  38   23   24 ar
  39   23   27 ar
  40   23   29 1
  41   24   25 ar
  42   24   28 1
  43   25   26 ar
  44   25   51 1
  45   26   52 1
  46   27   53 1
  47   28   37 1
  48   28   38 1
  49   28   39 1
  50   29   30 1
  51   29   54 1
  52   29   55 1
  53   30   32 1
  54   30   31 1
  55   31   35 1
  56   31   56 1
  57   31   57 1
  58   32   33 1
  59   32   58 1
  60   32   59 1
  61   33   34 1
  62   33   60 1
  63   33   61 1
  64   34   35 1
  65   34   36 1
  66   35   62 1
  67   35   63 1
  68   36   64 1
  69   36   65 1
  70   36   66 1

#	End of record

