#	Name: ASD01814139
#	Creating user name:	WinNT
#	Creation time:	15. 06. 2019 19:31

#	Modifying user name:	WinNT
#	Modification time:	15. 06. 2019 19:31

#	Program:	/corina/corina34_cracker 3.40 0067  02.08.2006

@<TRIPOS>MOLECULE
ASD01814139
  53   57    0    0    0
SMALL
NO_CHARGES


@<TRIPOS>ATOM
   1 N1             0.7504     1.1899    -0.5660 N.2     
   2 C2             0.9218    -0.0931    -0.7814 C.2     
   3 C3             2.1810    -0.5851    -1.1576 C.2     
   4 C4             3.2189     0.2766    -1.2965 C.2     
   5 N5             3.0130     1.6070    -1.0662 N.pl3   
   6 C6             1.7684     2.0504    -0.7002 C.2     
   7 N7             3.8591     2.7192    -1.1234 N.2     
   8 C8             3.1693     3.7968    -0.8077 C.2     
   9 C9             1.8624     3.4274    -0.5374 C.2     
  10 C10            3.2950     5.2907    -0.6366 C.3     
  11 N11            1.9803     5.8073    -0.2438 N.am    
  12 C12            1.0715     4.6584    -0.1762 C.3     
  13 C13            1.6666     7.0937     0.0076 C.2     
  14 O14            0.5131     7.4054     0.2329 O.2     
  15 C15            2.7228     8.1238     0.0094 C.ar    
  16 C16            2.7842     9.0684     1.0427 C.ar    
  17 C17            3.6711     8.1596    -1.0160 C.ar    
  18 C18            4.6549     9.1241    -1.0085 C.ar    
  19 C19            4.7091    10.0596     0.0121 C.ar    
  20 C20            3.7815    10.0324     1.0342 C.ar    
  21 O21            1.8721     9.0405     2.0465 O.3     
  22 C22            2.0622     9.9625     3.1216 C.3     
  23 C23            1.3659     9.4423     4.3914 C.3     
  24 C24            4.5810    -0.2270    -1.6991 C.3     
  25 Cl25           2.4083    -2.2825    -1.4421 Cl      
  26 C26           -0.2382    -1.0420    -0.6236 C.3     
  27 O27            2.3183     9.2950     5.4465 O.3     
  28 C28            1.4034    11.3151     2.7804 C.3     
  29 C29            0.8236    11.8063     4.1301 C.3     
  30 C30            0.3083    10.4969     4.7775 C.3     
  31 H31            4.0265     5.5133     0.1402 H       
  32 H32            3.6044     5.7456    -1.5776 H       
  33 H33            0.2529     4.7923    -0.8833 H       
  34 H34            0.6756     4.5599     0.8346 H       
  35 H35            3.6331     7.4320    -1.8132 H       
  36 H36            5.3875     9.1509    -1.8017 H       
  37 H37            5.4842    10.8117     0.0103 H       
  38 H38            3.8325    10.7627     1.8283 H       
  39 H39            3.1267    10.1025     3.3093 H       
  40 H40            0.8838     8.4862     4.1878 H       
  41 H41            4.5432    -1.3078    -1.8354 H       
  42 H42            4.8820     0.2467    -2.6335 H       
  43 H43            5.3031     0.0158    -0.9196 H       
  44 H44           -1.1269    -0.4837    -0.3293 H       
  45 H45           -0.4245    -1.5487    -1.5706 H       
  46 H46           -0.0023    -1.7800     0.1431 H       
  47 H47            1.9368     8.9899     6.2810 H       
  48 H48            2.1476    12.0183     2.4064 H       
  49 H49            0.6060    11.1776     2.0501 H       
  50 H50            1.6025    12.2598     4.7430 H       
  51 H51            0.0033    12.5052     3.9666 H       
  52 H52           -0.6659    10.2274     4.3697 H       
  53 H53            0.2533    10.6030     5.8610 H       
@<TRIPOS>BOND
   1    1    2 2
   2    1    6 1
   3    2    3 1
   4    2   26 1
   5    3    4 2
   6    3   25 1
   7    4    5 1
   8    4   24 1
   9    5    7 1
  10    5    6 1
  11    6    9 2
  12    7    8 2
  13    8   10 1
  14    8    9 1
  15    9   12 1
  16   10   11 1
  17   10   31 1
  18   10   32 1
  19   11   12 1
  20   11   13 am
  21   12   33 1
  22   12   34 1
  23   13   14 2
  24   13   15 1
  25   15   17 ar
  26   15   16 ar
  27   16   20 ar
  28   16   21 1
  29   17   18 ar
  30   17   35 1
  31   18   19 ar
  32   18   36 1
  33   19   20 ar
  34   19   37 1
  35   20   38 1
  36   21   22 1
  37   22   28 1
  38   22   23 1
  39   22   39 1
  40   23   27 1
  41   23   30 1
  42   23   40 1
  43   24   41 1
  44   24   42 1
  45   24   43 1
  46   26   44 1
  47   26   45 1
  48   26   46 1
  49   27   47 1
  50   28   29 1
  51   28   48 1
  52   28   49 1
  53   29   30 1
  54   29   50 1
  55   29   51 1
  56   30   52 1
  57   30   53 1

#	End of record

