#	Name: ASD01812653
#	Creating user name:	WinNT
#	Creation time:	15. 06. 2019 19:29

#	Modifying user name:	WinNT
#	Modification time:	15. 06. 2019 19:29

#	Program:	/corina/corina34_cracker 3.40 0067  02.08.2006

@<TRIPOS>MOLECULE
ASD01812653
  55   59    0    0    0
SMALL
NO_CHARGES


@<TRIPOS>ATOM
   1 O1            -0.0163     1.3521     0.0095 O.3     
   2 C2             0.1657     0.0957     0.4869 C.ar    
   3 C3             1.4429    -0.3625     0.7746 C.ar    
   4 C4             1.6301    -1.6414     1.2607 C.ar    
   5 C5             0.5436    -2.4781     1.4648 C.ar    
   6 C6            -0.7278    -2.0382     1.1844 C.ar    
   7 C7            -0.9368    -0.7447     0.6976 C.ar    
   8 C8            -2.0897    -2.6780     1.2905 C.3     
   9 N9            -3.0524    -1.6702     0.8312 N.am    
  10 C10           -2.3828    -0.5530     0.4989 C.2     
  11 C11           -4.5048    -1.8479     0.7590 C.3     
  12 O12           -2.8969     0.4658     0.0793 O.2     
  13 C13            1.0876     2.0927    -0.2756 C.ar    
  14 C14           -5.1284    -1.4230     2.0635 C.ar    
  15 C15           -5.5294    -0.1112     2.2406 C.ar    
  16 C16           -6.1011     0.2832     3.4334 C.ar    
  17 C17           -6.2739    -0.6426     4.4598 C.ar    
  18 C18           -5.8682    -1.9625     4.2761 C.ar    
  19 C19           -5.3028    -2.3476     3.0773 C.ar    
  20 C20           -6.8878    -0.2238     5.7452 C.2     
  21 C21           -7.3420     1.0696     6.0683 C.2     
  22 N22           -7.8168     1.0409     7.2853 N.2     
  23 N23           -7.6858    -0.2611     7.7834 N.pl3   
  24 C24           -7.1200    -1.0234     6.8260 C.2     
  25 C25           -8.0971    -0.7174     9.1133 C.3     
  26 C26            1.6621     2.0245    -1.5365 C.ar    
  27 C27            2.7836     2.7769    -1.8260 C.ar    
  28 C28            3.3355     3.6007    -0.8561 C.ar    
  29 C29            2.7612     3.6690     0.4047 C.ar    
  30 C30            1.6363     2.9210     0.6926 C.ar    
  31 O31            4.4398     4.3411    -1.1411 O.3     
  32 C32            4.9547     5.1672    -0.0950 C.3     
  33 H33            2.2941     0.2833     0.6175 H       
  34 H34            2.6274    -1.9915     1.4825 H       
  35 H35            0.6968    -3.4775     1.8446 H       
  36 H36           -2.1394    -3.5613     0.6538 H       
  37 H37           -2.2966    -2.9495     2.3257 H       
  38 H38           -4.9056    -1.2384    -0.0509 H       
  39 H39           -4.7336    -2.8970     0.5716 H       
  40 H40           -5.3946     0.6058     1.4443 H       
  41 H41           -6.4136     1.3079     3.5708 H       
  42 H42           -5.9996    -2.6841     5.0689 H       
  43 H43           -4.9919    -3.3717     2.9323 H       
  44 H44           -7.3041     1.9346     5.4227 H       
  45 H45           -6.8903    -2.0760     6.9018 H       
  46 H46           -9.1293    -1.0655     9.0749 H       
  47 H47           -7.4499    -1.5340     9.4335 H       
  48 H48           -8.0180     0.1078     9.8211 H       
  49 H49            1.2326     1.3829    -2.2916 H       
  50 H50            3.2310     2.7236    -2.8076 H       
  51 H51            3.1910     4.3104     1.1598 H       
  52 H52            1.1864     2.9778     1.6728 H       
  53 H53            4.1924     5.8840     0.2105 H       
  54 H54            5.2308     4.5453     0.7566 H       
  55 H55            5.8337     5.7025    -0.4540 H       
@<TRIPOS>BOND
   1    1    2 1
   2    1   13 1
   3    2    3 ar
   4    2    7 ar
   5    3    4 ar
   6    3   33 1
   7    4    5 ar
   8    4   34 1
   9    5    6 ar
  10    5   35 1
  11    6    8 1
  12    6    7 ar
  13    7   10 1
  14    8    9 1
  15    8   36 1
  16    8   37 1
  17    9   10 am
  18    9   11 1
  19   10   12 2
  20   11   14 1
  21   11   38 1
  22   11   39 1
  23   13   26 ar
  24   13   30 ar
  25   14   15 ar
  26   14   19 ar
  27   15   16 ar
  28   15   40 1
  29   16   17 ar
  30   16   41 1
  31   17   18 ar
  32   17   20 1
  33   18   19 ar
  34   18   42 1
  35   19   43 1
  36   20   21 1
  37   20   24 2
  38   21   22 2
  39   21   44 1
  40   22   23 1
  41   23   24 1
  42   23   25 1
  43   24   45 1
  44   25   46 1
  45   25   47 1
  46   25   48 1
  47   26   27 ar
  48   26   49 1
  49   27   28 ar
  50   27   50 1
  51   28   29 ar
  52   28   31 1
  53   29   30 ar
  54   29   51 1
  55   30   52 1
  56   31   32 1
  57   32   53 1
  58   32   54 1
  59   32   55 1

#	End of record

