#	Name: ASD02030140
#	Creating user name:	WinNT
#	Creation time:	15. 06. 2019 20:14

#	Modifying user name:	WinNT
#	Modification time:	15. 06. 2019 20:14

#	Program:	/corina/corina34_cracker 3.40 0067  02.08.2006

@<TRIPOS>MOLECULE
ASD02030140
  59   63    0    0    0
SMALL
NO_CHARGES


@<TRIPOS>ATOM
   1 N1            -0.3593     1.4474    -0.3937 N.am    
   2 C2            -0.3870    -0.0213    -0.3516 C.3     
   3 C3            -1.1720    -0.4613     0.8904 C.3     
   4 N4            -2.4449     0.2724     0.9256 N.am    
   5 C5            -2.4173     1.7412     0.8834 C.3     
   6 C6            -1.6320     2.1813    -0.3529 C.3     
   7 C7             0.8124     2.1097    -0.4630 C.2     
   8 C8             2.0876     1.3669    -0.3757 C.2     
   9 N9             3.2897     1.8980    -0.3137 N.2     
  10 N10            2.2230     0.0286    -0.3397 N.2     
  11 C11            3.5034    -0.2309    -0.2618 C.2     
  12 N12            4.1581     0.9484    -0.2464 N.pl3   
  13 O13            0.8207     3.3179    -0.5973 O.2     
  14 C14           -3.6167    -0.3899     0.9949 C.2     
  15 C15           -3.6350    -1.8654     0.9426 C.ar    
  16 O16           -4.6587     0.2276     1.1004 O.2     
  17 C17           -1.3575     3.6846    -0.2786 C.3     
  18 C18           -2.4393     1.8649    -1.6135 C.3     
  19 C19            5.5477     1.1129    -0.1705 C.ar    
  20 C20            6.0979     2.3878    -0.1628 C.ar    
  21 C21            7.4678     2.5467    -0.0880 C.ar    
  22 C22            8.2913     1.4378    -0.0213 C.ar    
  23 C23            7.7464     0.1669    -0.0288 C.ar    
  24 C24            6.3769     0.0016    -0.0972 C.ar    
  25 C25           -2.7452    -2.5999     1.7212 C.ar    
  26 C26           -2.7730    -3.9906     1.6626 C.ar    
  27 C27           -3.6960    -4.6422     0.8205 C.ar    
  28 C28           -4.5778    -3.8872     0.0500 C.ar    
  29 C29           -4.5522    -2.5254     0.1133 C.ar    
  30 C30           -2.0074    -5.0524     2.3220 C.2     
  31 C31           -2.4857    -6.2200     1.8655 C.2     
  32 N32           -3.4942    -5.9932     0.9683 N.pl3   
  33 C33           -1.9861    -7.5803     2.2791 C.3     
  34 H34           -0.8756    -0.4039    -1.2477 H       
  35 H35            0.6317    -0.4049    -0.2953 H       
  36 H36           -1.3683    -1.5322     0.8387 H       
  37 H37           -0.5947    -0.2355     1.7870 H       
  38 H38           -3.4360     2.1248     0.8271 H       
  39 H39           -1.9287     2.1238     1.7795 H       
  40 H40            3.9540    -1.2113    -0.2151 H       
  41 H41           -0.6874     3.8908     0.5560 H       
  42 H42           -0.8932     4.0155    -1.2076 H       
  43 H43           -2.2962     4.2185    -0.1313 H       
  44 H44           -3.3896     2.3976    -1.5796 H       
  45 H45           -1.8777     2.1794    -2.4931 H       
  46 H46           -2.6258     0.7922    -1.6658 H       
  47 H47            5.4553     3.2542    -0.2156 H       
  48 H48            7.8964     3.5380    -0.0819 H       
  49 H49            9.3623     1.5646     0.0364 H       
  50 H50            8.3921    -0.6972     0.0234 H       
  51 H51            5.9518    -0.9912    -0.1027 H       
  52 H52           -2.0395    -2.0955     2.3647 H       
  53 H53           -5.2869    -4.3826    -0.5967 H       
  54 H54           -5.2402    -1.9493    -0.4877 H       
  55 H55           -1.2099    -4.9202     3.0383 H       
  56 H56           -3.9927    -6.6843     0.5049 H       
  57 H57           -2.5506    -7.9270     3.1446 H       
  58 H58           -2.1172    -8.2816     1.4550 H       
  59 H59           -0.9289    -7.5161     2.5368 H       
@<TRIPOS>BOND
   1    1    2 1
   2    1    7 am
   3    1    6 1
   4    2    3 1
   5    2   34 1
   6    2   35 1
   7    3    4 1
   8    3   36 1
   9    3   37 1
  10    4    5 1
  11    4   14 am
  12    5    6 1
  13    5   38 1
  14    5   39 1
  15    6   17 1
  16    6   18 1
  17    7    8 1
  18    7   13 2
  19    8    9 2
  20    8   10 1
  21    9   12 1
  22   10   11 2
  23   11   12 1
  24   11   40 1
  25   12   19 1
  26   14   15 1
  27   14   16 2
  28   15   25 ar
  29   15   29 ar
  30   17   41 1
  31   17   42 1
  32   17   43 1
  33   18   44 1
  34   18   45 1
  35   18   46 1
  36   19   20 ar
  37   19   24 ar
  38   20   21 ar
  39   20   47 1
  40   21   22 ar
  41   21   48 1
  42   22   23 ar
  43   22   49 1
  44   23   24 ar
  45   23   50 1
  46   24   51 1
  47   25   26 ar
  48   25   52 1
  49   26   27 ar
  50   26   30 1
  51   27   28 ar
  52   27   32 1
  53   28   29 ar
  54   28   53 1
  55   29   54 1
  56   30   31 2
  57   30   55 1
  58   31   32 1
  59   31   33 1
  60   32   56 1
  61   33   57 1
  62   33   58 1
  63   33   59 1

#	End of record

