#	Name: ASD05870002
#	Creating user name:	WinNT
#	Creation time:	15. 06. 2019 21:04

#	Modifying user name:	WinNT
#	Modification time:	15. 06. 2019 21:04

#	Program:	/corina/corina34_cracker 3.40 0067  02.08.2006

@<TRIPOS>MOLECULE
ASD05870002
 101  103    0    0    0
SMALL
NO_CHARGES


@<TRIPOS>ATOM
   1 C1            -0.3332    -0.0557    11.3422 C.3     
   2 C2            -1.3017     0.7465    10.4707 C.3     
   3 C3            -0.7436     0.8496     9.0499 C.3     
   4 C4            -2.6593     0.0418    10.4355 C.3     
   5 O5            -3.2337     0.0487    11.7439 O.3     
   6 C6             0.5936     1.5437     9.0846 C.ar    
   7 O7            -0.5857    -0.4614     8.5038 O.3     
   8 C8             1.7411     0.8173     9.3411 C.ar    
   9 C9             2.9705     1.4496     9.3741 C.ar    
  10 C10            3.0538     2.8140     9.1497 C.ar    
  11 C11            1.8982     3.5456     8.8913 C.ar    
  12 C12            0.6705     2.9051     8.8542 C.ar    
  13 O13            1.9749     4.8853     8.6703 O.3     
  14 C14            0.7483     5.5714     8.4117 C.3     
  15 O15            4.2620     3.4374     9.1821 O.3     
  16 C16            5.4139     2.6109     9.3614 C.3     
  17 C17            6.6471     3.3276     8.8078 C.3     
  18 C18            5.6134     2.3304    10.8522 C.3     
  19 O19            5.9043     3.5532    11.5321 O.3     
  20 C20            7.8378     2.4067     8.8795 C.ar    
  21 O21            6.4123     3.6978     7.4477 O.3     
  22 C22            8.6944     2.4693     9.9612 C.ar    
  23 C23            9.7903     1.6208    10.0269 C.ar    
  24 C24           10.0226     0.7116     9.0054 C.ar    
  25 C25            9.1628     0.6529     7.9255 C.ar    
  26 C26            8.0687     1.4958     7.8650 C.ar    
  27 O27           10.6348     1.6807    11.0899 O.3     
  28 C28           10.3339     2.6414    12.1041 C.3     
  29 C29           11.2122    -0.2111     9.0732 C.3     
  30 O30           11.2342    -1.0460     7.9137 O.3     
  31 C31           12.3290    -1.9637     7.8789 C.3     
  32 C32           11.9145    -3.2235     7.1160 C.3     
  33 C33           13.5201    -1.3101     7.1753 C.3     
  34 C34           13.0369    -4.2282     7.1578 C.ar    
  35 O35           13.1862    -1.0573     5.8091 O.3     
  36 O36           10.7490    -3.7857     7.7223 O.3     
  37 C37           13.1582    -5.0819     8.2380 C.ar    
  38 C38           14.1864    -6.0056     8.2810 C.ar    
  39 C39           15.0973    -6.0771     7.2399 C.ar    
  40 C40           14.9749    -5.2176     6.1518 C.ar    
  41 C41           13.9398    -4.2979     6.1127 C.ar    
  42 O42           16.1093    -6.9846     7.2810 O.3     
  43 C43           16.1732    -7.8336     8.4286 C.3     
  44 O44           15.8669    -5.2836     5.1275 O.3     
  45 C45           15.6794    -4.3709     4.0441 C.3     
  46 S46            6.0089     3.4111    13.0439 S.o2    
  47 O47            6.9931     2.3865    13.0743 O.2     
  48 O48            6.4156     4.7411    13.3355 O.2     
  49 O49            4.6579     3.0515    13.2983 O.2     
  50 S50            6.5958     5.1829     7.1697 S.o2    
  51 O51            7.9756     5.2720     7.4976 O.2     
  52 O52            6.2321     5.1690     5.7962 O.2     
  53 O53            5.6498     5.6739     8.1095 O.2     
  54 S54           14.2582    -0.2983     5.0401 S.o2    
  55 O55           15.3351    -1.1958     5.2725 O.2     
  56 O56           13.6318    -0.3179     3.7647 O.2     
  57 O57           14.2165     0.9082     5.7897 O.2     
  58 S58            9.4932    -3.6755     6.8696 S.o2    
  59 O59            8.3660    -3.9586     7.7445 O.co2   
  60 O60            9.4551    -2.3163     6.3527 O.co2   
  61 O61            9.6201    -4.6604     5.8067 O.co2   
  62 H62            0.6340     0.4464    11.3673 H       
  63 H63           -0.7308    -0.1291    12.3544 H       
  64 H64           -0.2128    -1.0557    10.9256 H       
  65 H65           -1.4222     1.7466    10.8873 H       
  66 H66           -1.4336     1.4211     8.4291 H       
  67 H67           -3.3218     0.5639     9.7451 H       
  68 H68           -2.5259    -0.9875    10.1027 H       
  69 H69           -4.0977    -0.3824    11.7965 H       
  70 H70            0.0164    -1.0270     9.0066 H       
  71 H71            1.6774    -0.2464     9.5166 H       
  72 H72            3.8656     0.8797     9.5751 H       
  73 H73           -0.2277     3.4704     8.6539 H       
  74 H74            0.9509     6.6306     8.2533 H       
  75 H75            0.2794     5.1539     7.5206 H       
  76 H76            0.0790     5.4529     9.2638 H       
  77 H77            5.2719     1.6696     8.8304 H       
  78 H78            6.8434     4.2221     9.3991 H       
  79 H79            4.7041     1.8929    11.2644 H       
  80 H80            6.4428     1.6355    10.9834 H       
  81 H81            8.5115     3.1783    10.7551 H       
  82 H82            9.3433    -0.0548     7.1299 H       
  83 H83            7.3977     1.4484     7.0200 H       
  84 H84            9.3499     2.4312    12.5233 H       
  85 H85           11.0844     2.5845    12.8926 H       
  86 H86           10.3379     3.6413    11.6701 H       
  87 H87           12.1278     0.3789     9.1136 H       
  88 H88           11.1402    -0.8317     9.9664 H       
  89 H89           12.6109    -2.2318     8.8971 H       
  90 H90           11.6963    -2.9654     6.0797 H       
  91 H91           13.7631    -0.3698     7.6700 H       
  92 H92           14.3805    -1.9778     7.2215 H       
  93 H93           12.4487    -5.0272     9.0503 H       
  94 H94           14.2794    -6.6710     9.1266 H       
  95 H95           13.8425    -3.6299     5.2696 H       
  96 H96           17.0243    -8.5081     8.3347 H       
  97 H97           16.2894    -7.2246     9.3251 H       
  98 H98           15.2546    -8.4158     8.5014 H       
  99 H99           16.4570    -4.5292     3.2969 H       
 100 H100          14.7018    -4.5391     3.5924 H       
 101 H101          15.7364    -3.3481     4.4166 H       
@<TRIPOS>BOND
   1    1    2 1
   2    1   62 1
   3    1   63 1
   4    1   64 1
   5    2    3 1
   6    2    4 1
   7    2   65 1
   8    3    6 1
   9    3    7 1
  10    3   66 1
  11    4    5 1
  12    4   67 1
  13    4   68 1
  14    5   69 1
  15    6    8 ar
  16    6   12 ar
  17    7   70 1
  18    8    9 ar
  19    8   71 1
  20    9   10 ar
  21    9   72 1
  22   10   11 ar
  23   10   15 1
  24   11   12 ar
  25   11   13 1
  26   12   73 1
  27   13   14 1
  28   14   74 1
  29   14   75 1
  30   14   76 1
  31   15   16 1
  32   16   17 1
  33   16   18 1
  34   16   77 1
  35   17   20 1
  36   17   21 1
  37   17   78 1
  38   18   19 1
  39   18   79 1
  40   18   80 1
  41   19   46 1
  42   20   22 ar
  43   20   26 ar
  44   21   50 1
  45   22   23 ar
  46   22   81 1
  47   23   24 ar
  48   23   27 1
  49   24   25 ar
  50   24   29 1
  51   25   26 ar
  52   25   82 1
  53   26   83 1
  54   27   28 1
  55   28   84 1
  56   28   85 1
  57   28   86 1
  58   29   30 1
  59   29   87 1
  60   29   88 1
  61   30   31 1
  62   31   32 1
  63   31   33 1
  64   31   89 1
  65   32   34 1
  66   32   36 1
  67   32   90 1
  68   33   35 1
  69   33   91 1
  70   33   92 1
  71   34   37 ar
  72   34   41 ar
  73   35   54 1
  74   36   58 1
  75   37   38 ar
  76   37   93 1
  77   38   39 ar
  78   38   94 1
  79   39   40 ar
  80   39   42 1
  81   40   41 ar
  82   40   44 1
  83   41   95 1
  84   42   43 1
  85   43   96 1
  86   43   97 1
  87   43   98 1
  88   44   45 1
  89   45   99 1
  90   45  100 1
  91   45  101 1
  92   46   47 2
  93   46   48 2
  94   46   49 2
  95   50   51 2
  96   50   52 2
  97   50   53 2
  98   54   55 2
  99   54   56 2
 100   54   57 2
 101   58   59 ar
 102   58   60 ar
 103   58   61 ar

#	End of record

