#	Name: ASD01813415
#	Creating user name:	WinNT
#	Creation time:	15. 06. 2019 19:30

#	Modifying user name:	WinNT
#	Modification time:	15. 06. 2019 19:30

#	Program:	/corina/corina34_cracker 3.40 0067  02.08.2006

@<TRIPOS>MOLECULE
ASD01813415
  50   53    0    0    0
SMALL
NO_CHARGES


@<TRIPOS>ATOM
   1 C1            -0.0167     1.3820     0.0096 C.ar    
   2 C2             0.0021    -0.0041     0.0020 C.ar    
   3 C3             1.1959    -0.6932    -0.0127 C.ar    
   4 C4             2.4016     0.0019    -0.0200 C.ar    
   5 C5             2.3831     1.4075    -0.0128 C.ar    
   6 C6             1.1665     2.0939     0.0022 C.ar    
   7 N7             3.6010    -0.6771    -0.0337 N.pl3   
   8 C8             4.7870    -0.0549    -0.0404 C.2     
   9 C9             4.8957     1.3208    -0.0340 C.2     
  10 C10            3.6667     2.1313    -0.0207 C.2     
  11 O11            3.7091     3.3491    -0.0150 O.2     
  12 C12            6.2161     1.9660    -0.0412 C.2     
  13 O13            6.3092     3.3109    -0.0348 O.3     
  14 O14            7.2244     1.2870    -0.0529 O.2     
  15 C15            3.5775    -2.1419    -0.0409 C.3     
  16 C16            3.5572    -2.6371    -1.4640 C.ar    
  17 N17            2.4062    -2.7376    -2.1000 N.ar    
  18 C18            2.3343    -3.1647    -3.3442 C.ar    
  19 C19            3.4871    -3.5291    -4.0366 C.ar    
  20 C20            4.7226    -3.4338    -3.3899 C.ar    
  21 C21            4.7466    -2.9737    -2.0847 C.ar    
  22 C22            3.4045    -4.0108    -5.4374 C.ar    
  23 F23            1.1476     3.4448     0.0091 F       
  24 C24            4.5571    -4.3743    -6.1273 C.ar    
  25 N25            4.4891    -4.8030    -7.3720 N.ar    
  26 C26            3.3340    -4.9053    -8.0117 C.ar    
  27 C27            2.1386    -4.5600    -7.3866 C.ar    
  28 C28            2.1657    -4.1115    -6.0812 C.ar    
  29 N29            3.3147    -5.3626    -9.3233 N.pl3   
  30 C30            2.0579    -5.3760   -10.0760 C.3     
  31 C31            4.5512    -5.8313    -9.9539 C.3     
  32 H32           -0.9604     1.9071     0.0170 H       
  33 H33           -0.9295    -0.5505     0.0080 H       
  34 H34            1.1956    -1.7731    -0.0181 H       
  35 H35            5.6884    -0.6497    -0.0508 H       
  36 H36            7.1990     3.6894    -0.0400 H       
  37 H37            4.4660    -2.5220     0.4634 H       
  38 H38            2.6863    -2.4936     0.4789 H       
  39 H39            1.3730    -3.2334    -3.8317 H       
  40 H40            5.6357    -3.7080    -3.8973 H       
  41 H41            5.6831    -2.8866    -1.5538 H       
  42 H42            5.5174    -4.3041    -5.6380 H       
  43 H43            1.2009    -4.6457    -7.9155 H       
  44 H44            1.2539    -3.8369    -5.5718 H       
  45 H45            1.9366    -4.4266   -10.5976 H       
  46 H46            2.0776    -6.1892   -10.8015 H       
  47 H47            1.2245    -5.5222    -9.3889 H       
  48 H48            4.6675    -6.9003    -9.7754 H       
  49 H49            4.5051    -5.6450   -11.0269 H       
  50 H50            5.4010    -5.2974    -9.5286 H       
@<TRIPOS>BOND
   1    1    2 ar
   2    1    6 ar
   3    1   32 1
   4    2    3 ar
   5    2   33 1
   6    3    4 ar
   7    3   34 1
   8    4    5 ar
   9    4    7 1
  10    5    6 ar
  11    5   10 1
  12    6   23 1
  13    7    8 1
  14    7   15 1
  15    8    9 2
  16    8   35 1
  17    9   10 1
  18    9   12 1
  19   10   11 2
  20   12   13 1
  21   12   14 2
  22   13   36 1
  23   15   16 1
  24   15   37 1
  25   15   38 1
  26   16   17 ar
  27   16   21 ar
  28   17   18 ar
  29   18   19 ar
  30   18   39 1
  31   19   20 ar
  32   19   22 1
  33   20   21 ar
  34   20   40 1
  35   21   41 1
  36   22   24 ar
  37   22   28 ar
  38   24   25 ar
  39   24   42 1
  40   25   26 ar
  41   26   27 ar
  42   26   29 1
  43   27   28 ar
  44   27   43 1
  45   28   44 1
  46   29   30 1
  47   29   31 1
  48   30   45 1
  49   30   46 1
  50   30   47 1
  51   31   48 1
  52   31   49 1
  53   31   50 1

#	End of record

