#	Name: ASD01903305
#	Creating user name:	WinNT
#	Creation time:	15. 06. 2019 19:54

#	Modifying user name:	WinNT
#	Modification time:	15. 06. 2019 19:54

#	Program:	/corina/corina34_cracker 3.40 0067  02.08.2006

@<TRIPOS>MOLECULE
ASD01903305
  31   34    0    0    0
SMALL
NO_CHARGES


@<TRIPOS>ATOM
   1 N1            -0.0111     0.9658     0.0074 N.pl3   
   2 H2            -0.0340    -0.0035     0.0350 H       
   3 C3             1.2026     1.6278    -0.0947 C.2     
   4 C4            -1.2032     1.6956     0.0646 C.ar    
   5 C5            -1.1673     3.0771     0.1932 C.ar    
   6 C6            -2.3483     3.7961     0.2496 C.ar    
   7 C7            -3.5647     3.1386     0.1778 C.ar    
   8 C8            -3.6035     1.7620     0.0497 C.ar    
   9 C9            -2.4271     1.0387    -0.0130 C.ar    
  10 S10            2.7878     0.8648    -0.0103 S.3     
  11 C11            3.5574     2.4285    -0.2211 C.2     
  12 C12            2.5799     3.3739    -0.3484 C.2     
  13 N13            1.3472     2.9050    -0.2727 N.2     
  14 C14            5.0318     2.7329    -0.2490 C.3     
  15 C15            5.3389     3.9303    -1.1496 C.3     
  16 C16            4.3285     5.0259    -0.9463 C.2     
  17 C17            3.0240     4.7819    -0.5811 C.2     
  18 N18            4.4585     6.3540    -1.0663 N.pl3   
  19 N19            3.2149     6.9442    -0.7878 N.2     
  20 C20            2.3552     5.9944    -0.4980 C.2     
  21 F21           -2.3144     5.1408     0.3752 F       
  22 F22           -2.4660    -0.3059    -0.1385 F       
  23 H23           -0.2187     3.5903     0.2495 H       
  24 H24           -4.4851     3.7019     0.2224 H       
  25 H25           -4.5539     1.2520    -0.0060 H       
  26 H26            5.3695     2.9528     0.7638 H       
  27 H27            5.5688     1.8603    -0.6208 H       
  28 H28            6.3327     4.3108    -0.9136 H       
  29 H29            5.3163     3.6105    -2.1913 H       
  30 H30            5.2715     6.8265    -1.3043 H       
  31 H31            1.3151     6.1325    -0.2418 H       
@<TRIPOS>BOND
   1    1    2 1
   2    1    3 1
   3    1    4 1
   4    3   10 1
   5    3   13 2
   6    4    5 ar
   7    4    9 ar
   8    5    6 ar
   9    5   23 1
  10    6    7 ar
  11    6   21 1
  12    7    8 ar
  13    7   24 1
  14    8    9 ar
  15    8   25 1
  16    9   22 1
  17   10   11 1
  18   11   12 2
  19   11   14 1
  20   12   13 1
  21   12   17 1
  22   14   15 1
  23   14   26 1
  24   14   27 1
  25   15   16 1
  26   15   28 1
  27   15   29 1
  28   16   17 2
  29   16   18 1
  30   17   20 1
  31   18   19 1
  32   18   30 1
  33   19   20 2
  34   20   31 1

#	End of record

