#	Name: ASD01180008
#	Creating user name:	WinNT
#	Creation time:	15. 06. 2019 19:06

#	Modifying user name:	WinNT
#	Modification time:	15. 06. 2019 19:06

#	Program:	/corina/corina34_cracker 3.40 0067  02.08.2006

@<TRIPOS>MOLECULE
ASD01180008
  35   37    0    0    0
SMALL
NO_CHARGES


@<TRIPOS>ATOM
   1 N1            -0.0157     1.3093     0.0092 N.ar    
   2 C2             0.0021    -0.0041     0.0020 C.ar    
   3 C3             1.2121    -0.7010    -0.0128 C.ar    
   4 N4             2.3571    -0.0573    -0.0198 N.ar    
   5 C5             2.3657     1.2801    -0.0131 C.ar    
   6 C6             3.5740     1.9978    -0.0198 C.ar    
   7 C7             3.5506     3.3594    -0.0123 C.ar    
   8 C8             2.3408     4.0562     0.0024 C.ar    
   9 C9             1.1513     3.3932     0.0092 C.ar    
  10 C10            1.1368     1.9880     0.0019 C.ar    
  11 S11           -1.5173    -0.8962     0.0117 S.o     
  12 O12           -2.4599     0.0823     0.4279 O.2     
  13 S13           -2.7826     0.0028    -2.6618 S.3     
  14 C14           -1.8755    -1.0877    -1.7028 C.2     
  15 N15           -1.4963    -2.0757    -2.4477 N.2     
  16 N16           -1.8520    -2.0363    -3.6600 N.2     
  17 C17           -2.5560    -1.0124    -4.0217 C.2     
  18 C18           -3.0879    -0.7567    -5.4084 C.3     
  19 C19            1.2042    -2.2080    -0.0204 C.3     
  20 C20            1.9111    -2.7154    -1.2789 C.3     
  21 C21            1.9344    -2.7280     1.2195 C.3     
  22 Cl22           2.3531     5.7921     0.0127 Cl      
  23 Cl23           5.0460     4.2411    -0.0206 Cl      
  24 H24            4.5171     1.4718    -0.0304 H       
  25 H25            0.2230     3.9450     0.0209 H       
  26 H26           -2.3551    -0.1861    -5.9791 H       
  27 H27           -3.2758    -1.7077    -5.9066 H       
  28 H28           -4.0173    -0.1911    -5.3424 H       
  29 H29            0.1747    -2.5659    -0.0126 H       
  30 H30            2.9406    -2.3574    -1.2867 H       
  31 H31            1.9053    -3.8053    -1.2843 H       
  32 H32            1.3908    -2.3449    -2.1622 H       
  33 H33            1.4308    -2.3665     2.1160 H       
  34 H34            1.9287    -3.8180     1.2140 H       
  35 H35            2.9639    -2.3700     1.2116 H       
@<TRIPOS>BOND
   1    1    2 ar
   2    1   10 ar
   3    2    3 ar
   4    2   11 1
   5    3    4 ar
   6    3   19 1
   7    4    5 ar
   8    5    6 ar
   9    5   10 ar
  10    6    7 ar
  11    6   24 1
  12    7    8 ar
  13    7   23 1
  14    8    9 ar
  15    8   22 1
  16    9   10 ar
  17    9   25 1
  18   11   12 2
  19   11   14 1
  20   13   14 1
  21   13   17 1
  22   14   15 2
  23   15   16 1
  24   16   17 2
  25   17   18 1
  26   18   26 1
  27   18   27 1
  28   18   28 1
  29   19   20 1
  30   19   21 1
  31   19   29 1
  32   20   30 1
  33   20   31 1
  34   20   32 1
  35   21   33 1
  36   21   34 1
  37   21   35 1

#	End of record

