#	Name: ASD01881986
#	Creating user name:	WinNT
#	Creation time:	15. 06. 2019 19:43

#	Modifying user name:	WinNT
#	Modification time:	15. 06. 2019 19:43

#	Program:	/corina/corina34_cracker 3.40 0067  02.08.2006

@<TRIPOS>MOLECULE
ASD01881986
  41   44    0    0    0
SMALL
NO_CHARGES


@<TRIPOS>ATOM
   1 N1            -0.0154     1.2839     0.0091 N.pl3   
   2 N2             0.0021    -0.0041     0.0020 N.2     
   3 N3             1.2033    -0.4649    -0.0119 N.2     
   4 C4             2.0742     0.5645    -0.0147 C.ar    
   5 C5             1.2843     1.7298    -0.0009 C.ar    
   6 C6             3.4665     0.6757    -0.0271 C.ar    
   7 C7             4.0479     1.9273    -0.0255 C.ar    
   8 C8             3.2559     3.0735    -0.0113 C.ar    
   9 C9             1.8925     2.9784    -0.0000 C.ar    
  10 C10            4.3271    -0.5613    -0.0414 C.3     
  11 F11            4.5811    -0.9373    -1.3648 F       
  12 F12            5.5371    -0.2952     0.6083 F       
  13 F13            3.6618    -1.5999     0.6189 F       
  14 C14           -1.2133     2.1272     0.0196 C.3     
  15 C15           -1.6228     2.4135     1.4657 C.3     
  16 C16           -2.7884     3.3784     1.6921 C.3     
  17 C17           -2.9777     1.8797     1.9352 C.3     
  18 O18            5.4026     2.0427    -0.0374 O.3     
  19 C19            5.9411     3.3664    -0.0351 C.3     
  20 C20            7.4464     3.2965    -0.0495 C.ar    
  21 C21            8.1256     3.2710    -1.2531 C.ar    
  22 C22            9.5064     3.2068    -1.2663 C.ar    
  23 C23           10.2080     3.1685    -0.0758 C.ar    
  24 C24            9.5287     3.1948     1.1278 C.ar    
  25 C25            8.1481     3.2634     1.1410 C.ar    
  26 H26            3.7239     4.0468    -0.0099 H       
  27 H27            1.2884     3.8736     0.0109 H       
  28 H28           -1.0007     3.0667    -0.4906 H       
  29 H29           -2.0254     1.6113    -0.4926 H       
  30 H30           -0.8089     2.4286     2.1906 H       
  31 H31           -2.7415     4.0280     2.5661 H       
  32 H32           -3.2635     3.8093     0.8108 H       
  33 H33           -3.5773     1.3246     1.2137 H       
  34 H34           -3.0553     1.5434     2.9691 H       
  35 H35            5.5937     3.9015    -0.9189 H       
  36 H36            5.6103     3.8916     0.8609 H       
  37 H37            7.5775     3.3010    -2.1832 H       
  38 H38           10.0371     3.1862    -2.2067 H       
  39 H39           11.2867     3.1176    -0.0861 H       
  40 H40           10.0768     3.1645     2.0579 H       
  41 H41            7.6176     3.2877     2.0815 H       
@<TRIPOS>BOND
   1    1    2 1
   2    1    5 1
   3    1   14 1
   4    2    3 2
   5    3    4 1
   6    4    5 ar
   7    4    6 ar
   8    5    9 ar
   9    6    7 ar
  10    6   10 1
  11    7    8 ar
  12    7   18 1
  13    8    9 ar
  14    8   26 1
  15    9   27 1
  16   10   11 1
  17   10   12 1
  18   10   13 1
  19   14   15 1
  20   14   28 1
  21   14   29 1
  22   15   16 1
  23   15   17 1
  24   15   30 1
  25   16   17 1
  26   16   31 1
  27   16   32 1
  28   17   33 1
  29   17   34 1
  30   18   19 1
  31   19   20 1
  32   19   35 1
  33   19   36 1
  34   20   21 ar
  35   20   25 ar
  36   21   22 ar
  37   21   37 1
  38   22   23 ar
  39   22   38 1
  40   23   24 ar
  41   23   39 1
  42   24   25 ar
  43   24   40 1
  44   25   41 1

#	End of record

