#	Name: ASD01870566
#	Creating user name:	WinNT
#	Creation time:	15. 06. 2019 19:39

#	Modifying user name:	WinNT
#	Modification time:	15. 06. 2019 19:39

#	Program:	/corina/corina34_cracker 3.40 0067  02.08.2006

@<TRIPOS>MOLECULE
ASD01870566
  44   47    0    0    0
SMALL
NO_CHARGES


@<TRIPOS>ATOM
   1 C1            -0.0232     1.5772    -0.6215 C.ar    
   2 C2            -0.0820     0.1954    -0.6250 C.ar    
   3 C3             1.0655    -0.5492    -0.4225 C.ar    
   4 C4             2.2740     0.0862    -0.2163 C.ar    
   5 C5             1.1827     2.2184    -0.4162 C.ar    
   6 C6             3.5265    -0.7214     0.0047 C.3     
   7 C7             4.7211     0.0096    -0.6090 C.3     
   8 C8             4.7187     1.4504    -0.1743 C.2     
   9 N9             3.5618     2.1162    -0.0042 N.am    
  10 C10            2.3368     1.4734    -0.2127 C.ar    
  11 C11            3.5841     3.4633     0.3846 C.ar    
  12 C12            3.6170     4.4633    -0.5782 C.ar    
  13 C13            3.6385     5.7895    -0.1958 C.ar    
  14 C14            3.6276     6.1243     1.1523 C.ar    
  15 C15            3.5947     5.1248     2.1159 C.ar    
  16 C16            3.5674     3.7976     1.7332 C.ar    
  17 N17            3.6504     7.4691     1.5396 N.am    
  18 C18            4.3244     7.8405     2.6461 C.2     
  19 C19            4.4341     9.2602     2.9957 C.2     
  20 O20            3.9054    10.2904     2.3034 O.3     
  21 C21            5.0845     9.7711     4.0824 C.2     
  22 C22            4.9361    11.1656     4.0228 C.2     
  23 C23            4.2077    11.4411     2.9185 C.2     
  24 C24            5.8189     8.9891     5.1409 C.3     
  25 O25            4.8419     6.9974     3.3550 O.2     
  26 O26            5.7719     2.0180     0.0256 O.2     
  27 Cl27           3.5197     2.5477     2.9371 Cl      
  28 H28           -0.9206     2.1556    -0.7840 H       
  29 H29           -1.0264    -0.3032    -0.7858 H       
  30 H30            1.0165    -1.6280    -0.4253 H       
  31 H31            1.2281     3.2974    -0.4140 H       
  32 H32            3.6908    -0.8514     1.0743 H       
  33 H33            3.4169    -1.6979    -0.4671 H       
  34 H34            5.6448    -0.4663    -0.2799 H       
  35 H35            4.6568    -0.0406    -1.6960 H       
  36 H36            3.6261     4.2035    -1.6264 H       
  37 H37            3.6640     6.5670    -0.9450 H       
  38 H38            3.5867     5.3850     3.1640 H       
  39 H39            3.1810     8.1339     1.0116 H       
  40 H40            5.3279    11.8832     4.7285 H       
  41 H41            3.9151    12.4267     2.5878 H       
  42 H42            6.8614     8.8688     4.8460 H       
  43 H43            5.7689     9.5249     6.0887 H       
  44 H44            5.3576     8.0079     5.2534 H       
@<TRIPOS>BOND
   1    1    2 ar
   2    1    5 ar
   3    1   28 1
   4    2    3 ar
   5    2   29 1
   6    3    4 ar
   7    3   30 1
   8    4    6 1
   9    4   10 ar
  10    5   10 ar
  11    5   31 1
  12    6    7 1
  13    6   32 1
  14    6   33 1
  15    7    8 1
  16    7   34 1
  17    7   35 1
  18    8    9 am
  19    8   26 2
  20    9   10 1
  21    9   11 1
  22   11   12 ar
  23   11   16 ar
  24   12   13 ar
  25   12   36 1
  26   13   14 ar
  27   13   37 1
  28   14   15 ar
  29   14   17 1
  30   15   16 ar
  31   15   38 1
  32   16   27 1
  33   17   18 am
  34   17   39 1
  35   18   19 1
  36   18   25 2
  37   19   21 2
  38   19   20 1
  39   20   23 1
  40   21   22 1
  41   21   24 1
  42   22   23 2
  43   22   40 1
  44   23   41 1
  45   24   42 1
  46   24   43 1
  47   24   44 1

#	End of record

