#	Name: ASD03330568
#	Creating user name:	WinNT
#	Creation time:	15. 06. 2019 20:37

#	Modifying user name:	WinNT
#	Modification time:	15. 06. 2019 20:37

#	Program:	/corina/corina34_cracker 3.40 0067  02.08.2006

@<TRIPOS>MOLECULE
ASD03330568
  63   65    0    0    0
SMALL
NO_CHARGES


@<TRIPOS>ATOM
   1 C1            -0.5219     1.8017    -0.6102 C.2     
   2 N2            -0.6463     0.4693    -0.8502 N.pl3   
   3 C3             0.8105     2.0709    -0.5276 C.2     
   4 N4             1.4783     0.9145    -0.7333 N.2     
   5 C5             0.6121    -0.0510    -0.9336 C.2     
   6 C6             0.9446    -1.4665    -1.2039 C.ar    
   7 C7             1.4158     3.3878    -0.2613 C.2     
   8 O8             0.7055     4.3604    -0.0917 O.2     
   9 C9             3.3581     4.8238     0.0589 C.3     
  10 N10            2.7564     3.5145    -0.2058 N.am    
  11 C11            3.4200     5.0607     1.5692 C.3     
  12 C12            4.2245     3.9388     2.2288 C.3     
  13 C13            4.0963     6.4046     1.8473 C.3     
  14 C14            2.0012     5.0755     2.1417 C.3     
  15 C15            4.7519     4.8609    -0.5130 C.2     
  16 N16            5.3519     6.0443    -0.7496 N.am    
  17 O17            5.3337     3.8259    -0.7603 O.2     
  18 C18            6.6656     6.0831    -1.3968 C.3     
  19 C19           -1.9130    -0.2565    -0.9776 C.3     
  20 C20           -2.8453     0.5203    -1.9125 C.3     
  21 C21           -3.6434     1.5438    -1.1112 C.3     
  22 N22           -2.8529     2.0747     0.0011 N.3     
  23 C23           -1.6583     2.7828    -0.4823 C.3     
  24 C24           -3.6690     2.9441     0.8591 C.3     
  25 C25            1.8974    -1.7908    -2.1728 C.ar    
  26 C26            2.2036    -3.1162    -2.4198 C.ar    
  27 C27            1.5690    -4.1188    -1.7103 C.ar    
  28 C28            0.6233    -3.8033    -0.7489 C.ar    
  29 C29            0.3124    -2.4838    -0.4883 C.ar    
  30 F30            2.5177    -0.8117    -2.8670 F       
  31 Cl31          -0.1679    -5.0703     0.1358 Cl      
  32 C32            1.9074    -5.5615    -1.9846 C.3     
  33 H33            2.7535     5.6022    -0.4065 H       
  34 H34            3.3229     2.7388    -0.3410 H       
  35 H35            5.2352     3.9282     1.8210 H       
  36 H36            4.2686     4.1075     3.3048 H       
  37 H37            3.7427     2.9813     2.0307 H       
  38 H38            3.5074     7.2066     1.4023 H       
  39 H39            4.1668     6.5600     2.9239 H       
  40 H40            5.0964     6.4047     1.4139 H       
  41 H41            1.5195     4.1180     1.9435 H       
  42 H42            2.0454     5.2442     3.2176 H       
  43 H43            1.4281     5.8747     1.6717 H       
  44 H44            4.9138     6.8704    -0.4914 H       
  45 H45            7.3872     5.5393    -0.7871 H       
  46 H46            6.5995     5.6199    -2.3812 H       
  47 H47            6.9876     7.1190    -1.5035 H       
  48 H48           -1.7251    -1.2473    -1.3913 H       
  49 H49           -2.3782    -0.3525     0.0034 H       
  50 H50           -2.2532     1.0346    -2.6696 H       
  51 H51           -3.5308    -0.1734    -2.3992 H       
  52 H52           -3.9335     2.3644    -1.7675 H       
  53 H53           -4.5412     1.0679    -0.7169 H       
  54 H54           -1.3865     3.5650     0.2265 H       
  55 H55           -1.8670     3.2276    -1.4553 H       
  56 H56           -4.5042     2.3733     1.2650 H       
  57 H57           -3.0574     3.3247     1.6771 H       
  58 H58           -4.0508     3.7792     0.2718 H       
  59 H59            2.9396    -3.3689    -3.1687 H       
  60 H60           -0.4251    -2.2397     0.2620 H       
  61 H61            2.7276    -5.8717    -1.3371 H       
  62 H62            1.0341    -6.1833    -1.7880 H       
  63 H63            2.2055    -5.6729    -3.0271 H       
@<TRIPOS>BOND
   1    1    2 1
   2    1    3 2
   3    1   23 1
   4    2   19 1
   5    2    5 1
   6    3    4 1
   7    3    7 1
   8    4    5 2
   9    5    6 1
  10    6   25 ar
  11    6   29 ar
  12    7    8 2
  13    7   10 am
  14    9   10 1
  15    9   11 1
  16    9   15 1
  17    9   33 1
  18   10   34 1
  19   11   12 1
  20   11   13 1
  21   11   14 1
  22   12   35 1
  23   12   36 1
  24   12   37 1
  25   13   38 1
  26   13   39 1
  27   13   40 1
  28   14   41 1
  29   14   42 1
  30   14   43 1
  31   15   16 am
  32   15   17 2
  33   16   18 1
  34   16   44 1
  35   18   45 1
  36   18   46 1
  37   18   47 1
  38   19   20 1
  39   19   48 1
  40   19   49 1
  41   20   21 1
  42   20   50 1
  43   20   51 1
  44   21   22 1
  45   21   52 1
  46   21   53 1
  47   22   23 1
  48   22   24 1
  49   23   54 1
  50   23   55 1
  51   24   56 1
  52   24   57 1
  53   24   58 1
  54   25   26 ar
  55   25   30 1
  56   26   27 ar
  57   26   59 1
  58   27   28 ar
  59   27   32 1
  60   28   29 ar
  61   28   31 1
  62   29   60 1
  63   32   61 1
  64   32   62 1
  65   32   63 1

#	End of record

