#	Name: ASD01028515
#	Creating user name:	WinNT
#	Creation time:	15. 06. 2019 18:57

#	Modifying user name:	WinNT
#	Modification time:	15. 06. 2019 18:57

#	Program:	/corina/corina34_cracker 3.40 0067  02.08.2006

@<TRIPOS>MOLECULE
ASD01028515
  35   38    0    0    0
SMALL
NO_CHARGES


@<TRIPOS>ATOM
   1 C1            -0.0184     1.5028     0.0103 C.ar    
   2 C2             0.0021    -0.0041     0.0020 C.3     
   3 C3             0.0225    -0.5140     1.4200 C.2     
   4 N4            -1.0570    -0.7985     2.1804 N.pl3   
   5 C5            -0.5666    -1.2286     3.3898 C.2     
   6 N6             0.7531    -1.1848     3.3054 N.2     
   7 N7             1.0903    -0.7665     2.1354 N.2     
   8 N8            -2.4354    -0.7350     1.9658 N.2     
   9 C9            -3.2757    -1.0856     2.9175 C.2     
  10 C10           -2.8009    -1.5319     4.1715 C.2     
  11 C11           -1.4653    -1.6039     4.4073 C.2     
  12 C12           -4.7306    -1.0109     2.6715 C.2     
  13 C13            1.1702     2.2092     0.0027 C.ar    
  14 C14           -1.2257     2.1766     0.0197 C.ar    
  15 C15           -1.2471     3.5578     0.0268 C.ar    
  16 C16           -0.0559     4.2689     0.0246 C.ar    
  17 C17            1.1542     3.5905     0.0103 C.ar    
  18 O18           -0.0743     5.6278     0.0312 O.3     
  19 C19           -5.3295    -0.6013     1.5174 C.2     
  20 C20           -6.7165    -0.6861     1.7136 C.2     
  21 C21           -6.9269    -1.1404     2.9688 C.2     
  22 N22           -5.7187    -1.3473     3.5619 N.pl3   
  23 H23           -0.8878    -0.3767    -0.5053 H       
  24 H24            0.8920    -0.3525    -0.5222 H       
  25 H25           -3.5010    -1.8159     4.9432 H       
  26 H26           -1.0968    -1.9442     5.3638 H       
  27 H27            2.1119     1.6806    -0.0087 H       
  28 H28           -2.1528     1.6226     0.0211 H       
  29 H29           -2.1904     4.0837     0.0338 H       
  30 H30            2.0829     4.1418     0.0086 H       
  31 H31           -0.0755     6.0168     0.9165 H       
  32 H32           -4.8292    -0.2721     0.6187 H       
  33 H33           -7.4787    -0.4334     0.9914 H       
  34 H34           -7.8910    -1.3140     3.4235 H       
  35 H35           -5.5800    -1.6725     4.4652 H       
@<TRIPOS>BOND
   1    1    2 1
   2    1   13 ar
   3    1   14 ar
   4    2    3 1
   5    2   23 1
   6    2   24 1
   7    3    4 1
   8    3    7 2
   9    4    5 1
  10    4    8 1
  11    5    6 2
  12    5   11 1
  13    6    7 1
  14    8    9 2
  15    9   10 1
  16    9   12 1
  17   10   11 2
  18   10   25 1
  19   11   26 1
  20   12   19 2
  21   12   22 1
  22   13   17 ar
  23   13   27 1
  24   14   15 ar
  25   14   28 1
  26   15   16 ar
  27   15   29 1
  28   16   17 ar
  29   16   18 1
  30   17   30 1
  31   18   31 1
  32   19   20 1
  33   19   32 1
  34   20   21 2
  35   20   33 1
  36   21   22 1
  37   21   34 1
  38   22   35 1

#	End of record

