#	Name: ASD02198676
#	Creating user name:	WinNT
#	Creation time:	15. 06. 2019 20:19

#	Modifying user name:	WinNT
#	Modification time:	15. 06. 2019 20:19

#	Program:	/corina/corina34_cracker 3.40 0067  02.08.2006

@<TRIPOS>MOLECULE
ASD02198676
  54   58    0    0    0
SMALL
NO_CHARGES


@<TRIPOS>ATOM
   1 C1            -0.0943     1.5710     0.0856 C.2     
   2 C2            -0.1589     0.2222     0.2201 C.2     
   3 N3             0.9536    -0.5387     0.1156 N.pl3   
   4 N4             2.1186    -0.0548    -0.1119 N.2     
   5 C5             2.3219     1.2367    -0.2629 C.2     
   6 C6             1.1723     2.1501    -0.1666 C.2     
   7 C7             0.8270    -1.9244     0.2637 C.ar    
   8 C8             1.5980    -2.5983     1.2101 C.ar    
   9 C9             1.4706    -3.9695     1.3544 C.ar    
  10 C10            0.5757    -4.6702     0.5567 C.ar    
  11 C11           -0.1919    -3.9961    -0.3862 C.ar    
  12 C12           -0.0708    -2.6287    -0.5278 C.ar    
  13 C13            3.6784     1.7595    -0.5235 C.2     
  14 N14            4.0597     2.5372    -1.5806 N.pl3   
  15 N15            5.4269     2.8066    -1.4408 N.2     
  16 C16            5.8618     2.2232    -0.3524 C.2     
  17 C17            4.7964     1.5599     0.2565 C.2     
  18 C18            3.2318     2.9840    -2.6182 C.ar    
  19 C19            3.3337     4.2911    -3.0759 C.ar    
  20 C20            2.5162     4.7285    -4.0996 C.ar    
  21 C21            1.5969     3.8664    -4.6686 C.ar    
  22 C22            1.4927     2.5643    -4.2148 C.ar    
  23 C23            2.3113     2.1191    -3.1954 C.ar    
  24 O24            1.3055     3.3577    -0.2993 O.2     
  25 N25            0.4470    -6.0535     0.7014 N.3     
  26 C26            0.8238    -6.7572    -0.5516 C.3     
  27 C27           -0.9713    -6.4361     0.9224 C.3     
  28 C28           -1.0382    -7.9271     0.5277 C.3     
  29 C29            0.1428    -8.1383    -0.4419 C.3     
  30 F30           -0.8888    -8.7364     1.6591 F       
  31 F31           -2.2497    -8.2060    -0.1139 F       
  32 F32           -0.3247    -8.5504    -1.6945 F       
  33 F33            1.0362    -9.0807     0.0785 F       
  34 O34            2.4735    -1.9104     1.9894 O.3     
  35 C35            3.2303    -2.6658     2.9374 C.3     
  36 H36           -0.9812     2.1822     0.1639 H       
  37 H37           -1.1111    -0.2493     0.4134 H       
  38 H38            2.0670    -4.4937     2.0864 H       
  39 H39           -0.8874    -4.5428    -1.0057 H       
  40 H40           -0.6685    -2.1072    -1.2607 H       
  41 H41            6.8768     2.2537     0.0153 H       
  42 H42            4.8413     0.9876     1.1713 H       
  43 H43            4.0512     4.9650    -2.6316 H       
  44 H44            2.5947     5.7451    -4.4557 H       
  45 H45            0.9588     4.2108    -5.4690 H       
  46 H46            0.7735     1.8934    -4.6611 H       
  47 H47            2.2296     1.1020    -2.8416 H       
  48 H48            0.4477    -6.2157    -1.4196 H       
  49 H49            1.9061    -6.8709    -0.6130 H       
  50 H50           -1.2407    -6.3079     1.9708 H       
  51 H51           -1.6284    -5.8443     0.2851 H       
  52 H52            2.5517    -3.1646     3.6293 H       
  53 H53            3.8280    -3.4117     2.4135 H       
  54 H54            3.8884    -1.9973     3.4924 H       
@<TRIPOS>BOND
   1    1    2 2
   2    1    6 1
   3    1   36 1
   4    2    3 1
   5    2   37 1
   6    3    4 1
   7    3    7 1
   8    4    5 2
   9    5    6 1
  10    5   13 1
  11    6   24 2
  12    7    8 ar
  13    7   12 ar
  14    8    9 ar
  15    8   34 1
  16    9   10 ar
  17    9   38 1
  18   10   11 ar
  19   10   25 1
  20   11   12 ar
  21   11   39 1
  22   12   40 1
  23   13   14 1
  24   13   17 2
  25   14   15 1
  26   14   18 1
  27   15   16 2
  28   16   17 1
  29   16   41 1
  30   17   42 1
  31   18   19 ar
  32   18   23 ar
  33   19   20 ar
  34   19   43 1
  35   20   21 ar
  36   20   44 1
  37   21   22 ar
  38   21   45 1
  39   22   23 ar
  40   22   46 1
  41   23   47 1
  42   25   27 1
  43   25   26 1
  44   26   29 1
  45   26   48 1
  46   26   49 1
  47   27   28 1
  48   27   50 1
  49   27   51 1
  50   28   29 1
  51   28   30 1
  52   28   31 1
  53   29   32 1
  54   29   33 1
  55   34   35 1
  56   35   52 1
  57   35   53 1
  58   35   54 1

#	End of record

