#	Name: ASD06590047
#	Creating user name:	WinNT
#	Creation time:	15. 06. 2019 21:06

#	Modifying user name:	WinNT
#	Modification time:	15. 06. 2019 21:06

#	Program:	/corina/corina34_cracker 3.40 0067  02.08.2006

@<TRIPOS>MOLECULE
ASD06590047
 277  278    0    0    0
SMALL
NO_CHARGES


@<TRIPOS>ATOM
   1 C1            -0.2375     8.9565     8.4387 C.2     
   2 O2             0.2418     9.1295     7.3381 O.2     
   3 N3             1.8007     9.9192     9.3377 N.am    
   4 C4             0.4102     9.5786     9.6489 C.3     
   5 C5            -0.3507    10.8474    10.0389 C.3     
   6 C6             0.2905    11.4643    11.2836 C.3     
   7 O7            -0.2978    11.7847     8.9616 O.3     
   8 C8            -3.5251     8.0556     7.5093 C.2     
   9 O9            -3.9377     8.6441     8.4862 O.2     
  10 N10           -1.3524     8.2123     8.5788 N.am    
  11 C11           -2.0600     7.7226     7.3932 C.3     
  12 C12           -1.8886     6.2059     7.2872 C.3     
  13 C13           -0.4287     5.8765     7.1102 C.2     
  14 O14            0.3983     6.7636     7.1174 O.2     
  15 N15           -0.0421     4.5962     6.9438 N.am    
  16 C16           -6.6043     7.0523     5.8136 C.2     
  17 O17           -6.0421     6.1761     5.1914 O.2     
  18 N18           -4.3770     7.6995     6.5275 N.am    
  19 C19           -5.8013     8.0233     6.6404 C.3     
  20 C20           -6.0426     9.4464     6.1330 C.3     
  21 C21          -10.1927     6.5466     5.0781 C.2     
  22 O22          -10.5498     7.4805     5.7646 O.2     
  23 N23           -7.9470     7.1575     5.7657 N.am    
  24 C24           -8.7276     6.2136     4.9620 C.3     
  25 C25          -13.3497     4.8950     4.2602 C.2     
  26 O26          -12.7980     3.8472     3.9981 O.2     
  27 N27          -11.1063     5.8067     4.4191 N.am    
  28 C28          -12.5306     6.1305     4.5319 C.3     
  29 C29          -12.8895     7.2144     3.5136 C.3     
  30 C30          -12.1514     8.5080     3.8641 C.3     
  31 C31          -12.5102     9.5919     2.8457 C.3     
  32 N32          -11.8035    10.8305     3.1813 N.pl3   
  33 C33          -11.9711    11.9505     2.4018 C.2     
  34 N34          -12.7589    11.9104     1.3642 N.2     
  35 N35          -11.3079    13.1128     2.7168 N.pl3   
  36 C36          -16.8598     4.1550     3.5570 C.2     
  37 O37          -17.1421     5.3288     3.4417 O.2     
  38 N38          -14.6952     4.9544     4.3085 N.am    
  39 C39          -15.4915     3.7534     4.0444 C.3     
  40 C40          -15.6276     2.9384     5.3320 C.3     
  41 O41          -16.3777     3.6857     6.2917 O.3     
  42 C42          -20.0216     3.9472     3.7734 C.2     
  43 O43          -19.6662     3.8829     4.9312 O.2     
  44 N44          -17.7698     3.2096     3.2493 N.am    
  45 C45          -19.0586     3.5949     2.6690 C.3     
  46 C46          -19.6209     2.4276     1.8553 C.3     
  47 C47          -18.7125     2.1467     0.6861 C.2     
  48 O48          -17.7754     2.8753     0.4604 O.2     
  49 O49          -18.9445     1.0872    -0.1047 O.3     
  50 C50          -23.6270     4.4747     4.0656 C.2     
  51 O51          -23.8322     4.0834     2.9361 O.2     
  52 N52          -21.2776     4.3338     3.4745 N.am    
  53 C53          -22.2137     4.6763     4.5481 C.3     
  54 C54          -22.0158     6.1393     4.9498 C.3     
  55 C55          -20.5499     6.3724     5.3211 C.3     
  56 O56          -22.3703     6.9862     3.8547 O.3     
  57 C57          -26.9686     5.4142     5.2118 C.2     
  58 O58          -26.5283     6.1349     6.0822 O.2     
  59 N59          -24.6631     4.7292     4.8892 N.am    
  60 C60          -26.0370     4.5332     4.4201 C.3     
  61 C61          -26.4365     3.0684     4.6094 C.3     
  62 C62          -25.5714     2.1835     3.7096 C.3     
  63 C63          -25.9709     0.7188     3.8988 C.3     
  64 N64          -25.1426    -0.1285     3.0372 N.pl3   
  65 C65          -25.3216    -1.4916     3.0368 C.2     
  66 N66          -26.2283    -2.0301     3.8028 N.2     
  67 N67          -24.5443    -2.2867     2.2282 N.pl3   
  68 C68          -30.5813     5.6627     5.7117 C.2     
  69 O69          -30.7909     4.6252     5.1194 O.2     
  70 N70          -28.2912     5.4013     4.9527 N.am    
  71 C71          -29.1969     6.2578     5.7224 C.3     
  72 C72          -29.2364     7.6525     5.0946 C.3     
  73 C73          -27.8586     8.3064     5.2176 C.3     
  74 C74          -27.8976     9.6801     4.5992 C.2     
  75 O75          -28.9260    10.0953     4.1084 O.2     
  76 N76          -26.7895    10.4474     4.5916 N.am    
  77 C77          -33.9496     6.7949     6.5695 C.2     
  78 O78          -33.5860     7.9421     6.7199 O.2     
  79 N79          -31.5866     6.2833     6.3602 N.am    
  80 C80          -32.9325     5.7048     6.3498 C.3     
  81 C81          -33.0496     4.6655     7.4666 C.3     
  82 C82          -32.1047     3.4974     7.1773 C.3     
  83 C83          -32.2199     2.4738     8.2773 C.2     
  84 O84          -32.9827     2.6602     9.2016 O.2     
  85 N85          -31.4753     1.3512     8.2339 N.am    
  86 C86          -37.5051     6.9610     7.4025 C.2     
  87 O87          -37.5663     5.7700     7.6230 O.2     
  88 N88          -35.2632     6.4950     6.5988 N.am    
  89 C89          -36.2520     7.5547     6.8124 C.3     
  90 C90          -36.5836     8.2198     5.4750 C.3     
  91 C91          -35.3585     8.9187     4.9441 C.ar    
  92 C92          -34.4770     8.2387     4.1242 C.ar    
  93 C93          -33.3530     8.8770     3.6366 C.ar    
  94 C94          -33.1093    10.2014     3.9699 C.ar    
  95 O95          -32.0046    10.8316     3.4912 O.3     
  96 C96          -33.9956    10.8816     4.7925 C.ar    
  97 C97          -35.1209    10.2404     5.2732 C.ar    
  98 C98          -40.9539     8.0549     7.9241 C.2     
  99 O99          -40.7918     9.0636     7.2705 O.2     
 100 N100         -38.5578     7.7537     7.6853 N.am    
 101 C101         -39.7760     7.1766     8.2590 C.3     
 102 C102         -39.6278     7.0798     9.7787 C.3     
 103 C103         -38.5116     6.0907    10.1203 C.3     
 104 C104         -38.3634     5.9939    11.6400 C.3     
 105 N105         -37.2946     5.0468    11.9671 N.pl3   
 106 C106         -36.9778     4.7946    13.2809 C.2     
 107 N107         -37.6284     5.3982    14.2356 N.2     
 108 N108         -35.9749     3.9059    13.5879 N.pl3   
 109 C109         -43.4391     9.6802     9.0423 C.2     
 110 O110         -42.6403     9.7489     9.9463 O.2     
 111 N111         -42.1876     7.7194     8.3509 N.am    
 112 C112         -43.3326     8.5733     8.0253 C.3     
 113 C113         -44.6140     7.7375     8.0452 C.3     
 114 C114         -44.5593     6.7078     6.9462 C.ar    
 115 C115         -44.0170     5.4606     7.1940 C.ar    
 116 C116         -43.9668     4.5161     6.1859 C.ar    
 117 C117         -44.4592     4.8186     4.9301 C.ar    
 118 C118         -45.0023     6.0655     4.6826 C.ar    
 119 C119         -45.0565     7.0085     5.6919 C.ar    
 120 O120         -44.4211    10.5899     8.9439 O.3     
 121 C121           2.7111    10.0056    10.3278 C.2     
 122 O122           2.3792     9.8014    11.4763 O.2     
 123 C123          20.0375    13.0683    16.7778 C.3     
 124 C124          18.5853    12.7126    17.1028 C.3     
 125 C125          17.7666    12.6809    15.8107 C.3     
 126 C126          16.3145    12.3251    16.1356 C.3     
 127 C127          15.4957    12.2934    14.8435 C.3     
 128 C128          14.0436    11.9376    15.1685 C.3     
 129 C129          13.2249    11.9059    13.8763 C.3     
 130 C130          11.7727    11.5502    14.2013 C.3     
 131 C131          10.9540    11.5184    12.9092 C.3     
 132 C132           9.5018    11.1627    13.2341 C.3     
 133 C133           8.6831    11.1310    11.9420 C.3     
 134 C134           7.2310    10.7752    12.2670 C.3     
 135 C135           6.4122    10.7435    10.9749 C.3     
 136 C136           4.9601    10.3878    11.2998 C.3     
 137 C137           4.1414    10.3560    10.0077 C.3     
 138 H138           2.0661    10.0826     8.4192 H       
 139 H139           0.3862     8.8712    10.4778 H       
 140 H140          -1.3899    10.5968    10.2519 H       
 141 H141           1.2862    11.8318    11.0351 H       
 142 H142          -0.3245    12.2919    11.6369 H       
 143 H143           0.3668    10.7087    12.0655 H       
 144 H144          -0.6875    11.4600     8.1383 H       
 145 H145          -1.6864     8.0010     9.4647 H       
 146 H146          -1.6488     8.1978     6.5026 H       
 147 H147          -2.2598     5.7339     8.1968 H       
 148 H148          -2.4511     5.8357     6.4301 H       
 149 H149          -0.7035     3.8867     6.9380 H       
 150 H150           0.8976     4.3842     6.8299 H       
 151 H151          -4.0471     7.2288     5.7461 H       
 152 H152          -6.1084     7.9526     7.6838 H       
 153 H153          -7.1024     9.6872     6.2170 H       
 154 H154          -5.4619    10.1487     6.7310 H       
 155 H155          -5.7356     9.5170     5.0895 H       
 156 H156          -8.3967     7.8583     6.2634 H       
 157 H157          -8.5557     5.1998     5.3235 H       
 158 H158          -8.4205     6.2842     3.9185 H       
 159 H159         -10.8207     5.0598     3.8700 H       
 160 H160         -12.7423     6.4927     5.5380 H       
 161 H161         -12.5958     6.8874     2.5161 H       
 162 H162         -13.9647     7.3922     3.5358 H       
 163 H163         -12.4450     8.8350     4.8615 H       
 164 H164         -11.0762     8.3302     3.8418 H       
 165 H165         -12.2166     9.2649     1.8482 H       
 166 H166         -13.5854     9.7697     2.8679 H       
 167 H167         -11.2172    10.8604     3.9535 H       
 168 H168         -12.8772    12.7006     0.8142 H       
 169 H169         -10.7216    13.1427     3.4890 H       
 170 H170         -11.4262    13.9030     2.1668 H       
 171 H171         -15.1365     5.7924     4.5182 H       
 172 H172         -14.9972     3.1500     3.2830 H       
 173 H173         -16.1432     2.0025     5.1169 H       
 174 H174         -14.6369     2.7236     5.7326 H       
 175 H175         -16.5036     3.2289     7.1347 H       
 176 H176         -17.5714     2.2742     3.4121 H       
 177 H177         -18.9205     4.4583     2.0182 H       
 178 H178         -19.6845     1.5416     2.4870 H       
 179 H179         -20.6148     2.6851     1.4895 H       
 180 H180         -18.3347     0.9479    -0.8421 H       
 181 H181         -21.5618     4.3853     2.5485 H       
 182 H182         -22.0289     4.0348     5.4097 H       
 183 H183         -22.6487     6.3696     5.8069 H       
 184 H184         -19.9170     6.1422     4.4640 H       
 185 H185         -20.4089     7.4147     5.6073 H       
 186 H186         -20.2795     5.7265     6.1564 H       
 187 H187         -21.8463     6.8362     3.0559 H       
 188 H188         -24.4990     5.0421     5.7925 H       
 189 H189         -26.1009     4.7936     3.3636 H       
 190 H190         -26.2878     2.7829     5.6508 H       
 191 H191         -27.4859     2.9407     4.3438 H       
 192 H192         -25.7200     2.4690     2.6682 H       
 193 H193         -24.5220     2.3112     3.9751 H       
 194 H194         -25.8222     0.4333     4.9402 H       
 195 H195         -27.0203     0.5911     3.6333 H       
 196 H196         -24.4679     0.2722     2.4671 H       
 197 H197         -26.3546    -2.9919     3.8025 H       
 198 H198         -23.8696    -1.8860     1.6581 H       
 199 H199         -24.6707    -3.2485     2.2279 H       
 200 H200         -28.6434     4.8249     4.2566 H       
 201 H201         -28.8412     6.3319     6.7500 H       
 202 H202         -29.5065     7.5695     4.0418 H       
 203 H203         -29.9760     8.2632     5.6124 H       
 204 H204         -27.5886     8.3893     6.2704 H       
 205 H205         -27.1191     7.6957     4.6998 H       
 206 H206         -25.9670    10.1153     4.9842 H       
 207 H207         -26.8146    11.3316     4.1936 H       
 208 H208         -31.4190     7.1130     6.8339 H       
 209 H209         -33.1149     5.2262     5.3876 H       
 210 H210         -32.7806     5.1232     8.4185 H       
 211 H211         -34.0751     4.2995     7.5163 H       
 212 H212         -32.3736     3.0397     6.2254 H       
 213 H213         -31.0791     3.8634     7.1276 H       
 214 H214         -30.8653     1.2022     7.4946 H       
 215 H215         -31.5495     0.6923     8.9419 H       
 216 H216         -35.5540     5.5774     6.4785 H       
 217 H217         -35.8450     8.2987     7.4972 H       
 218 H218         -36.9067     7.4612     4.7621 H       
 219 H219         -37.3828     8.9469     5.6191 H       
 220 H220         -34.6671     7.2077     3.8650 H       
 221 H221         -32.6644     8.3452     2.9967 H       
 222 H222         -32.1418    11.2765     2.6436 H       
 223 H223         -33.8080    11.9126     5.0537 H       
 224 H224         -35.8134    10.7708     5.9100 H       
 225 H225         -38.5089     8.7063     7.5089 H       
 226 H226         -39.9361     6.1809     7.8454 H       
 227 H227         -39.3798     8.0612    10.1828 H       
 228 H228         -40.5654     6.7340    10.2139 H       
 229 H229         -38.7596     5.1092     9.7162 H       
 230 H230         -37.5740     6.4364     9.6851 H       
 231 H231         -38.1153     6.9754    12.0441 H       
 232 H232         -39.3010     5.6481    12.0752 H       
 233 H233         -36.8104     4.5976    11.2566 H       
 234 H234         -37.4050     5.2203    15.1626 H       
 235 H235         -35.4907     3.4567    12.8774 H       
 236 H236         -35.7514     3.7280    14.5149 H       
 237 H237         -42.3172     6.9127     8.8736 H       
 238 H238         -43.1948     9.0033     7.0333 H       
 239 H239         -44.7058     7.2360     9.0087 H       
 240 H240         -45.4747     8.3882     7.8909 H       
 241 H241         -43.6323     5.2242     8.1751 H       
 242 H242         -43.5425     3.5419     6.3793 H       
 243 H243         -44.4193     4.0809     4.1423 H       
 244 H244         -45.3867     6.3020     3.7015 H       
 245 H245         -45.4841     7.9814     5.4996 H       
 246 H246         -44.4486    11.2811     9.6196 H       
 247 H247          20.4526    12.3198    16.1029 H       
 248 H248          20.0736    14.0477    16.3007 H       
 249 H249          20.6208    13.0909    17.6983 H       
 250 H250          18.5492    11.7332    17.5799 H       
 251 H251          18.1702    13.4611    17.7777 H       
 252 H252          17.8027    13.6602    15.3335 H       
 253 H253          18.1818    11.9324    15.1357 H       
 254 H254          16.2784    11.3457    16.6128 H       
 255 H255          15.8993    13.0736    16.8105 H       
 256 H256          15.5319    13.2727    14.3664 H       
 257 H257          15.9109    11.5449    14.1686 H       
 258 H258          14.0075    10.9583    15.6456 H       
 259 H259          13.6284    12.6861    15.8434 H       
 260 H260          13.2610    12.8853    13.3992 H       
 261 H261          13.6400    11.1574    13.2014 H       
 262 H262          11.7366    10.5708    14.6784 H       
 263 H263          11.3576    12.2987    14.8762 H       
 264 H264          10.9901    12.4978    12.4320 H       
 265 H265          11.3691    10.7699    12.2343 H       
 266 H266           9.4657    10.1833    13.7113 H       
 267 H267           9.0867    11.9112    13.9090 H       
 268 H268           8.7192    12.1103    11.4649 H       
 269 H269           9.0983    10.3825    11.2671 H       
 270 H270           7.1949     9.7959    12.7441 H       
 271 H271           6.8158    11.5237    12.9419 H       
 272 H272           6.4484    11.7229    10.4977 H       
 273 H273           6.8274     9.9950    10.3000 H       
 274 H274           4.9240     9.4084    11.7770 H       
 275 H275           4.5449    11.1363    11.9747 H       
 276 H276           4.5565     9.6075     9.3328 H       
 277 H277           4.1775    11.3354     9.5306 H       
@<TRIPOS>BOND
   1    1    2 2
   2    1    4 1
   3    1   10 am
   4    3  121 am
   5    3    4 1
   6    3  138 1
   7    4    5 1
   8    4  139 1
   9    5    6 1
  10    5    7 1
  11    5  140 1
  12    6  141 1
  13    6  142 1
  14    6  143 1
  15    7  144 1
  16    8    9 2
  17    8   11 1
  18    8   18 am
  19   10   11 1
  20   10  145 1
  21   11   12 1
  22   11  146 1
  23   12   13 1
  24   12  147 1
  25   12  148 1
  26   13   14 2
  27   13   15 am
  28   15  149 1
  29   15  150 1
  30   16   17 2
  31   16   19 1
  32   16   23 am
  33   18   19 1
  34   18  151 1
  35   19   20 1
  36   19  152 1
  37   20  153 1
  38   20  154 1
  39   20  155 1
  40   21   22 2
  41   21   24 1
  42   21   27 am
  43   23   24 1
  44   23  156 1
  45   24  157 1
  46   24  158 1
  47   25   26 2
  48   25   28 1
  49   25   38 am
  50   27   28 1
  51   27  159 1
  52   28   29 1
  53   28  160 1
  54   29   30 1
  55   29  161 1
  56   29  162 1
  57   30   31 1
  58   30  163 1
  59   30  164 1
  60   31   32 1
  61   31  165 1
  62   31  166 1
  63   32   33 1
  64   32  167 1
  65   33   34 2
  66   33   35 1
  67   34  168 1
  68   35  169 1
  69   35  170 1
  70   36   37 2
  71   36   39 1
  72   36   44 am
  73   38   39 1
  74   38  171 1
  75   39   40 1
  76   39  172 1
  77   40   41 1
  78   40  173 1
  79   40  174 1
  80   41  175 1
  81   42   43 2
  82   42   45 1
  83   42   52 am
  84   44   45 1
  85   44  176 1
  86   45   46 1
  87   45  177 1
  88   46   47 1
  89   46  178 1
  90   46  179 1
  91   47   48 2
  92   47   49 1
  93   49  180 1
  94   50   51 2
  95   50   53 1
  96   50   59 am
  97   52   53 1
  98   52  181 1
  99   53   54 1
 100   53  182 1
 101   54   55 1
 102   54   56 1
 103   54  183 1
 104   55  184 1
 105   55  185 1
 106   55  186 1
 107   56  187 1
 108   57   58 2
 109   57   60 1
 110   57   70 am
 111   59   60 1
 112   59  188 1
 113   60   61 1
 114   60  189 1
 115   61   62 1
 116   61  190 1
 117   61  191 1
 118   62   63 1
 119   62  192 1
 120   62  193 1
 121   63   64 1
 122   63  194 1
 123   63  195 1
 124   64   65 1
 125   64  196 1
 126   65   66 2
 127   65   67 1
 128   66  197 1
 129   67  198 1
 130   67  199 1
 131   68   69 2
 132   68   71 1
 133   68   79 am
 134   70   71 1
 135   70  200 1
 136   71   72 1
 137   71  201 1
 138   72   73 1
 139   72  202 1
 140   72  203 1
 141   73   74 1
 142   73  204 1
 143   73  205 1
 144   74   75 2
 145   74   76 am
 146   76  206 1
 147   76  207 1
 148   77   78 2
 149   77   80 1
 150   77   88 am
 151   79   80 1
 152   79  208 1
 153   80   81 1
 154   80  209 1
 155   81   82 1
 156   81  210 1
 157   81  211 1
 158   82   83 1
 159   82  212 1
 160   82  213 1
 161   83   84 2
 162   83   85 am
 163   85  214 1
 164   85  215 1
 165   86   87 2
 166   86   89 1
 167   86  100 am
 168   88   89 1
 169   88  216 1
 170   89   90 1
 171   89  217 1
 172   90   91 1
 173   90  218 1
 174   90  219 1
 175   91   92 ar
 176   91   97 ar
 177   92   93 ar
 178   92  220 1
 179   93   94 ar
 180   93  221 1
 181   94   95 1
 182   94   96 ar
 183   95  222 1
 184   96   97 ar
 185   96  223 1
 186   97  224 1
 187   98   99 2
 188   98  101 1
 189   98  111 am
 190  100  101 1
 191  100  225 1
 192  101  102 1
 193  101  226 1
 194  102  103 1
 195  102  227 1
 196  102  228 1
 197  103  104 1
 198  103  229 1
 199  103  230 1
 200  104  105 1
 201  104  231 1
 202  104  232 1
 203  105  106 1
 204  105  233 1
 205  106  107 2
 206  106  108 1
 207  107  234 1
 208  108  235 1
 209  108  236 1
 210  109  110 2
 211  109  112 1
 212  109  120 1
 213  111  112 1
 214  111  237 1
 215  112  113 1
 216  112  238 1
 217  113  114 1
 218  113  239 1
 219  113  240 1
 220  114  115 ar
 221  114  119 ar
 222  115  116 ar
 223  115  241 1
 224  116  117 ar
 225  116  242 1
 226  117  118 ar
 227  117  243 1
 228  118  119 ar
 229  118  244 1
 230  119  245 1
 231  120  246 1
 232  121  122 2
 233  121  137 1
 234  123  124 1
 235  123  247 1
 236  123  248 1
 237  123  249 1
 238  124  125 1
 239  124  250 1
 240  124  251 1
 241  125  126 1
 242  125  252 1
 243  125  253 1
 244  126  127 1
 245  126  254 1
 246  126  255 1
 247  127  128 1
 248  127  256 1
 249  127  257 1
 250  128  129 1
 251  128  258 1
 252  128  259 1
 253  129  130 1
 254  129  260 1
 255  129  261 1
 256  130  131 1
 257  130  262 1
 258  130  263 1
 259  131  132 1
 260  131  264 1
 261  131  265 1
 262  132  133 1
 263  132  266 1
 264  132  267 1
 265  133  134 1
 266  133  268 1
 267  133  269 1
 268  134  135 1
 269  134  270 1
 270  134  271 1
 271  135  136 1
 272  135  272 1
 273  135  273 1
 274  136  137 1
 275  136  274 1
 276  136  275 1
 277  137  276 1
 278  137  277 1

#	End of record

