#	Name: ASD02508130
#	Creating user name:	WinNT
#	Creation time:	15. 06. 2019 20:23

#	Modifying user name:	WinNT
#	Modification time:	15. 06. 2019 20:23

#	Program:	/corina/corina34_cracker 3.40 0067  02.08.2006

@<TRIPOS>MOLECULE
ASD02508130
  39   41    0    0    0
SMALL
NO_CHARGES


@<TRIPOS>ATOM
   1 C1             0.5208     2.0064    -0.3397 C.ar    
   2 C2             0.3043     0.6678    -0.0523 C.ar    
   3 C3             1.8181     2.4752    -0.5455 C.ar    
   4 C4             2.8876     1.5975    -0.4609 C.ar    
   5 C5             2.6643     0.2651    -0.1737 C.ar    
   6 C6             1.3764    -0.1994     0.0296 C.ar    
   7 N7            -0.3279     3.1024    -0.4925 N.am    
   8 C8             0.4405     4.1740    -0.7710 C.2     
   9 O9             1.7299     3.8028    -0.8050 O.3     
  10 S10            4.0253    -0.8489    -0.0666 S.o2    
  11 N11            4.4435    -0.9597     1.5318 N.am    
  12 C12            4.8752     0.1759     2.2211 C.ar    
  13 O13            0.0290     5.3016    -0.9659 O.2     
  14 C14           -1.7880     3.0909    -0.3726 C.3     
  15 O15            3.5284    -2.1266    -0.4409 O.2     
  16 O16            5.1147    -0.2158    -0.7235 O.2     
  17 C17            4.3665     0.4602     3.4820 C.ar    
  18 C18            5.8184     1.0205     1.6495 C.ar    
  19 C19            6.2431     2.1424     2.3337 C.ar    
  20 C20            5.7307     2.4253     3.5866 C.ar    
  21 C21            4.7954     1.5839     4.1607 C.ar    
  22 C22            4.2399     1.8962     5.5263 C.3     
  23 C23            7.2663     3.0592     1.7144 C.3     
  24 H24           -0.6999     0.3039     0.1076 H       
  25 H25            3.8943     1.9550    -0.6198 H       
  26 H26            1.2093    -1.2425     0.2540 H       
  27 H27            4.3887    -1.8131     1.9895 H       
  28 H28           -2.0692     3.2906     0.6614 H       
  29 H29           -2.2117     3.8592    -1.0193 H       
  30 H30           -2.1693     2.1142    -0.6706 H       
  31 H31            3.6360    -0.1965     3.9310 H       
  32 H32            6.2195     0.7997     0.6713 H       
  33 H33            6.0650     3.3030     4.1198 H       
  34 H34            3.3498     2.5169     5.4232 H       
  35 H35            3.9784     0.9674     6.0333 H       
  36 H36            4.9896     2.4302     6.1101 H       
  37 H37            6.7595     3.8292     1.1326 H       
  38 H38            7.8573     3.5283     2.5011 H       
  39 H39            7.9223     2.4834     1.0616 H       
@<TRIPOS>BOND
   1    1    2 ar
   2    1    3 ar
   3    1    7 1
   4    2    6 ar
   5    2   24 1
   6    3    4 ar
   7    3    9 1
   8    4    5 ar
   9    4   25 1
  10    5    6 ar
  11    5   10 1
  12    6   26 1
  13    7    8 am
  14    7   14 1
  15    8    9 1
  16    8   13 2
  17   10   11 am
  18   10   15 2
  19   10   16 2
  20   11   12 1
  21   11   27 1
  22   12   17 ar
  23   12   18 ar
  24   14   28 1
  25   14   29 1
  26   14   30 1
  27   17   21 ar
  28   17   31 1
  29   18   19 ar
  30   18   32 1
  31   19   20 ar
  32   19   23 1
  33   20   21 ar
  34   20   33 1
  35   21   22 1
  36   22   34 1
  37   22   35 1
  38   22   36 1
  39   23   37 1
  40   23   38 1
  41   23   39 1

#	End of record

