#	Name: ASD08150303
#	Creating user name:	WinNT
#	Creation time:	15. 06. 2019 21:15

#	Modifying user name:	WinNT
#	Modification time:	15. 06. 2019 21:15

#	Program:	/corina/corina34_cracker 3.40 0067  02.08.2006

@<TRIPOS>MOLECULE
ASD08150303
  34   35    0    0    0
SMALL
NO_CHARGES


@<TRIPOS>ATOM
   1 C1            -0.0178     1.4608     0.0101 C.3     
   2 N2             0.0021    -0.0041     0.0020 N.2     
   3 C3             1.3960     1.9824    -0.0006 C.ar    
   4 C4             2.0330     2.2281    -1.2026 C.ar    
   5 C5             3.3299     2.7065    -1.2124 C.ar    
   6 C6             3.9896     2.9397    -0.0202 C.ar    
   7 C7             3.3523     2.6949     1.1817 C.ar    
   8 C8             2.0539     2.2206     1.1916 C.ar    
   9 C9            -0.4479    -0.6555     1.0072 C.2     
  10 O10           -1.6954    -4.0230     0.3506 O.3     
  11 C11           -0.4721    -3.9738    -0.3953 C.3     
  12 O12            0.1077    -2.6667    -0.2483 O.3     
  13 C13           -0.4275    -2.1624     0.9989 C.3     
  14 C14           -1.8662    -2.7364     0.9790 C.3     
  15 C15            0.4982    -5.0295     0.1384 C.3     
  16 C16           -0.7600    -4.2452    -1.8733 C.3     
  17 O17            0.5192    -0.6990    -1.1181 O.3     
  18 H18           -0.5450     1.8219    -0.8730 H       
  19 H19           -0.5280     1.8123     0.9069 H       
  20 H20            1.5176     2.0459    -2.1340 H       
  21 H21            3.8278     2.8978    -2.1515 H       
  22 H22            5.0031     3.3128    -0.0279 H       
  23 H23            3.8678     2.8768     2.1132 H       
  24 H24            1.5547     2.0328     2.1307 H       
  25 H25           -0.8424    -0.1255     1.8615 H       
  26 H26            0.1349    -2.5482     1.8492 H       
  27 H27           -2.5256    -2.1027     0.3860 H       
  28 H28           -2.2494    -2.8508     1.9930 H       
  29 H29            0.0622    -6.0205     0.0125 H       
  30 H30            1.4366    -4.9726    -0.4133 H       
  31 H31            0.6872    -4.8475     1.1964 H       
  32 H32           -1.4669    -3.5048    -2.2477 H       
  33 H33            0.1679    -4.1818    -2.4418 H       
  34 H34           -1.1860    -5.2425    -1.9833 H       
@<TRIPOS>BOND
   1    1    2 1
   2    1    3 1
   3    1   18 1
   4    1   19 1
   5    2    9 2
   6    2   17 1
   7    3    4 ar
   8    3    8 ar
   9    4    5 ar
  10    4   20 1
  11    5    6 ar
  12    5   21 1
  13    6    7 ar
  14    6   22 1
  15    7    8 ar
  16    7   23 1
  17    8   24 1
  18    9   13 1
  19    9   25 1
  20   10   11 1
  21   10   14 1
  22   11   12 1
  23   11   15 1
  24   11   16 1
  25   12   13 1
  26   13   14 1
  27   13   26 1
  28   14   27 1
  29   14   28 1
  30   15   29 1
  31   15   30 1
  32   15   31 1
  33   16   32 1
  34   16   33 1
  35   16   34 1

#	End of record

