#	Name: ASD00071112
#	Creating user name:	WinNT
#	Creation time:	15. 06. 2019 18:30

#	Modifying user name:	WinNT
#	Modification time:	15. 06. 2019 18:30

#	Program:	/corina/corina34_cracker 3.40 0067  02.08.2006

@<TRIPOS>MOLECULE
ASD00071112
  37   38    0    0    0
SMALL
NO_CHARGES


@<TRIPOS>ATOM
   1 C1             0.1130     1.3635     0.7654 C.2     
   2 C2             0.0657    -0.0559     0.3694 C.ar    
   3 C3             1.2196    -0.6933    -0.1133 C.ar    
   4 C4             1.1619    -2.0310    -0.4832 C.ar    
   5 C5            -0.0246    -2.7275    -0.3759 C.ar    
   6 C6            -1.1654    -2.1009     0.0997 C.ar    
   7 C7            -1.1262    -0.7764     0.4774 C.ar    
   8 O8             1.1740     1.9576     0.7732 O.2     
   9 N9            -1.0205     2.0041     1.1135 N.am    
  10 N10           -0.0792    -4.1526    -0.7718 N.pl3   
  11 O11            0.9212    -4.7071    -1.1907 O.2     
  12 O12           -1.1244    -4.7710    -0.6786 O.2     
  13 C13           -0.9735     3.4145     1.5071 C.3     
  14 C14           -2.3636     3.8882     1.8454 C.ar    
  15 C15           -2.9139     3.5967     3.0853 C.ar    
  16 C16           -4.1936     4.0341     3.3936 C.ar    
  17 C17           -4.9171     4.7587     2.4659 C.ar    
  18 C18           -4.3667     5.0474     1.2311 C.ar    
  19 C19           -3.0887     4.6178     0.9235 C.ar    
  20 O20           -2.2005     2.8834     3.9959 O.3     
  21 C21           -2.8302     2.6206     5.2515 C.3     
  22 N22            2.4124     0.0099    -0.2208 N.pl3   
  23 H23            2.0464    -2.5264    -0.8555 H       
  24 H24           -2.0889    -2.6551     0.1794 H       
  25 H25           -2.0172    -0.2944     0.8520 H       
  26 H26           -1.8675     1.5314     1.1035 H       
  27 H27           -0.3291     3.5272     2.3789 H       
  28 H28           -0.5777     4.0086     0.6834 H       
  29 H29           -4.6243     3.8081     4.3579 H       
  30 H30           -5.9135     5.0994     2.7055 H       
  31 H31           -4.9340     5.6133     0.5070 H       
  32 H32           -2.6590     4.8487    -0.0400 H       
  33 H33           -2.1541     2.0447     5.8835 H       
  34 H34           -3.0709     3.5638     5.7418 H       
  35 H35           -3.7459     2.0526     5.0869 H       
  36 H36            2.4005     0.9774    -0.2894 H       
  37 H37            3.2573    -0.4664    -0.2272 H       
@<TRIPOS>BOND
   1    1    2 1
   2    1    8 2
   3    1    9 am
   4    2    3 ar
   5    2    7 ar
   6    3    4 ar
   7    3   22 1
   8    4    5 ar
   9    4   23 1
  10    5    6 ar
  11    5   10 1
  12    6    7 ar
  13    6   24 1
  14    7   25 1
  15    9   13 1
  16    9   26 1
  17   10   11 2
  18   10   12 2
  19   13   14 1
  20   13   27 1
  21   13   28 1
  22   14   15 ar
  23   14   19 ar
  24   15   16 ar
  25   15   20 1
  26   16   17 ar
  27   16   29 1
  28   17   18 ar
  29   17   30 1
  30   18   19 ar
  31   18   31 1
  32   19   32 1
  33   20   21 1
  34   21   33 1
  35   21   34 1
  36   21   35 1
  37   22   36 1
  38   22   37 1

#	End of record

