#	Name: ASD01816135
#	Creating user name:	WinNT
#	Creation time:	15. 06. 2019 19:34

#	Modifying user name:	WinNT
#	Modification time:	15. 06. 2019 19:34

#	Program:	/corina/corina34_cracker 3.40 0067  02.08.2006

@<TRIPOS>MOLECULE
ASD01816135
  61   66    0    0    0
SMALL
NO_CHARGES


@<TRIPOS>ATOM
   1 C1             0.1544     0.5029     0.6146 C.ar    
   2 C2             0.2389    -0.8719     0.4652 C.ar    
   3 C3             1.4639    -1.4892     0.3187 C.ar    
   4 C4             2.6300    -0.7320     0.3199 C.ar    
   5 C5             2.5408     0.6619     0.4710 C.ar    
   6 C6             1.2998     1.2725     0.6180 C.ar    
   7 N7             3.8623    -1.3453     0.1742 N.pl3   
   8 C8             5.0208    -0.6664     0.1682 C.2     
   9 C9             5.0583     0.6986     0.3080 C.2     
  10 C10            3.7904     1.4462     0.4694 C.2     
  11 C11            6.1062     1.7140     0.3448 C.2     
  12 N12            5.4774     2.8978     0.5096 N.am    
  13 N13            4.0952     2.7072     0.5808 N.2     
  14 O14            7.3086     1.5302     0.2470 O.2     
  15 C15            3.9046    -2.8016     0.0202 C.3     
  16 C16            3.8254    -3.1545    -1.4428 C.ar    
  17 N17            2.6456    -3.2500    -2.0246 N.ar    
  18 C18            2.5222    -3.5551    -3.3003 C.ar    
  19 C19            3.6486    -3.7896    -4.0854 C.ar    
  20 C20            4.9134    -3.6961    -3.4982 C.ar    
  21 C21            4.9912    -3.3676    -2.1558 C.ar    
  22 C22            6.1195     4.1396     0.5969 C.ar    
  23 C23            5.8916     4.9668     1.6914 C.ar    
  24 C24            6.9894     4.5453    -0.4063 C.ar    
  25 C25            7.6211     5.7704    -0.3176 C.ar    
  26 C26            7.3887     6.5939     0.7689 C.ar    
  27 C27            6.5277     6.1922     1.7735 C.ar    
  28 F28            5.0500     4.5743     2.6727 F       
  29 C29            3.5079    -4.1337    -5.5221 C.ar    
  30 C30            2.2432    -4.2248    -6.0974 C.ar    
  31 C31            2.1186    -4.5468    -7.4406 C.ar    
  32 C32            3.2546    -4.7774    -8.2077 C.ar    
  33 C33            4.5090    -4.6871    -7.6355 C.ar    
  34 C34            4.6415    -4.3609    -6.3002 C.ar    
  35 N35            0.8519    -4.6399    -8.0222 N.am    
  36 S36            0.2050    -6.1254    -8.3643 S.o2    
  37 O37           -1.0710    -5.8330    -8.9172 O.2     
  38 O38            1.2064    -6.7746    -9.1356 O.2     
  39 C39            0.0292    -6.9260    -6.7460 C.3     
  40 H40           -0.8111     0.9742     0.7242 H       
  41 H41           -0.6629    -1.4661     0.4638 H       
  42 H42            1.5172    -2.5617     0.2034 H       
  43 H43            1.2329     2.3442     0.7341 H       
  44 H44            5.9474    -1.2087     0.0506 H       
  45 H45            4.8367    -3.1841     0.4362 H       
  46 H46            3.0613    -3.2474     0.5476 H       
  47 H47            1.5387    -3.6244    -3.7412 H       
  48 H48            5.8074    -3.8717    -4.0780 H       
  49 H49            5.9516    -3.2863    -1.6686 H       
  50 H50            7.1723     3.9032    -1.2553 H       
  51 H51            8.2980     6.0857    -1.0979 H       
  52 H52            7.8846     7.5510     0.8352 H       
  53 H53            6.3484     6.8377     2.6206 H       
  54 H54            1.3620    -4.0456    -5.4994 H       
  55 H55            3.1565    -5.0281    -9.2537 H       
  56 H56            5.3887    -4.8678    -8.2354 H       
  57 H57            5.6236    -4.2909    -5.8566 H       
  58 H58            0.3514    -3.8343    -8.2258 H       
  59 H59           -0.5572    -6.2866    -6.0861 H       
  60 H60           -0.4767    -7.8839    -6.8676 H       
  61 H61            1.0157    -7.0886    -6.3120 H       
@<TRIPOS>BOND
   1    1    2 ar
   2    1    6 ar
   3    1   40 1
   4    2    3 ar
   5    2   41 1
   6    3    4 ar
   7    3   42 1
   8    4    5 ar
   9    4    7 1
  10    5    6 ar
  11    5   10 1
  12    6   43 1
  13    7    8 1
  14    7   15 1
  15    8    9 2
  16    8   44 1
  17    9   10 1
  18    9   11 1
  19   10   13 2
  20   11   12 am
  21   11   14 2
  22   12   13 1
  23   12   22 1
  24   15   16 1
  25   15   45 1
  26   15   46 1
  27   16   17 ar
  28   16   21 ar
  29   17   18 ar
  30   18   19 ar
  31   18   47 1
  32   19   20 ar
  33   19   29 1
  34   20   21 ar
  35   20   48 1
  36   21   49 1
  37   22   23 ar
  38   22   24 ar
  39   23   28 1
  40   23   27 ar
  41   24   25 ar
  42   24   50 1
  43   25   26 ar
  44   25   51 1
  45   26   27 ar
  46   26   52 1
  47   27   53 1
  48   29   30 ar
  49   29   34 ar
  50   30   31 ar
  51   30   54 1
  52   31   32 ar
  53   31   35 1
  54   32   33 ar
  55   32   55 1
  56   33   34 ar
  57   33   56 1
  58   34   57 1
  59   35   36 am
  60   35   58 1
  61   36   37 2
  62   36   38 2
  63   36   39 1
  64   39   59 1
  65   39   60 1
  66   39   61 1

#	End of record

