#	Name: ASD01917092
#	Creating user name:	WinNT
#	Creation time:	15. 06. 2019 20:08

#	Modifying user name:	WinNT
#	Modification time:	15. 06. 2019 20:08

#	Program:	/corina/corina34_cracker 3.40 0067  02.08.2006

@<TRIPOS>MOLECULE
ASD01917092
  38   40    0    0    0
SMALL
NO_CHARGES


@<TRIPOS>ATOM
   1 C1            -0.0421     1.4705     0.1499 C.ar    
   2 C2            -0.0084    -0.0060     0.0627 C.2     
   3 N3             1.0566    -0.7656     0.2102 N.2     
   4 C4             0.7168    -2.0514     0.0664 C.2     
   5 N5            -0.5743    -2.1277    -0.1755 N.2     
   6 N6            -1.0680    -0.8131    -0.1769 N.pl3   
   7 C7            -2.4545    -0.3970    -0.4022 C.3     
   8 C8            -3.1964    -0.3903     0.9095 C.2     
   9 O9            -4.4913    -0.0390     0.9464 O.3     
  10 O10           -2.6256    -0.7013     1.9280 O.2     
  11 C11            1.6454    -3.2047     0.1632 C.ar    
  12 C12           -1.2474     2.1300     0.3932 C.ar    
  13 C13            2.9977    -2.9921     0.4246 C.ar    
  14 C14            3.8585    -4.0659     0.5140 C.ar    
  15 C15            3.3791    -5.3576     0.3437 C.ar    
  16 C16            2.0325    -5.5724     0.0832 C.ar    
  17 C17            1.1660    -4.5029    -0.0016 C.ar    
  18 C18           -1.2734     3.5065     0.4741 C.ar    
  19 C19           -0.1052     4.2347     0.3137 C.ar    
  20 C20            1.0945     3.5844     0.0718 C.ar    
  21 C21            1.1322     2.2079    -0.0051 C.ar    
  22 O22            4.2295    -6.4136     0.4319 O.3     
  23 F23           -0.1361     5.5830     0.3929 F       
  24 C24            3.6693    -7.7150     0.2462 C.3     
  25 H25           -2.4679     0.6045    -0.8323 H       
  26 H26           -2.9360    -1.0936    -1.0884 H       
  27 H27           -4.9248    -0.0499     1.8107 H       
  28 H28           -2.1584     1.5635     0.5176 H       
  29 H29            3.3713    -1.9874     0.5568 H       
  30 H30            4.9066    -3.9017     0.7162 H       
  31 H31            1.6624    -6.5784    -0.0492 H       
  32 H32            0.1185    -4.6706    -0.2043 H       
  33 H33           -2.2059     4.0179     0.6623 H       
  34 H34            2.0021     4.1563    -0.0528 H       
  35 H35            2.0676     1.7021    -0.1936 H       
  36 H36            4.4541    -8.4654     0.3419 H       
  37 H37            2.9034    -7.8920     1.0013 H       
  38 H38            3.2231    -7.7803    -0.7461 H       
@<TRIPOS>BOND
   1    1    2 1
   2    1   12 ar
   3    1   21 ar
   4    2    3 2
   5    2    6 1
   6    3    4 1
   7    4    5 2
   8    4   11 1
   9    5    6 1
  10    6    7 1
  11    7    8 1
  12    7   25 1
  13    7   26 1
  14    8    9 1
  15    8   10 2
  16    9   27 1
  17   11   13 ar
  18   11   17 ar
  19   12   18 ar
  20   12   28 1
  21   13   14 ar
  22   13   29 1
  23   14   15 ar
  24   14   30 1
  25   15   16 ar
  26   15   22 1
  27   16   17 ar
  28   16   31 1
  29   17   32 1
  30   18   19 ar
  31   18   33 1
  32   19   20 ar
  33   19   23 1
  34   20   21 ar
  35   20   34 1
  36   21   35 1
  37   22   24 1
  38   24   36 1
  39   24   37 1
  40   24   38 1

#	End of record

