#	Name: ASD01810739
#	Creating user name:	WinNT
#	Creation time:	15. 06. 2019 19:25

#	Modifying user name:	WinNT
#	Modification time:	15. 06. 2019 19:25

#	Program:	/corina/corina34_cracker 3.40 0067  02.08.2006

@<TRIPOS>MOLECULE
ASD01810739
  70   73    0    0    0
SMALL
NO_CHARGES


@<TRIPOS>ATOM
   1 C1            -0.1643     1.4703    -0.5484 C.2     
   2 C2            -0.1402    -0.0046    -0.5449 C.ar    
   3 C3             0.9244    -0.7006    -1.1383 C.ar    
   4 C4             0.9057    -2.0688    -1.1113 C.ar    
   5 C5            -0.1610    -2.7262    -0.5004 C.ar    
   6 N6            -1.1547    -2.0447     0.0530 N.ar    
   7 C7            -1.1729    -0.7280     0.0537 C.ar    
   8 O8             0.7425     2.0920    -1.0680 O.2     
   9 N9            -1.1941     2.1288     0.0193 N.am    
  10 N10           -0.1834    -4.1104    -0.4716 N.pl3   
  11 C11            0.9090    -4.8735    -1.0804 C.3     
  12 C12            2.0530    -5.0173    -0.0747 C.3     
  13 C13            0.4019    -6.2612    -1.4779 C.3     
  14 C14           -1.1623     3.5237     0.1195 C.ar    
  15 C15           -2.3374     4.2530     0.0201 C.ar    
  16 C16           -2.3002     5.6434     0.1207 C.ar    
  17 C17           -1.0800     6.2918     0.3209 C.ar    
  18 C18            0.0839     5.5570     0.4185 C.ar    
  19 C19            0.0463     4.1782     0.3245 C.ar    
  20 C20           -1.0340     7.7941     0.4298 C.3     
  21 C21           -3.6502     3.5455    -0.1964 C.3     
  22 C22           -3.5487     6.4284     0.0152 C.2     
  23 O23           -4.1951     6.6792     1.0136 O.2     
  24 N24           -3.9702     6.8658    -1.1879 N.am    
  25 C25           -5.2087     7.6468    -1.3087 C.3     
  26 C26           -4.8997     8.9491    -2.0540 C.3     
  27 C27           -4.2308     8.6208    -3.3907 C.3     
  28 C28           -2.9130     7.8853    -3.1366 C.3     
  29 C29           -3.1966     6.5758    -2.4029 C.3     
  30 F30           -5.0796     7.8076    -4.1493 F       
  31 C31           -3.9561     9.8981    -4.1418 C.ar    
  32 C32           -3.6470     9.8515    -5.4896 C.ar    
  33 C33           -3.3945    11.0168    -6.1833 C.ar    
  34 C34           -3.4518    12.2454    -5.5221 C.ar    
  35 C35           -3.7648    12.2851    -4.1619 C.ar    
  36 C36           -4.0198    11.1124    -3.4816 C.ar    
  37 C37           -3.1904    13.4591    -6.2357 C.1     
  38 N38           -2.9830    14.4219    -6.8018 N.1     
  39 H39            1.7397    -0.1686    -1.6059 H       
  40 H40            1.7097    -2.6338    -1.5593 H       
  41 H41           -1.9954    -0.2038     0.5175 H       
  42 H42           -1.9574     1.6355     0.3583 H       
  43 H43           -0.9224    -4.5747    -0.0483 H       
  44 H44            1.2679    -4.3502    -1.9667 H       
  45 H45            2.4142    -4.0286     0.2085 H       
  46 H46            1.6941    -5.5406     0.8115 H       
  47 H47            2.8657    -5.5851    -0.5277 H       
  48 H48           -0.4131    -6.1588    -2.1944 H       
  49 H49            1.2146    -6.8290    -1.9309 H       
  50 H50            0.0430    -6.7845    -0.5917 H       
  51 H51            1.0268     6.0604     0.5730 H       
  52 H52            0.9599     3.6081     0.4065 H       
  53 H53           -1.1527     8.0866     1.4731 H       
  54 H54           -0.0756     8.1562     0.0577 H       
  55 H55           -1.8404     8.2262    -0.1627 H       
  56 H56           -4.0965     3.3045     0.7683 H       
  57 H57           -4.3241     4.1936    -0.7568 H       
  58 H58           -3.4796     2.6267    -0.7575 H       
  59 H59           -5.9493     7.0736    -1.8664 H       
  60 H60           -5.5940     7.8769    -0.3154 H       
  61 H61           -5.8266     9.4934    -2.2350 H       
  62 H62           -4.2287     9.5622    -1.4523 H       
  63 H63           -2.4258     7.6725    -4.0881 H       
  64 H64           -2.2607     8.5084    -2.5247 H       
  65 H65           -2.2546     6.0993    -2.1312 H       
  66 H66           -3.7697     5.9134    -3.0516 H       
  67 H67           -3.6030     8.9006    -5.9997 H       
  68 H68           -3.1526    10.9790    -7.2351 H       
  69 H69           -3.8109    13.2319    -3.6445 H       
  70 H70           -4.2661    11.1419    -2.4305 H       
@<TRIPOS>BOND
   1    1    2 1
   2    1    8 2
   3    1    9 am
   4    2    3 ar
   5    2    7 ar
   6    3    4 ar
   7    3   39 1
   8    4    5 ar
   9    4   40 1
  10    5    6 ar
  11    5   10 1
  12    6    7 ar
  13    7   41 1
  14    9   14 1
  15    9   42 1
  16   10   11 1
  17   10   43 1
  18   11   12 1
  19   11   13 1
  20   11   44 1
  21   12   45 1
  22   12   46 1
  23   12   47 1
  24   13   48 1
  25   13   49 1
  26   13   50 1
  27   14   15 ar
  28   14   19 ar
  29   15   16 ar
  30   15   21 1
  31   16   17 ar
  32   16   22 1
  33   17   18 ar
  34   17   20 1
  35   18   19 ar
  36   18   51 1
  37   19   52 1
  38   20   53 1
  39   20   54 1
  40   20   55 1
  41   21   56 1
  42   21   57 1
  43   21   58 1
  44   22   23 2
  45   22   24 am
  46   24   25 1
  47   24   29 1
  48   25   26 1
  49   25   59 1
  50   25   60 1
  51   26   27 1
  52   26   61 1
  53   26   62 1
  54   27   28 1
  55   27   30 1
  56   27   31 1
  57   28   29 1
  58   28   63 1
  59   28   64 1
  60   29   65 1
  61   29   66 1
  62   31   32 ar
  63   31   36 ar
  64   32   33 ar
  65   32   67 1
  66   33   34 ar
  67   33   68 1
  68   34   35 ar
  69   34   37 1
  70   35   36 ar
  71   35   69 1
  72   36   70 1
  73   37   38 3

#	End of record

