#	Name: ASD08170122
#	Creating user name:	WinNT
#	Creation time:	15. 06. 2019 21:17

#	Modifying user name:	WinNT
#	Modification time:	15. 06. 2019 21:17

#	Program:	/corina/corina34_cracker 3.40 0067  02.08.2006

@<TRIPOS>MOLECULE
ASD08170122
  66   71    0    0    0
SMALL
NO_CHARGES


@<TRIPOS>ATOM
   1 C1            -0.5878     2.3896     2.6862 C.3     
   2 C2            -0.0424     0.9622     2.6075 C.3     
   3 C3             0.4665     3.3045     3.3124 C.3     
   4 C4            -0.0788     4.7319     3.3911 C.3     
   5 C5             0.9596     5.6331     4.0080 C.2     
   6 C6            -1.0809     0.0610     1.9906 C.2     
   7 S7             1.1461     5.9813     5.7271 S.3     
   8 C8             2.4739     6.9986     5.3573 C.2     
   9 N9             2.6558     6.9946     4.0712 N.2     
  10 N10            1.8790     6.2867     3.3715 N.2     
  11 S11           -2.3283    -0.8352     2.8581 S.3     
  12 N12           -1.2213    -0.1903     0.7278 N.2     
  13 N13           -2.1568    -0.9757     0.4088 N.2     
  14 C14           -2.8919    -1.4578     1.3650 C.2     
  15 N15           -3.9608    -2.3328     1.2033 N.am    
  16 C16           -4.3095    -2.7500    -0.0299 C.2     
  17 O17           -3.7520    -2.2926    -1.0051 O.2     
  18 N18            3.2313     7.7109     6.2809 N.am    
  19 C19            4.2557     8.4802     5.8623 C.2     
  20 C20            4.9966     9.3490     6.8458 C.3     
  21 O21            4.5813     8.4733     4.6940 O.2     
  22 C22           -5.3921    -3.7849    -0.1971 C.3     
  23 C23            4.1532    10.3498     7.5929 C.ar    
  24 C24           -5.0754    -5.1516     0.3532 C.ar    
  25 C25            3.0441    10.9089     6.9862 C.ar    
  26 C26           -4.0776    -5.9148    -0.2236 C.ar    
  27 C27            2.2705    11.8270     7.6714 C.ar    
  28 C28            2.6059    12.1857     8.9636 C.ar    
  29 C29            3.7145    11.6259     9.5707 C.ar    
  30 C30            4.4856    10.7046     8.8870 C.ar    
  31 C31           -3.7872    -7.1685     0.2812 C.ar    
  32 C32           -4.4942    -7.6587     1.3631 C.ar    
  33 C33           -5.4914    -6.8952     1.9405 C.ar    
  34 C34           -5.7789    -5.6397     1.4384 C.ar    
  35 C35            6.1772     8.7235     7.5914 C.3     
  36 C36            6.4277     9.7567     6.4901 C.3     
  37 C37           -6.8437    -3.3086    -0.1135 C.3     
  38 C38           -6.2474    -3.7142    -1.4638 C.3     
  39 H39           -0.8261     2.7433     1.6831 H       
  40 H40           -1.4890     2.4009     3.2992 H       
  41 H41            0.8588     0.9509     1.9945 H       
  42 H42            0.1960     0.6085     3.6106 H       
  43 H43            0.7049     2.9509     4.3155 H       
  44 H44            1.3677     3.2932     2.6994 H       
  45 H45           -0.3172     5.0856     2.3880 H       
  46 H46           -0.9801     4.7432     4.0041 H       
  47 H47           -4.4553    -2.6428     1.9781 H       
  48 H48            3.0223     7.6541     7.2264 H       
  49 H49            2.7821    10.6286     5.9766 H       
  50 H50           -3.5252    -5.5317    -1.0689 H       
  51 H51            1.4044    12.2643     7.1972 H       
  52 H52            2.0019    12.9035     9.4988 H       
  53 H53            3.9767    11.9064    10.5802 H       
  54 H54            5.3517    10.2673     9.3613 H       
  55 H55           -3.0081    -7.7650    -0.1700 H       
  56 H56           -4.2678    -8.6385     1.7570 H       
  57 H57           -6.0441    -7.2783     2.7856 H       
  58 H58           -6.5580    -5.0431     1.8896 H       
  59 H59            6.3441     9.0362     8.6221 H       
  60 H60            6.4180     7.6836     7.3705 H       
  61 H61            6.8335     9.3963     5.5448 H       
  62 H62            6.7594    10.7487     6.7966 H       
  63 H63           -7.5697    -3.9839     0.3392 H       
  64 H64           -7.0156    -2.2467     0.0625 H       
  65 H65           -6.0274    -2.9189    -2.1760 H       
  66 H66           -6.5814    -4.6561    -1.8989 H       
@<TRIPOS>BOND
   1    1    2 1
   2    1    3 1
   3    1   39 1
   4    1   40 1
   5    2    6 1
   6    2   41 1
   7    2   42 1
   8    3    4 1
   9    3   43 1
  10    3   44 1
  11    4    5 1
  12    4   45 1
  13    4   46 1
  14    5    7 1
  15    5   10 2
  16    6   11 1
  17    6   12 2
  18    7    8 1
  19    8    9 2
  20    8   18 1
  21    9   10 1
  22   11   14 1
  23   12   13 1
  24   13   14 2
  25   14   15 1
  26   15   16 am
  27   15   47 1
  28   16   17 2
  29   16   22 1
  30   18   19 am
  31   18   48 1
  32   19   20 1
  33   19   21 2
  34   20   23 1
  35   20   35 1
  36   20   36 1
  37   22   24 1
  38   22   37 1
  39   22   38 1
  40   23   25 ar
  41   23   30 ar
  42   24   26 ar
  43   24   34 ar
  44   25   27 ar
  45   25   49 1
  46   26   31 ar
  47   26   50 1
  48   27   28 ar
  49   27   51 1
  50   28   29 ar
  51   28   52 1
  52   29   30 ar
  53   29   53 1
  54   30   54 1
  55   31   32 ar
  56   31   55 1
  57   32   33 ar
  58   32   56 1
  59   33   34 ar
  60   33   57 1
  61   34   58 1
  62   35   36 1
  63   35   59 1
  64   35   60 1
  65   36   61 1
  66   36   62 1
  67   37   38 1
  68   37   63 1
  69   37   64 1
  70   38   65 1
  71   38   66 1

#	End of record

