#	Name: ASD01884890
#	Creating user name:	WinNT
#	Creation time:	15. 06. 2019 19:49

#	Modifying user name:	WinNT
#	Modification time:	15. 06. 2019 19:49

#	Program:	/corina/corina34_cracker 3.40 0067  02.08.2006

@<TRIPOS>MOLECULE
ASD01884890
  54   60    0    0    0
SMALL
NO_CHARGES


@<TRIPOS>ATOM
   1 C1            -0.0164     1.3605     0.0095 C.ar    
   2 C2             0.0021    -0.0041     0.0020 C.ar    
   3 C3             1.2155    -0.7018    -0.0128 C.ar    
   4 C4             2.4184    -0.0069    -0.0206 C.ar    
   5 C5             2.4036     1.3872    -0.0134 C.ar    
   6 C6             1.1768     2.0774     0.0020 C.ar    
   7 C7             3.4483     2.4153    -0.0180 C.2     
   8 C8             2.8280     3.6055    -0.0062 C.2     
   9 N9             1.4699     3.4245     0.0059 N.pl3   
  10 C10            1.2169    -2.1837    -0.0198 C.2     
  11 C11            0.7031    -2.8769    -1.0995 C.2     
  12 C12            1.7501    -2.9033     1.0771 C.2     
  13 C13            1.7513    -4.2495     1.0684 C.2     
  14 N14            1.2412    -4.9424     0.0086 N.pl3   
  15 C15            0.7188    -4.2819    -1.0772 C.2     
  16 C16            0.1341    -2.1371    -2.2827 C.3     
  17 C17            1.1126    -6.2698    -0.2671 C.2     
  18 N18            0.5448    -6.3753    -1.4406 N.2     
  19 N19            0.3082    -5.2088    -1.9292 N.2     
  20 C20            0.5208     4.4547     0.0197 C.ar    
  21 C21            1.5460    -7.4095     0.6185 C.3     
  22 C22            0.4690    -8.3917     1.0837 C.3     
  23 C23            1.4924    -8.8209     0.0304 C.3     
  24 C24           -0.5304     4.4560    -0.8872 C.ar    
  25 N25           -1.4256     5.4236    -0.8773 N.ar    
  26 C26           -1.3623     6.4199    -0.0159 C.ar    
  27 C27           -0.3448     6.4880     0.9180 C.ar    
  28 C28            0.6146     5.4895     0.9471 C.ar    
  29 C29           -2.4131     7.4995    -0.0499 C.3     
  30 C30            0.7857    -2.3773    -3.6460 C.3     
  31 C31           -0.5967    -2.9600    -3.3455 C.3     
  32 H32           -0.9600     1.8859     0.0168 H       
  33 H33           -0.9290    -0.5512     0.0080 H       
  34 H34            3.3566    -0.5418    -0.0317 H       
  35 H35            4.5150     2.2470    -0.0283 H       
  36 H36            3.3257     4.5640    -0.0054 H       
  37 H37            2.1575    -2.3703     1.9235 H       
  38 H38            2.1612    -4.7879     1.9102 H       
  39 H39           -0.2424    -1.1356    -2.0742 H       
  40 H40            2.3551    -7.1837     1.3131 H       
  41 H41            0.5698    -8.8123     2.0842 H       
  42 H42           -0.5530    -8.2135     0.7492 H       
  43 H43            1.1436    -8.9252    -0.9970 H       
  44 H44            2.2664    -9.5240     0.3380 H       
  45 H45           -0.6155     3.6564    -1.6081 H       
  46 H46           -0.3012     7.3082     1.6194 H       
  47 H47            1.4202     5.5170     1.6659 H       
  48 H48           -3.2395     7.2230     0.6048 H       
  49 H49           -1.9792     8.4398     0.2901 H       
  50 H50           -2.7808     7.6167    -1.0693 H       
  51 H51            0.8376    -1.5339    -4.3346 H       
  52 H52            1.6260    -3.0704    -3.6871 H       
  53 H53           -0.6659    -4.0365    -3.1889 H       
  54 H54           -1.4543    -2.5000    -3.8365 H       
@<TRIPOS>BOND
   1    1    2 ar
   2    1    6 ar
   3    1   32 1
   4    2    3 ar
   5    2   33 1
   6    3    4 ar
   7    3   10 1
   8    4    5 ar
   9    4   34 1
  10    5    6 ar
  11    5    7 1
  12    6    9 1
  13    7    8 2
  14    7   35 1
  15    8    9 1
  16    8   36 1
  17    9   20 1
  18   10   11 2
  19   10   12 1
  20   11   16 1
  21   11   15 1
  22   12   13 2
  23   12   37 1
  24   13   14 1
  25   13   38 1
  26   14   15 1
  27   14   17 1
  28   15   19 2
  29   16   30 1
  30   16   31 1
  31   16   39 1
  32   17   18 2
  33   17   21 1
  34   18   19 1
  35   20   24 ar
  36   20   28 ar
  37   21   22 1
  38   21   23 1
  39   21   40 1
  40   22   23 1
  41   22   41 1
  42   22   42 1
  43   23   43 1
  44   23   44 1
  45   24   25 ar
  46   24   45 1
  47   25   26 ar
  48   26   27 ar
  49   26   29 1
  50   27   28 ar
  51   27   46 1
  52   28   47 1
  53   29   48 1
  54   29   49 1
  55   29   50 1
  56   30   31 1
  57   30   51 1
  58   30   52 1
  59   31   53 1
  60   31   54 1

#	End of record

