#	Name: ASD07300353
#	Creating user name:	WinNT
#	Creation time:	15. 06. 2019 21:09

#	Modifying user name:	WinNT
#	Modification time:	15. 06. 2019 21:09

#	Program:	/corina/corina34_cracker 3.40 0067  02.08.2006

@<TRIPOS>MOLECULE
ASD07300353
  42   44    0    0    0
SMALL
NO_CHARGES


@<TRIPOS>ATOM
   1 C1            -0.2819     1.4634    -0.5224 C.ar    
   2 C2            -0.0954     0.0847    -0.5444 C.ar    
   3 C3             1.0470    -0.4302    -1.1295 C.ar    
   4 C4             1.9685     0.4541    -1.6752 C.ar    
   5 C5             1.7195     1.8106    -1.6183 C.ar    
   6 N6             0.6205     2.2739    -1.0537 N.ar    
   7 N7            -1.4288     1.9946     0.0574 N.pl3   
   8 N8            -1.1059    -0.8186     0.0508 N.pl3   
   9 O9            -0.9934    -2.0249    -0.0743 O.2     
  10 O10           -2.0499    -0.3554     0.6656 O.2     
  11 C11            3.2277    -0.0622    -2.3224 C.3     
  12 C12           -1.5660     3.3810     0.1947 C.ar    
  13 C13           -2.8220     3.9669     0.1072 C.ar    
  14 C14           -2.9564     5.3346     0.2428 C.ar    
  15 C15           -1.8373     6.1232     0.4657 C.ar    
  16 C16           -0.5822     5.5389     0.5528 C.ar    
  17 C17           -0.4468     4.1706     0.4241 C.ar    
  18 O18           -1.9705     7.4701     0.5986 O.3     
  19 C19           -0.7761     8.2208     0.8265 C.3     
  20 C20           -1.1175     9.6836     0.9470 C.ar    
  21 C21           -1.4174    10.2238     2.1836 C.ar    
  22 C22           -1.7306    11.5657     2.2941 C.ar    
  23 C23           -1.7435    12.3674     1.1681 C.ar    
  24 C24           -1.4428    11.8274    -0.0684 C.ar    
  25 C25           -1.1254    10.4865    -0.1783 C.ar    
  26 H26            1.2189    -1.4960    -1.1610 H       
  27 H27            2.4336     2.5017    -2.0412 H       
  28 H28           -2.1337     1.4045     0.3668 H       
  29 H29            3.0455    -0.2383    -3.3825 H       
  30 H30            4.0233     0.6741    -2.2079 H       
  31 H31            3.5253    -0.9957    -1.8449 H       
  32 H32           -3.6934     3.3532    -0.0671 H       
  33 H33           -3.9331     5.7905     0.1748 H       
  34 H34            0.2886     6.1536     0.7261 H       
  35 H35            0.5298     3.7152     0.4970 H       
  36 H36           -0.3036     7.8808     1.7481 H       
  37 H37           -0.0906     8.0752    -0.0084 H       
  38 H38           -1.4073     9.5974     3.0633 H       
  39 H39           -1.9656    11.9876     3.2601 H       
  40 H40           -1.9890    13.4156     1.2543 H       
  41 H41           -1.4533    12.4537    -0.9482 H       
  42 H42           -0.8868    10.0654    -1.1438 H       
@<TRIPOS>BOND
   1    1    2 ar
   2    1    6 ar
   3    1    7 1
   4    2    3 ar
   5    2    8 1
   6    3    4 ar
   7    3   26 1
   8    4    5 ar
   9    4   11 1
  10    5    6 ar
  11    5   27 1
  12    7   12 1
  13    7   28 1
  14    8    9 2
  15    8   10 2
  16   11   29 1
  17   11   30 1
  18   11   31 1
  19   12   13 ar
  20   12   17 ar
  21   13   14 ar
  22   13   32 1
  23   14   15 ar
  24   14   33 1
  25   15   16 ar
  26   15   18 1
  27   16   17 ar
  28   16   34 1
  29   17   35 1
  30   18   19 1
  31   19   20 1
  32   19   36 1
  33   19   37 1
  34   20   21 ar
  35   20   25 ar
  36   21   22 ar
  37   21   38 1
  38   22   23 ar
  39   22   39 1
  40   23   24 ar
  41   23   40 1
  42   24   25 ar
  43   24   41 1
  44   25   42 1

#	End of record

