#	Name: ASD01916172
#	Creating user name:	WinNT
#	Creation time:	15. 06. 2019 20:06

#	Modifying user name:	WinNT
#	Modification time:	15. 06. 2019 20:06

#	Program:	/corina/corina34_cracker 3.40 0067  02.08.2006

@<TRIPOS>MOLECULE
ASD01916172
  47   50    0    0    0
SMALL
NO_CHARGES


@<TRIPOS>ATOM
   1 C1             1.8932     1.3286     2.6530 C.ar    
   2 C2             1.6658     0.0062     2.3245 C.ar    
   3 C3             2.7374    -0.8447     2.0959 C.ar    
   4 C4             4.0351    -0.3649     2.1979 C.ar    
   5 C5             4.2572     0.9583     2.5266 C.ar    
   6 C6             3.1875     1.8043     2.7540 C.ar    
   7 O7             2.5163    -2.1462     1.7731 O.3     
   8 C8             3.6669    -2.9642     1.5516 C.3     
   9 C9             3.2290    -4.3644     1.2072 C.2     
  10 C10            1.9045    -4.8108     1.1144 C.2     
  11 N11            4.0215    -5.3721     0.9374 N.2     
  12 N12            3.2284    -6.4921     0.6739 N.pl3   
  13 C13            1.9334    -6.1160     0.7850 C.2     
  14 C14            3.6835    -7.8442     0.3382 C.3     
  15 C15            2.5307    -8.6189    -0.3097 C.3     
  16 N16            1.3054    -8.4120     0.4771 N.am    
  17 C17            0.7619    -7.0425     0.5605 C.3     
  18 C18            0.6973    -9.4417     1.0987 C.2     
  19 C19           -0.4509    -9.1903     1.9936 C.ar    
  20 O20            1.0937   -10.5775     0.9230 O.2     
  21 C21           -1.4483    -8.2882     1.6171 C.ar    
  22 C22           -2.6040    -8.7191     3.6712 C.ar    
  23 C23           -1.6194    -9.6201     4.0473 C.ar    
  24 C24           -0.5457    -9.8581     3.2164 C.ar    
  25 C25           -2.5177    -8.0576     2.4556 C.ar    
  26 H26            0.0667    -6.9686     1.3968 H       
  27 F27           -3.6540    -8.4892     4.4895 F       
  28 C28            0.0501    -6.6830    -0.7452 C.3     
  29 F29           -0.9021    -7.6639    -1.0426 F       
  30 F30           -0.5847    -5.4443    -0.6045 F       
  31 F31            0.9862    -6.6122    -1.7825 F       
  32 H32            1.0593     1.9925     2.8266 H       
  33 H33            0.6546    -0.3650     2.2461 H       
  34 H34            4.8710    -1.0255     2.0207 H       
  35 H35            5.2673     1.3322     2.6064 H       
  36 H36            3.3632     2.8385     3.0109 H       
  37 H37            4.2516    -2.5535     0.7285 H       
  38 H38            4.2765    -2.9860     2.4549 H       
  39 H39            1.0188    -4.2148     1.2779 H       
  40 H40            4.5191    -7.7844    -0.3591 H       
  41 H41            4.0018    -8.3569     1.2459 H       
  42 H42            2.3757    -8.2580    -1.3265 H       
  43 H43            2.7736    -9.6812    -0.3327 H       
  44 H44           -1.3816    -7.7719     0.6709 H       
  45 H45           -1.6937   -10.1360     4.9932 H       
  46 H46            0.2206   -10.5601     3.5103 H       
  47 H47           -3.2896    -7.3602     2.1655 H       
@<TRIPOS>BOND
   1    1    2 ar
   2    1    6 ar
   3    1   32 1
   4    2    3 ar
   5    2   33 1
   6    3    4 ar
   7    3    7 1
   8    4    5 ar
   9    4   34 1
  10    5    6 ar
  11    5   35 1
  12    6   36 1
  13    7    8 1
  14    8    9 1
  15    8   37 1
  16    8   38 1
  17    9   10 1
  18    9   11 2
  19   10   13 2
  20   10   39 1
  21   11   12 1
  22   12   13 1
  23   12   14 1
  24   13   17 1
  25   14   15 1
  26   14   40 1
  27   14   41 1
  28   15   16 1
  29   15   42 1
  30   15   43 1
  31   16   17 1
  32   16   18 am
  33   17   26 1
  34   17   28 1
  35   18   19 1
  36   18   20 2
  37   19   21 ar
  38   19   24 ar
  39   21   25 ar
  40   21   44 1
  41   22   23 ar
  42   22   27 1
  43   22   25 ar
  44   23   24 ar
  45   23   45 1
  46   24   46 1
  47   25   47 1
  48   28   29 1
  49   28   30 1
  50   28   31 1

#	End of record

