#	Name: ASD03430290
#	Creating user name:	WinNT
#	Creation time:	15. 06. 2019 20:40

#	Modifying user name:	WinNT
#	Modification time:	15. 06. 2019 20:40

#	Program:	/corina/corina34_cracker 3.40 0067  02.08.2006

@<TRIPOS>MOLECULE
ASD03430290
  45   48    0    0    0
SMALL
NO_CHARGES


@<TRIPOS>ATOM
   1 C1            -0.0167     1.3778     0.0096 C.ar    
   2 C2             0.0021    -0.0041     0.0020 C.ar    
   3 C3             1.2028    -0.6810    -0.0137 C.ar    
   4 C4             2.4095     0.0139    -0.0123 C.ar    
   5 C5             2.3857     1.4048    -0.0086 C.ar    
   6 C6             1.1789     2.0826     0.0020 C.ar    
   7 O7             3.4713    -0.8402    -0.0026 O.3     
   8 C8             1.5520    -2.1448    -0.0468 C.3     
   9 C9             3.0367    -2.1438    -0.4356 C.3     
  10 C10            0.4281    -3.8546     1.0182 C.ar    
  11 C11            1.3204    -2.8166     1.2744 C.ar    
  12 C12            0.7153    -2.9073    -1.0333 C.2     
  13 N13            0.0938    -3.8808    -0.3379 N.am    
  14 O14            0.6178    -2.6901    -2.2225 O.2     
  15 C15            1.7935    -2.5973     2.5488 C.ar    
  16 C16            1.3824    -3.4104     3.5899 C.ar    
  17 C17            0.4954    -4.4436     3.3474 C.ar    
  18 C18            0.0192    -4.6677     2.0725 C.ar    
  19 C19           -0.8252    -4.8529    -0.9350 C.3     
  20 O20            1.1647     3.4415     0.0045 O.3     
  21 C21           -2.2518    -4.3022    -0.8872 C.3     
  22 C22           -3.2116    -5.3175    -1.5107 C.3     
  23 C23           -4.6509    -4.8234    -1.3513 C.3     
  24 C24           -2.8892    -5.4776    -2.9977 C.3     
  25 H25           -0.9580     1.9072     0.0170 H       
  26 H26           -0.9267    -0.5552     0.0087 H       
  27 H27            3.3130     1.9584    -0.0137 H       
  28 H28            3.1546    -2.2528    -1.5138 H       
  29 H29            3.5765    -2.9279     0.0952 H       
  30 H30            2.4863    -1.7902     2.7357 H       
  31 H31            1.7535    -3.2390     4.5895 H       
  32 H32            0.1744    -5.0782     4.1602 H       
  33 H33           -0.6734    -5.4763     1.8911 H       
  34 H34           -0.5400    -5.0336    -1.9714 H       
  35 H35           -0.7778    -5.7880    -0.3768 H       
  36 H36            1.1672     3.8332     0.8886 H       
  37 H37           -2.5370    -4.1216     0.1492 H       
  38 H38           -2.2992    -3.3671    -1.4453 H       
  39 H39           -3.0998    -6.2788    -1.0091 H       
  40 H40           -4.7627    -3.8622    -1.8528 H       
  41 H41           -5.3347    -5.5468    -1.7955 H       
  42 H42           -4.8806    -4.7094    -0.2919 H       
  43 H43           -1.8639    -5.8296    -3.1113 H       
  44 H44           -3.5730    -6.2010    -3.4420 H       
  45 H45           -3.0010    -4.5164    -3.4993 H       
@<TRIPOS>BOND
   1    1    2 ar
   2    1    6 ar
   3    1   25 1
   4    2    3 ar
   5    2   26 1
   6    3    4 ar
   7    3    8 1
   8    4    5 ar
   9    4    7 1
  10    5    6 ar
  11    5   27 1
  12    6   20 1
  13    7    9 1
  14    8    9 1
  15    8   11 1
  16    8   12 1
  17    9   28 1
  18    9   29 1
  19   10   11 ar
  20   10   13 1
  21   10   18 ar
  22   11   15 ar
  23   12   13 am
  24   12   14 2
  25   13   19 1
  26   15   16 ar
  27   15   30 1
  28   16   17 ar
  29   16   31 1
  30   17   18 ar
  31   17   32 1
  32   18   33 1
  33   19   21 1
  34   19   34 1
  35   19   35 1
  36   20   36 1
  37   21   22 1
  38   21   37 1
  39   21   38 1
  40   22   23 1
  41   22   24 1
  42   22   39 1
  43   23   40 1
  44   23   41 1
  45   23   42 1
  46   24   43 1
  47   24   44 1
  48   24   45 1

#	End of record

