#	Name: ASD08170264
#	Creating user name:	WinNT
#	Creation time:	15. 06. 2019 21:17

#	Modifying user name:	WinNT
#	Modification time:	15. 06. 2019 21:17

#	Program:	/corina/corina34_cracker 3.40 0067  02.08.2006

@<TRIPOS>MOLECULE
ASD08170264
  45   46    0    0    0
SMALL
NO_CHARGES


@<TRIPOS>ATOM
   1 N1            -0.0167     1.3828     0.0096 N.pl3   
   2 C2             0.0021    -0.0041     0.0020 C.2     
   3 S3             1.4409    -1.0262    -0.0172 S.3     
   4 C4             0.3908    -2.4446    -0.0137 C.2     
   5 C5             0.8419    -3.8825    -0.0244 C.3     
   6 C6             0.9810    -4.3626    -1.4704 C.3     
   7 N7             1.4195    -5.7604    -1.4808 N.am    
   8 C8             0.4283    -6.8392    -1.4763 C.3     
   9 C9             0.0697    -7.2082    -2.9172 C.3     
  10 C10           -0.9499    -8.3179    -2.9125 C.2     
  11 S11           -0.6025   -10.0482    -2.9236 S.3     
  12 C12           -2.3393   -10.3617    -2.9075 C.2     
  13 N13           -2.9460   -11.6090    -2.9061 N.pl3   
  14 N14           -1.0387    -0.7870     0.0135 N.2     
  15 N15           -0.8345    -2.0313     0.0005 N.2     
  16 N16           -2.2346    -8.1713    -2.8941 N.2     
  17 N17           -2.9486    -9.2107    -2.8963 N.2     
  18 C18            2.7349    -6.0539    -1.4945 C.2     
  19 O19            3.1379    -7.3385    -1.5041 O.3     
  20 O20            3.5570    -5.1592    -1.4982 O.2     
  21 C21            4.5696    -7.5801    -1.5186 C.3     
  22 C22            5.2043    -6.9593    -0.2725 C.3     
  23 C23            4.8324    -9.0873    -1.5279 C.3     
  24 C24            5.1808    -6.9481    -2.7709 C.3     
  25 H25            0.8166     1.8792     0.0044 H       
  26 H26           -0.8633     1.8563     0.0162 H       
  27 H27            1.8046    -3.9650     0.4801 H       
  28 H28            0.1064    -4.4979     0.4937 H       
  29 H29            0.0183    -4.2801    -1.9748 H       
  30 H30            1.7165    -3.7472    -1.9884 H       
  31 H31            0.8426    -7.7111    -0.9703 H       
  32 H32           -0.4679    -6.5069    -0.9525 H       
  33 H33           -0.3446    -6.3362    -3.4232 H       
  34 H34            0.9660    -7.5405    -3.4409 H       
  35 H35           -2.4027   -12.4126    -2.9145 H       
  36 H36           -3.9135   -11.6778    -2.8968 H       
  37 H37            4.7689    -7.4095     0.6196 H       
  38 H38            6.2790    -7.1407    -0.2835 H       
  39 H39            5.0171    -5.8856    -0.2659 H       
  40 H40            4.3803    -9.5295    -2.4156 H       
  41 H41            5.9072    -9.2687    -1.5388 H       
  42 H42            4.3971    -9.5375    -0.6358 H       
  43 H43            4.9935    -5.8744    -2.7643 H       
  44 H44            6.2555    -7.1295    -2.7818 H       
  45 H45            4.7286    -7.3904    -3.6586 H       
@<TRIPOS>BOND
   1    1    2 1
   2    1   25 1
   3    1   26 1
   4    2    3 1
   5    2   14 2
   6    3    4 1
   7    4    5 1
   8    4   15 2
   9    5    6 1
  10    5   27 1
  11    5   28 1
  12    6    7 1
  13    6   29 1
  14    6   30 1
  15    7    8 1
  16    7   18 am
  17    8    9 1
  18    8   31 1
  19    8   32 1
  20    9   10 1
  21    9   33 1
  22    9   34 1
  23   10   11 1
  24   10   16 2
  25   11   12 1
  26   12   13 1
  27   12   17 2
  28   13   35 1
  29   13   36 1
  30   14   15 1
  31   16   17 1
  32   18   19 1
  33   18   20 2
  34   19   21 1
  35   21   22 1
  36   21   23 1
  37   21   24 1
  38   22   37 1
  39   22   38 1
  40   22   39 1
  41   23   40 1
  42   23   41 1
  43   23   42 1
  44   24   43 1
  45   24   44 1
  46   24   45 1

#	End of record

