#	Name: ASD05720152
#	Creating user name:	WinNT
#	Creation time:	15. 06. 2019 21:01

#	Modifying user name:	WinNT
#	Modification time:	15. 06. 2019 21:01

#	Program:	/corina/corina34_cracker 3.40 0067  02.08.2006

@<TRIPOS>MOLECULE
ASD05720152
  63   69    0    0    0
SMALL
NO_CHARGES


@<TRIPOS>ATOM
   1 O1             0.0602     1.1101    -0.1832 O.3     
   2 C2             0.0996    -0.2245    -0.1028 C.2     
   3 N3             1.3401    -0.7272    -0.0386 N.am    
   4 C4             2.3058     0.3817    -0.0778 C.3     
   5 C5             1.4184     1.6375    -0.1770 C.3     
   6 O6            -0.8981    -0.9176    -0.0889 O.2     
   7 C7             3.1277     0.4127     1.1849 C.ar    
   8 C8             4.3587     1.0567     1.1978 C.ar    
   9 C9             5.1131     1.0828     2.3636 C.ar    
  10 C10            4.6376     0.4690     3.5060 C.ar    
  11 C11            3.4121    -0.1710     3.4897 C.ar    
  12 C12            2.6558    -0.1940     2.3320 C.ar    
  13 N13            4.8368     1.6760     0.0407 N.3     
  14 C14            6.0553     1.0141    -0.4459 C.3     
  15 C15            6.5010     1.6701    -1.7549 C.3     
  16 N16            6.7387     3.1022    -1.5259 N.3     
  17 C17            5.5202     3.7641    -1.0393 C.3     
  18 C18            5.0745     3.1080     0.2697 C.3     
  19 C19            3.2527    -3.7424     0.1957 C.2     
  20 N20            2.9259    -2.4493     0.1087 N.2     
  21 C21            1.6616    -2.0752     0.0511 C.2     
  22 C22            0.6372    -3.0433     0.0810 C.2     
  23 C23            0.9644    -4.3526     0.1690 C.2     
  24 N24            2.2830    -4.7092     0.2271 N.pl3   
  25 N25            2.9178    -5.9530     0.3192 N.2     
  26 C26            4.2158    -5.7755     0.3442 C.2     
  27 C27            4.4861    -4.4040     0.2641 C.2     
  28 C28            5.8241    -3.7713     0.2550 C.ar    
  29 C29            6.7662    -4.1167     1.2253 C.ar    
  30 C30            8.0127    -3.5266     1.2160 C.ar    
  31 C31            8.3310    -2.5837     0.2354 C.ar    
  32 C32            7.3888    -2.2397    -0.7332 C.ar    
  33 C33            6.1460    -2.8332    -0.7275 C.ar    
  34 N34           11.4054    -0.7248    -0.2839 N.pl3   
  35 N35           10.0874    -1.0512    -0.6424 N.2     
  36 C36            9.6708    -1.9483     0.2249 C.2     
  37 N37           10.6582    -2.1928     1.0975 N.2     
  38 C38           11.7014    -1.4639     0.8002 C.2     
  39 F39            8.9252    -3.8597     2.1549 F       
  40 H40            2.9498     0.2978    -0.9531 H       
  41 H41            1.6228     2.1778    -1.1013 H       
  42 H42            1.5733     2.2840     0.6868 H       
  43 H43            6.0706     1.5823     2.3769 H       
  44 H44            5.2238     0.4887     4.4128 H       
  45 H45            3.0426    -0.6502     4.3843 H       
  46 H46            1.6969    -0.6910     2.3239 H       
  47 H47            6.8453     1.1139     0.2984 H       
  48 H48            5.8505    -0.0423    -0.6199 H       
  49 H49            7.4208     1.1999    -2.1025 H       
  50 H50            5.7221     1.5465    -2.5073 H       
  51 H51            7.5067     3.2436    -0.8871 H       
  52 H52            5.7250     4.8205    -0.8653 H       
  53 H53            4.7301     3.6643    -1.7836 H       
  54 H54            4.1546     3.5783     0.6174 H       
  55 H55            5.8534     3.2316     1.0221 H       
  56 H56           -0.3989    -2.7422     0.0344 H       
  57 H57            0.1927    -5.1078     0.1934 H       
  58 H58            4.9560    -6.5590     0.4122 H       
  59 H59            6.5190    -4.8454     1.9831 H       
  60 H60            7.6353    -1.5108    -1.4911 H       
  61 H61            5.4185    -2.5693    -1.4808 H       
  62 H62           11.9892    -0.0932    -0.7325 H       
  63 H63           12.6405    -1.4564     1.3336 H       
@<TRIPOS>BOND
   1    1    2 1
   2    1    5 1
   3    2    3 am
   4    2    6 2
   5    3    4 1
   6    3   21 1
   7    4    5 1
   8    4    7 1
   9    4   40 1
  10    5   41 1
  11    5   42 1
  12    7    8 ar
  13    7   12 ar
  14    8    9 ar
  15    8   13 1
  16    9   10 ar
  17    9   43 1
  18   10   11 ar
  19   10   44 1
  20   11   12 ar
  21   11   45 1
  22   12   46 1
  23   13   14 1
  24   13   18 1
  25   14   15 1
  26   14   47 1
  27   14   48 1
  28   15   16 1
  29   15   49 1
  30   15   50 1
  31   16   17 1
  32   16   51 1
  33   17   18 1
  34   17   52 1
  35   17   53 1
  36   18   54 1
  37   18   55 1
  38   19   20 1
  39   19   24 1
  40   19   27 2
  41   20   21 2
  42   21   22 1
  43   22   23 2
  44   22   56 1
  45   23   24 1
  46   23   57 1
  47   24   25 1
  48   25   26 2
  49   26   27 1
  50   26   58 1
  51   27   28 1
  52   28   29 ar
  53   28   33 ar
  54   29   30 ar
  55   29   59 1
  56   30   31 ar
  57   30   39 1
  58   31   32 ar
  59   31   36 1
  60   32   33 ar
  61   32   60 1
  62   33   61 1
  63   34   35 1
  64   34   38 1
  65   34   62 1
  66   35   36 2
  67   36   37 1
  68   37   38 2
  69   38   63 1

#	End of record

