#	Name: ASD01911150
#	Creating user name:	WinNT
#	Creation time:	15. 06. 2019 19:57

#	Modifying user name:	WinNT
#	Modification time:	15. 06. 2019 19:57

#	Program:	/corina/corina34_cracker 3.40 0067  02.08.2006

@<TRIPOS>MOLECULE
ASD01911150
  40   43    0    0    0
SMALL
NO_CHARGES


@<TRIPOS>ATOM
   1 C1            -0.0167     1.3769     0.0096 C.ar    
   2 C2             0.0021    -0.0041     0.0020 C.ar    
   3 C3             1.2148    -0.6805    -0.0132 C.ar    
   4 C4             2.4052     0.0345    -0.0207 C.ar    
   5 C5             2.3798     1.4153    -0.0130 C.ar    
   6 C6             1.1705     2.0860     0.0021 C.ar    
   7 N7             1.2372    -2.0811    -0.0204 N.pl3   
   8 N8             0.3284    -2.9225     0.6337 N.2     
   9 C9             0.6733    -4.1704     0.3942 C.2     
  10 C10            1.8185    -4.1609    -0.4242 C.2     
  11 C11            2.1431    -2.8641    -0.6698 C.2     
  12 C12           -0.0245    -5.3784     0.9001 C.ar    
  13 C13           -1.1536    -5.2475     1.7062 C.ar    
  14 C14           -1.7986    -6.3744     2.1740 C.ar    
  15 C15           -1.3260    -7.6319     1.8445 C.ar    
  16 C16           -0.2053    -7.7677     1.0451 C.ar    
  17 C17            0.4436    -6.6476     0.5662 C.ar    
  18 N18            3.2138    -2.4163    -1.4404 N.am    
  19 C19            4.0425    -3.3050    -2.0236 C.2     
  20 C20            5.1750    -2.8314    -2.8387 C.2     
  21 O21            3.8555    -4.4978    -1.8770 O.2     
  22 N22            6.0852    -3.6232    -3.4813 N.pl3   
  23 C23            6.9571    -2.7942    -4.1148 C.2     
  24 C24            6.5642    -1.5245    -3.8480 C.2     
  25 N25            5.4801    -1.5736    -3.0775 N.2     
  26 H26           -0.9595     1.9036     0.0169 H       
  27 H27           -0.9254    -0.5573     0.0082 H       
  28 H28            3.3499    -0.4887    -0.0321 H       
  29 H29            3.3053     1.9720    -0.0188 H       
  30 H30            1.1533     3.1658     0.0084 H       
  31 H31            2.3434    -5.0293    -0.7941 H       
  32 H32           -1.5230    -4.2661     1.9646 H       
  33 H33           -2.6738    -6.2742     2.7988 H       
  34 H34           -1.8336    -8.5111     2.2131 H       
  35 H35            0.1596    -8.7519     0.7912 H       
  36 H36            1.3183    -6.7547    -0.0581 H       
  37 H37            3.3630    -1.4650    -1.5573 H       
  38 H38            6.1055    -4.5930    -3.4844 H       
  39 H39            7.8032    -3.0913    -4.7167 H       
  40 H40            7.0465    -0.6260    -4.2036 H       
@<TRIPOS>BOND
   1    1    2 ar
   2    1    6 ar
   3    1   26 1
   4    2    3 ar
   5    2   27 1
   6    3    4 ar
   7    3    7 1
   8    4    5 ar
   9    4   28 1
  10    5    6 ar
  11    5   29 1
  12    6   30 1
  13    7    8 1
  14    7   11 1
  15    8    9 2
  16    9   10 1
  17    9   12 1
  18   10   11 2
  19   10   31 1
  20   11   18 1
  21   12   13 ar
  22   12   17 ar
  23   13   14 ar
  24   13   32 1
  25   14   15 ar
  26   14   33 1
  27   15   16 ar
  28   15   34 1
  29   16   17 ar
  30   16   35 1
  31   17   36 1
  32   18   19 am
  33   18   37 1
  34   19   20 1
  35   19   21 2
  36   20   22 1
  37   20   25 2
  38   22   23 1
  39   22   38 1
  40   23   24 2
  41   23   39 1
  42   24   25 1
  43   24   40 1

#	End of record

