#	Name: ASD01901568
#	Creating user name:	WinNT
#	Creation time:	15. 06. 2019 19:54

#	Modifying user name:	WinNT
#	Modification time:	15. 06. 2019 19:54

#	Program:	/corina/corina34_cracker 3.40 0067  02.08.2006

@<TRIPOS>MOLECULE
ASD01901568
  42   46    0    0    0
SMALL
NO_CHARGES


@<TRIPOS>ATOM
   1 C1             1.1803     1.7670     0.3268 C.3     
   2 C2             1.0005     0.2765     0.1956 C.2     
   3 N3             1.0807    -0.4119    -0.9072 N.2     
   4 N4             0.8579    -1.7674    -0.6448 N.pl3   
   5 C5             0.8707    -2.8398    -1.6428 C.3     
   6 C6             2.2880    -3.4021    -1.7691 C.3     
   7 C7             2.5056    -4.8644    -1.3752 C.3     
   8 C8             2.5359    -4.4567    -2.8496 C.3     
   9 C9             0.6258    -1.9318     0.6980 C.ar    
  10 C10            0.3523    -3.0381     1.4981 C.ar    
  11 C11            0.1631    -2.8817     2.8410 C.ar    
  12 C12            0.2398    -1.6190     3.4300 C.ar    
  13 N13            0.0426    -1.4806     4.8085 N.pl3   
  14 C14           -0.4840    -0.2921     5.3236 C.2     
  15 N15           -0.9275     0.7200     4.6263 N.2     
  16 N16           -1.3772     1.7309     5.4819 N.pl3   
  17 H17           -1.7512     2.5806     5.2009 H       
  18 C18           -1.2055     1.3292     6.7803 C.ar    
  19 C19           -1.4696     1.9157     8.0175 C.ar    
  20 C20           -1.1596     1.2020     9.1584 C.ar    
  21 C21           -0.6004    -0.0643     9.0457 C.ar    
  22 N22           -0.3575    -0.6024     7.8722 N.ar    
  23 C23           -0.6431     0.0390     6.7416 C.ar    
  24 C24            0.5097    -0.5053     2.6591 C.ar    
  25 C25            0.7117    -0.6536     1.2825 C.ar    
  26 H26            2.2310     1.9914     0.5106 H       
  27 H27            0.8605     2.2541    -0.5944 H       
  28 H28            0.5795     2.1336     1.1591 H       
  29 H29            0.1913    -3.6335    -1.3320 H       
  30 H30            0.5498    -2.4435    -2.6062 H       
  31 H31            3.0934    -2.6985    -1.5583 H       
  32 H32            3.4543    -5.1231    -0.9050 H       
  33 H33            1.6390    -5.4259    -1.0260 H       
  34 H34            1.6893    -4.7499    -3.4704 H       
  35 H35            3.5046    -4.4471    -3.3493 H       
  36 H36            0.2893    -4.0212     1.0556 H       
  37 H37           -0.0486    -3.7450     3.4544 H       
  38 H38            0.2713    -2.2092     5.4067 H       
  39 H39           -1.9047     2.9021     8.0818 H       
  40 H40           -1.3506     1.6264    10.1330 H       
  41 H41           -0.3600    -0.6178     9.9413 H       
  42 H42            0.5685     0.4717     3.1158 H       
@<TRIPOS>BOND
   1    1    2 1
   2    1   26 1
   3    1   27 1
   4    1   28 1
   5    2   25 1
   6    2    3 2
   7    3    4 1
   8    4    5 1
   9    4    9 1
  10    5    6 1
  11    5   29 1
  12    5   30 1
  13    6    8 1
  14    6    7 1
  15    6   31 1
  16    7    8 1
  17    7   32 1
  18    7   33 1
  19    8   34 1
  20    8   35 1
  21    9   25 ar
  22    9   10 ar
  23   10   11 ar
  24   10   36 1
  25   11   12 ar
  26   11   37 1
  27   12   13 1
  28   12   24 ar
  29   13   14 1
  30   13   38 1
  31   14   23 1
  32   14   15 2
  33   15   16 1
  34   16   17 1
  35   16   18 1
  36   18   23 ar
  37   18   19 ar
  38   19   20 ar
  39   19   39 1
  40   20   21 ar
  41   20   40 1
  42   21   22 ar
  43   21   41 1
  44   22   23 ar
  45   24   25 ar
  46   24   42 1

#	End of record

