#	Name: ASD03731589
#	Creating user name:	WinNT
#	Creation time:	15. 06. 2019 20:46

#	Modifying user name:	WinNT
#	Modification time:	15. 06. 2019 20:46

#	Program:	/corina/corina34_cracker 3.40 0067  02.08.2006

@<TRIPOS>MOLECULE
ASD03731589
  44   46    0    0    0
SMALL
NO_CHARGES


@<TRIPOS>ATOM
   1 C1             0.1071     1.3951     0.9053 C.2     
   2 C2             0.0942    -0.0606     0.6614 C.ar    
   3 C3            -0.1050    -0.5524    -0.6313 C.ar    
   4 C4            -0.1165    -1.9111    -0.8549 C.ar    
   5 C5             0.0699    -2.7931     0.2034 C.ar    
   6 C6             0.2681    -2.3076     1.4910 C.ar    
   7 C7             0.2870    -0.9502     1.7216 C.ar    
   8 O8            -0.0558     2.1679    -0.0191 O.2     
   9 N9             0.2939     1.8675     2.1537 N.am    
  10 O10            0.0581    -4.1313    -0.0208 O.3     
  11 C11           -1.1264    -4.7860     0.0914 C.ar    
  12 C12           -1.1709    -6.1801    -0.0161 C.ar    
  13 C13           -2.3907    -6.8425     0.1010 C.ar    
  14 C14           -3.5471    -6.1222     0.3220 C.ar    
  15 C15           -3.5000    -4.7433     0.4279 C.ar    
  16 C16           -2.2948    -4.0761     0.3186 C.ar    
  17 C17           -4.8661    -6.8401     0.4479 C.3     
  18 F18           -5.0919    -7.1689     1.7888 F       
  19 F19           -5.8949    -6.0089    -0.0080 F       
  20 F20           -4.8360    -8.0090    -0.3202 F       
  21 C21            0.9578    -6.5953    -1.2779 C.ar    
  22 C22            0.0744    -6.9490    -0.2540 C.ar    
  23 C23            0.4060    -8.0540     0.5398 C.ar    
  24 C24            1.5846    -8.7214     0.2579 C.ar    
  25 N25            2.3545    -8.3103    -0.7325 N.ar    
  26 N26            2.0565    -7.2989    -1.4632 N.ar    
  27 S27            0.3084     3.5007     2.4274 S.o2    
  28 O28            0.5503     3.6201     3.8225 O.2     
  29 O29            1.2356     4.0071     1.4771 O.2     
  30 C30           -1.3755     4.0421     2.0247 C.3     
  31 H31           -0.2503     0.1321    -1.4539 H       
  32 H32           -0.2708    -2.2920    -1.8536 H       
  33 H33            0.4118    -2.9959     2.3107 H       
  34 H34            0.4458    -0.5737     2.7213 H       
  35 H35            0.4199     1.2509     2.8918 H       
  36 H36           -2.4315    -7.9186     0.0186 H       
  37 H37           -4.4090    -4.1862     0.6008 H       
  38 H38           -2.2638    -3.0002     0.4066 H       
  39 H39            0.7388    -5.7525    -1.9168 H       
  40 H40           -0.2372    -8.3746     1.3460 H       
  41 H41            1.8749    -9.5781     0.8480 H       
  42 H42           -2.0868     3.5275     2.6707 H       
  43 H43           -1.4577     5.1181     2.1782 H       
  44 H44           -1.5937     3.8059     0.9832 H       
@<TRIPOS>BOND
   1    1    2 1
   2    1    8 2
   3    1    9 am
   4    2    3 ar
   5    2    7 ar
   6    3    4 ar
   7    3   31 1
   8    4    5 ar
   9    4   32 1
  10    5    6 ar
  11    5   10 1
  12    6    7 ar
  13    6   33 1
  14    7   34 1
  15    9   27 am
  16    9   35 1
  17   10   11 1
  18   11   12 ar
  19   11   16 ar
  20   12   13 ar
  21   12   22 1
  22   13   14 ar
  23   13   36 1
  24   14   15 ar
  25   14   17 1
  26   15   16 ar
  27   15   37 1
  28   16   38 1
  29   17   18 1
  30   17   19 1
  31   17   20 1
  32   21   22 ar
  33   21   26 ar
  34   21   39 1
  35   22   23 ar
  36   23   24 ar
  37   23   40 1
  38   24   25 ar
  39   24   41 1
  40   25   26 ar
  41   27   28 2
  42   27   29 2
  43   27   30 1
  44   30   42 1
  45   30   43 1
  46   30   44 1

#	End of record

