#	Name: ASD01410539
#	Creating user name:	WinNT
#	Creation time:	15. 06. 2019 19:18

#	Modifying user name:	WinNT
#	Modification time:	15. 06. 2019 19:18

#	Program:	/corina/corina34_cracker 3.40 0067  02.08.2006

@<TRIPOS>MOLECULE
ASD01410539
  80   83    0    0    0
SMALL
NO_CHARGES


@<TRIPOS>ATOM
   1 C1             3.9204     7.2490    -1.2776 C.ar    
   2 C2             4.8702     7.0680    -2.2811 C.ar    
   3 C3             5.7078     5.9634    -2.2273 C.ar    
   4 N4             5.6113     5.0916    -1.2419 N.ar    
   5 C5             4.7218     5.2323    -0.2735 C.ar    
   6 C6             3.8501     6.3133    -0.2607 C.ar    
   7 O7             4.6599     4.3090     0.7198 O.3     
   8 C8             5.4567     3.2111     0.6216 C.ar    
   9 C9             6.7915     3.2850     1.0118 C.ar    
  10 C10            7.6093     2.1742     0.9157 C.ar    
  11 C11            7.1035     0.9777     0.4295 C.ar    
  12 C12            5.7586     0.8976     0.0353 C.ar    
  13 C13            4.9380     2.0247     0.1406 C.ar    
  14 F14            7.2899     4.4476     1.4861 F       
  15 N15            7.9284    -0.1419     0.3323 N.am    
  16 C16            7.9564    -1.0471     1.3305 C.2     
  17 C17            8.7649    -0.3346    -0.8549 C.3     
  18 O18            8.6062    -2.0639     1.2090 O.2     
  19 C19            7.1801    -0.7958     2.5975 C.3     
  20 N20            4.9775     7.9886    -3.3300 N.3     
  21 C21            7.8726    -1.4975     3.7675 C.3     
  22 C22            7.0845    -1.2424     5.0539 C.3     
  23 C23            5.6643    -1.7900     4.8990 C.3     
  24 C24            4.9718    -1.0883     3.7290 C.3     
  25 C25            5.7599    -1.3434     2.4426 C.3     
  26 C26            4.8762    -1.5349     6.1854 C.3     
  27 C27            8.4085     0.7183    -1.9062 C.3     
  28 O28            7.0835     0.4826    -2.3865 O.3     
  29 C29            6.6500     1.4157    -3.3781 C.3     
  30 C30           10.2385    -0.1918    -0.4691 C.3     
  31 O31           10.6100    -1.2650     0.3982 O.3     
  32 C32           11.9748    -1.2256     0.8200 C.3     
  33 C33            5.3570     9.3253    -2.8251 C.3     
  34 C34            3.7026     8.1074    -4.0611 C.3     
  35 C35            3.2912     9.5943    -4.0239 C.3     
  36 C36            4.6363    10.3228    -3.7659 C.3     
  37 F37            4.4271    11.5507    -3.1289 F       
  38 F38            5.3503    10.4935    -4.9568 F       
  39 C39            2.8401     6.4655     0.8474 C.3     
  40 F40            2.0864     7.6249     0.6353 F       
  41 F41            1.9913     5.3535     0.8606 F       
  42 F42            3.5049     6.5594     2.0747 F       
  43 C43            5.2134    -0.3688    -0.4819 C.2     
  44 O44            5.9036    -1.3690    -0.4906 O.2     
  45 O45            3.9489    -0.4186    -0.9456 O.3     
  46 H46            3.2578     8.1018    -1.2910 H       
  47 H47            6.4468     5.8154    -3.0008 H       
  48 H48            8.6437     2.2385     1.2193 H       
  49 H49            3.9023     1.9698    -0.1607 H       
  50 H50            8.5912    -1.3299    -1.2641 H       
  51 H51            7.1371     0.2761     2.7907 H       
  52 H52            7.9156    -2.5694     3.5743 H       
  53 H53            8.8844    -1.1074     3.8778 H       
  54 H54            7.5778    -1.7423     5.8874 H       
  55 H55            7.0415    -0.1705     5.2471 H       
  56 H56            5.7073    -2.8619     4.7058 H       
  57 H57            3.9601    -1.4785     3.6187 H       
  58 H58            4.9288    -0.0164     3.9222 H       
  59 H59            5.2666    -0.8435     1.6091 H       
  60 H60            5.8029    -2.4153     2.2494 H       
  61 H61            4.8332    -0.4630     6.3786 H       
  62 H62            3.8644    -1.9251     6.0750 H       
  63 H63            5.3695    -2.0348     7.0189 H       
  64 H64            8.4616     1.7109    -1.4588 H       
  65 H65            9.1123     0.6558    -2.7362 H       
  66 H66            6.6666     2.4228    -2.9613 H       
  67 H67            7.3173     1.3676    -4.2386 H       
  68 H68            5.6355     1.1686    -3.6908 H       
  69 H69           10.8540    -0.2216    -1.3682 H       
  70 H70           10.3895     0.7583     0.0432 H       
  71 H71           12.6263    -1.2769    -0.0524 H       
  72 H72           12.1618    -0.2969     1.3591 H       
  73 H73           12.1772    -2.0731     1.4750 H       
  74 H74            5.0128     9.4551    -1.7990 H       
  75 H75            6.4369     9.4606    -2.8840 H       
  76 H76            3.8360     7.7853    -5.0939 H       
  77 H77            2.9390     7.4991    -3.5764 H       
  78 H78            2.8643     9.9000    -4.9791 H       
  79 H79            2.5901     9.7799    -3.2102 H       
  80 H80            3.6354    -1.2720    -1.2749 H       
@<TRIPOS>BOND
   1    1    2 ar
   2    1    6 ar
   3    1   46 1
   4    2    3 ar
   5    2   20 1
   6    3    4 ar
   7    3   47 1
   8    4    5 ar
   9    5    6 ar
  10    5    7 1
  11    6   39 1
  12    7    8 1
  13    8    9 ar
  14    8   13 ar
  15    9   10 ar
  16    9   14 1
  17   10   11 ar
  18   10   48 1
  19   11   12 ar
  20   11   15 1
  21   12   13 ar
  22   12   43 1
  23   13   49 1
  24   15   16 am
  25   15   17 1
  26   16   18 2
  27   16   19 1
  28   17   27 1
  29   17   30 1
  30   17   50 1
  31   19   21 1
  32   19   25 1
  33   19   51 1
  34   20   34 1
  35   20   33 1
  36   21   22 1
  37   21   52 1
  38   21   53 1
  39   22   23 1
  40   22   54 1
  41   22   55 1
  42   23   24 1
  43   23   26 1
  44   23   56 1
  45   24   25 1
  46   24   57 1
  47   24   58 1
  48   25   59 1
  49   25   60 1
  50   26   61 1
  51   26   62 1
  52   26   63 1
  53   27   28 1
  54   27   64 1
  55   27   65 1
  56   28   29 1
  57   29   66 1
  58   29   67 1
  59   29   68 1
  60   30   31 1
  61   30   69 1
  62   30   70 1
  63   31   32 1
  64   32   71 1
  65   32   72 1
  66   32   73 1
  67   33   36 1
  68   33   74 1
  69   33   75 1
  70   34   35 1
  71   34   76 1
  72   34   77 1
  73   35   36 1
  74   35   78 1
  75   35   79 1
  76   36   37 1
  77   36   38 1
  78   39   40 1
  79   39   41 1
  80   39   42 1
  81   43   44 2
  82   43   45 1
  83   45   80 1

#	End of record

