#	Name: ASD07930345
#	Creating user name:	WinNT
#	Creation time:	15. 06. 2019 21:12

#	Modifying user name:	WinNT
#	Modification time:	15. 06. 2019 21:12

#	Program:	/corina/corina34_cracker 3.40 0067  02.08.2006

@<TRIPOS>MOLECULE
ASD07930345
  47   48    0    0    0
SMALL
NO_CHARGES


@<TRIPOS>ATOM
   1 N1            -0.0058     1.4467     0.2170 N.pl3   
   2 C2             0.0021    -0.0041     0.0020 C.3     
   3 C3             0.8305    -0.6733     1.1080 C.3     
   4 S4             2.4898     0.0763     1.1075 S.o2    
   5 N5             2.1538     1.7084     1.1104 N.am    
   6 C6             1.1734     2.1401     0.2464 C.2     
   7 C7            -1.4106    -0.5271     0.0446 C.ar    
   8 C8            -2.1700    -0.3778     1.1930 C.ar    
   9 C9             2.8667     2.6381     1.9899 C.3     
  10 O10            3.1484    -0.1555     2.3451 O.2     
  11 O11            3.1459    -0.1516    -0.1322 O.2     
  12 C12            0.6230    -0.3156    -1.3612 C.3     
  13 C13           -1.9504    -1.1505    -1.0640 C.ar    
  14 C14           -3.2474    -1.6303    -1.0252 C.ar    
  15 C15           -4.0047    -1.4862     0.1231 C.ar    
  16 C16           -3.4678    -0.8581     1.2311 C.ar    
  17 Br17          -3.9855    -2.4828    -2.5432 Br      
  18 F18           -1.6445     0.2358     2.2757 F       
  19 N19            1.3652     3.1940    -0.5320 N.2     
  20 O20            0.5930     4.6700    -2.1580 O.3     
  21 C21           -0.4825     5.0428    -3.0219 C.3     
  22 C22           -1.7198     5.3705    -2.1838 C.3     
  23 C23           -0.0786     6.2726    -3.8376 C.3     
  24 C24           -0.8005     3.8843    -3.9694 C.3     
  25 C25            0.3975     3.5959    -1.3647 C.2     
  26 O26           -0.6590     2.9926    -1.4065 O.2     
  27 H27           -0.8470     1.9152     0.3343 H       
  28 H28            0.3535    -0.5103     2.0745 H       
  29 H29            0.9099    -1.7426     0.9121 H       
  30 H30            3.7519     3.0158     1.4783 H       
  31 H31            2.2117     3.4710     2.2456 H       
  32 H32            3.1668     2.1192     2.9003 H       
  33 H33            1.6455     0.0610    -1.3893 H       
  34 H34            0.6284    -1.3939    -1.5201 H       
  35 H35            0.0374     0.1643    -2.1454 H       
  36 H36           -1.3597    -1.2630    -1.9611 H       
  37 H37           -5.0172    -1.8610     0.1527 H       
  38 H38           -4.0591    -0.7461     2.1278 H       
  39 H39           -1.4933     6.1958    -1.5088 H       
  40 H40           -2.5402     5.6548    -2.8428 H       
  41 H41           -2.0075     4.4943    -1.6027 H       
  42 H42            0.8029     6.0391    -4.4347 H       
  43 H43           -0.8990     6.5570    -4.4966 H       
  44 H44            0.1479     7.0979    -3.1626 H       
  45 H45           -1.0882     3.0082    -3.3884 H       
  46 H46           -1.6208     4.1687    -4.6284 H       
  47 H47            0.0810     3.6509    -4.5666 H       
@<TRIPOS>BOND
   1    1    2 1
   2    1    6 1
   3    1   27 1
   4    2    3 1
   5    2    7 1
   6    2   12 1
   7    3    4 1
   8    3   28 1
   9    3   29 1
  10    4    5 am
  11    4   10 2
  12    4   11 2
  13    5    6 1
  14    5    9 1
  15    6   19 2
  16    7   13 ar
  17    7    8 ar
  18    8   18 1
  19    8   16 ar
  20    9   30 1
  21    9   31 1
  22    9   32 1
  23   12   33 1
  24   12   34 1
  25   12   35 1
  26   13   14 ar
  27   13   36 1
  28   14   15 ar
  29   14   17 1
  30   15   16 ar
  31   15   37 1
  32   16   38 1
  33   19   25 1
  34   20   21 1
  35   20   25 1
  36   21   22 1
  37   21   23 1
  38   21   24 1
  39   22   39 1
  40   22   40 1
  41   22   41 1
  42   23   42 1
  43   23   43 1
  44   23   44 1
  45   24   45 1
  46   24   46 1
  47   24   47 1
  48   25   26 2

#	End of record

