#	Name: ASD01810267
#	Creating user name:	WinNT
#	Creation time:	15. 06. 2019 19:24

#	Modifying user name:	WinNT
#	Modification time:	15. 06. 2019 19:24

#	Program:	/corina/corina34_cracker 3.40 0067  02.08.2006

@<TRIPOS>MOLECULE
ASD01810267
  47   50    0    0    0
SMALL
NO_CHARGES


@<TRIPOS>ATOM
   1 C1             0.1045     1.4768     0.3894 C.ar    
   2 C2             0.0853     0.0905     0.3811 C.ar    
   3 C3             1.2537    -0.6303     0.2399 C.ar    
   4 C4             2.4706     0.0350     0.1032 C.ar    
   5 C5             2.4885     1.4402     0.1113 C.ar    
   6 C6             1.2981     2.1573     0.2555 C.ar    
   7 N7             3.6448    -0.6745    -0.0381 N.pl3   
   8 C8             4.8382    -0.0824    -0.1718 C.2     
   9 C9             4.9814     1.2904    -0.1784 C.2     
  10 C10            3.7818     2.1314    -0.0342 C.2     
  11 O11            3.8553     3.3478    -0.0339 O.2     
  12 C12            3.5837    -2.1382    -0.0416 C.3     
  13 C13            3.4399    -2.6316    -1.4583 C.ar    
  14 C14            4.5614    -2.7752    -2.2551 C.ar    
  15 C15            4.4355    -3.2266    -3.5532 C.ar    
  16 C16            3.1757    -3.5380    -4.0608 C.ar    
  17 C17            2.0494    -3.3914    -3.2537 C.ar    
  18 C18            2.1875    -2.9445    -1.9552 C.ar    
  19 C19            3.0341    -4.0233    -5.4559 C.ar    
  20 C20            6.3093     1.9023    -0.3271 C.2     
  21 O21            6.4362     3.2444    -0.3321 O.3     
  22 O22            7.2932     1.1983    -0.4455 O.2     
  23 C23            1.7744    -4.3346    -5.9634 C.ar    
  24 C24            1.6484    -4.7857    -7.2617 C.ar    
  25 C25            2.7699    -4.9294    -8.0585 C.ar    
  26 C26            4.0230    -4.6222    -7.5597 C.ar    
  27 C27            4.1598    -4.1640    -6.2649 C.ar    
  28 F28            1.3149     3.5082     0.2629 F       
  29 F29            1.2177    -1.9808     0.2347 F       
  30 C30            2.6262    -5.4228    -9.4752 C.3     
  31 F31            2.4433    -4.3325   -10.3324 F       
  32 F32            3.7816    -6.1189    -9.8460 F       
  33 F33            1.5202    -6.2751    -9.5621 F       
  34 H34           -0.8188     2.0267     0.4967 H       
  35 H35           -0.8544    -0.4311     0.4867 H       
  36 H36            5.7182    -0.6996    -0.2776 H       
  37 H37            4.4988    -2.5411     0.3923 H       
  38 H38            2.7271    -2.4675     0.5465 H       
  39 H39            5.5373    -2.5333    -1.8608 H       
  40 H40            5.3118    -3.3381    -4.1746 H       
  41 H41            1.0706    -3.6313    -3.6421 H       
  42 H42            1.3152    -2.8306    -1.3287 H       
  43 H43            7.3297     3.6005    -0.4325 H       
  44 H44            0.8981    -4.2235    -5.3419 H       
  45 H45            0.6725    -5.0273    -7.6561 H       
  46 H46            4.8954    -4.7365    -8.1860 H       
  47 H47            5.1386    -3.9241    -5.8765 H       
@<TRIPOS>BOND
   1    1    2 ar
   2    1    6 ar
   3    1   34 1
   4    2    3 ar
   5    2   35 1
   6    3    4 ar
   7    3   29 1
   8    4    5 ar
   9    4    7 1
  10    5    6 ar
  11    5   10 1
  12    6   28 1
  13    7    8 1
  14    7   12 1
  15    8    9 2
  16    8   36 1
  17    9   10 1
  18    9   20 1
  19   10   11 2
  20   12   13 1
  21   12   37 1
  22   12   38 1
  23   13   14 ar
  24   13   18 ar
  25   14   15 ar
  26   14   39 1
  27   15   16 ar
  28   15   40 1
  29   16   17 ar
  30   16   19 1
  31   17   18 ar
  32   17   41 1
  33   18   42 1
  34   19   23 ar
  35   19   27 ar
  36   20   21 1
  37   20   22 2
  38   21   43 1
  39   23   24 ar
  40   23   44 1
  41   24   25 ar
  42   24   45 1
  43   25   26 ar
  44   25   30 1
  45   26   27 ar
  46   26   46 1
  47   27   47 1
  48   30   31 1
  49   30   32 1
  50   30   33 1

#	End of record

