#	Name: ASD03240740
#	Creating user name:	WinNT
#	Creation time:	15. 06. 2019 20:35

#	Modifying user name:	WinNT
#	Modification time:	15. 06. 2019 20:35

#	Program:	/corina/corina34_cracker 3.40 0067  02.08.2006

@<TRIPOS>MOLECULE
ASD03240740
  79   85    0    0    0
SMALL
NO_CHARGES


@<TRIPOS>ATOM
   1 C1            -0.8915     2.9046    -0.9930 C.2     
   2 N2            -1.0883     1.5749    -1.0356 N.2     
   3 C3            -0.0969     0.7243    -0.9672 C.2     
   4 C4             1.2674     1.2326    -0.8407 C.ar    
   5 C5             1.4672     2.6291    -0.7966 C.ar    
   6 N6             0.3584     3.4496    -0.8756 N.pl3   
   7 C7             2.3682     0.3733    -0.7627 C.ar    
   8 C8             3.6320     0.9428    -0.6432 C.ar    
   9 C9             3.7520     2.3455    -0.6058 C.ar    
  10 N10            2.6857     3.1278    -0.6832 N.ar    
  11 N11            0.2194     4.8427    -0.8605 N.2     
  12 C12           -1.0533     5.1416    -0.9636 C.2     
  13 C13           -1.7868     3.9645    -1.0433 C.2     
  14 C14            4.8372     0.0838    -0.5557 C.ar    
  15 C15            4.8803    -0.9705     0.3552 C.ar    
  16 C16            6.0046    -1.7671     0.4319 C.ar    
  17 C17            7.0876    -1.5207    -0.3928 C.ar    
  18 C18            7.0507    -0.4757    -1.2983 C.ar    
  19 C19            5.9293     0.3237    -1.3881 C.ar    
  20 C20           -1.6273     6.5349    -0.9849 C.3     
  21 C21            5.0946     2.9571    -0.4787 C.ar    
  22 C22            5.3806     4.1594    -1.1256 C.ar    
  23 C23            6.6335     4.7242    -1.0034 C.ar    
  24 C24            7.6052     4.1006    -0.2411 C.ar    
  25 C25            7.3277     2.9080     0.4029 C.ar    
  26 C26            6.0768     2.3361     0.2930 C.ar    
  27 C27            8.9717     4.7227    -0.1122 C.3     
  28 N28            8.9909     5.6268     1.0455 N.3     
  29 C29           10.3589     6.0679     1.3461 C.3     
  30 C30           10.3597     6.8870     2.6388 C.3     
  31 C31            9.4383     8.0983     2.4703 C.3     
  32 C32            8.0313     7.6132     2.1103 C.3     
  33 C33            8.0980     6.7731     0.8329 C.3     
  34 C34            9.3882     8.8761     3.7601 C.2     
  35 N35            8.6343     9.9900     3.8464 N.am    
  36 O36           10.0263     8.4997     4.7205 O.2     
  37 C37            8.5096    10.6583     5.0714 C.ar    
  38 C38            9.5885    10.7161     5.9437 C.ar    
  39 C39            9.4640    11.3773     7.1538 C.ar    
  40 C40            8.2574    11.9827     7.4934 C.ar    
  41 C41            7.1832    11.9231     6.6210 C.ar    
  42 C42            7.3095    11.2675     5.4106 C.ar    
  43 O43            8.1331    12.6325     8.6823 O.3     
  44 C44            6.8666    13.2306     8.9654 C.3     
  45 O45           10.5191    11.4348     8.0098 O.3     
  46 H46           -0.2840    -0.3388    -1.0034 H       
  47 H47            2.2412    -0.6987    -0.7939 H       
  48 H48           -2.8605     3.8877    -1.1311 H       
  49 H49            4.0356    -1.1633     1.0000 H       
  50 H50            6.0391    -2.5842     1.1372 H       
  51 H51            7.9655    -2.1465    -0.3291 H       
  52 H52            7.8993    -0.2877    -1.9394 H       
  53 H53            5.8998     1.1366    -2.0986 H       
  54 H54           -1.6784     6.8910    -2.0138 H       
  55 H55           -2.6287     6.5219    -0.5548 H       
  56 H56           -0.9899     7.1994    -0.4017 H       
  57 H57            4.6230     4.6469    -1.7212 H       
  58 H58            6.8562     5.6549    -1.5040 H       
  59 H59            8.0903     2.4260     0.9965 H       
  60 H60            5.8600     1.4074     0.7998 H       
  61 H61            9.7162     3.9388     0.0266 H       
  62 H62            9.2013     5.2858    -1.0168 H       
  63 H63           11.0029     5.1969     1.4676 H       
  64 H64           10.7306     6.6827     0.5263 H       
  65 H65           10.0011     6.2686     3.4616 H       
  66 H66           11.3728     7.2274     2.8532 H       
  67 H67            9.8185     8.7371     1.6732 H       
  68 H68            7.6361     7.0063     2.9248 H       
  69 H69            7.3808     8.4725     1.9472 H       
  70 H70            8.4803     7.3846     0.0156 H       
  71 H71            7.0999     6.4143     0.5817 H       
  72 H72            8.1780    10.3290     3.0604 H       
  73 H73           10.5237    10.2454     5.6786 H       
  74 H74            6.2471    12.3927     6.8850 H       
  75 H75            6.4721    11.2259     4.7297 H       
  76 H76            6.6361    13.9724     8.2008 H       
  77 H77            6.0944    12.4614     8.9700 H       
  78 H78            6.9033    13.7143     9.9415 H       
  79 H79           11.0933    12.2012     7.8754 H       
@<TRIPOS>BOND
   1    1    2 1
   2    1    6 1
   3    1   13 2
   4    2    3 2
   5    3    4 1
   6    3   46 1
   7    4    5 ar
   8    4    7 ar
   9    5    6 1
  10    5   10 ar
  11    6   11 1
  12    7    8 ar
  13    7   47 1
  14    8    9 ar
  15    8   14 1
  16    9   10 ar
  17    9   21 1
  18   11   12 2
  19   12   13 1
  20   12   20 1
  21   13   48 1
  22   14   15 ar
  23   14   19 ar
  24   15   16 ar
  25   15   49 1
  26   16   17 ar
  27   16   50 1
  28   17   18 ar
  29   17   51 1
  30   18   19 ar
  31   18   52 1
  32   19   53 1
  33   20   54 1
  34   20   55 1
  35   20   56 1
  36   21   22 ar
  37   21   26 ar
  38   22   23 ar
  39   22   57 1
  40   23   24 ar
  41   23   58 1
  42   24   25 ar
  43   24   27 1
  44   25   26 ar
  45   25   59 1
  46   26   60 1
  47   27   28 1
  48   27   61 1
  49   27   62 1
  50   28   29 1
  51   28   33 1
  52   29   30 1
  53   29   63 1
  54   29   64 1
  55   30   31 1
  56   30   65 1
  57   30   66 1
  58   31   32 1
  59   31   34 1
  60   31   67 1
  61   32   33 1
  62   32   68 1
  63   32   69 1
  64   33   70 1
  65   33   71 1
  66   34   35 am
  67   34   36 2
  68   35   37 1
  69   35   72 1
  70   37   38 ar
  71   37   42 ar
  72   38   39 ar
  73   38   73 1
  74   39   40 ar
  75   39   45 1
  76   40   41 ar
  77   40   43 1
  78   41   42 ar
  79   41   74 1
  80   42   75 1
  81   43   44 1
  82   44   76 1
  83   44   77 1
  84   44   78 1
  85   45   79 1

#	End of record

