#	Name: ASD03731472
#	Creating user name:	WinNT
#	Creation time:	15. 06. 2019 20:45

#	Modifying user name:	WinNT
#	Modification time:	15. 06. 2019 20:45

#	Program:	/corina/corina34_cracker 3.40 0067  02.08.2006

@<TRIPOS>MOLECULE
ASD03731472
  60   66    0    0    0
SMALL
NO_CHARGES


@<TRIPOS>ATOM
   1 O1            -0.0174     1.4334     0.0099 O.3     
   2 C2             0.0021    -0.0041     0.0020 C.3     
   3 C3             1.3372    -0.3248    -0.7107 C.3     
   4 C4             2.1511     0.9228    -0.4269 C.ar    
   5 C5             1.2612     1.9005     0.0002 C.ar    
   6 C6             1.7556     3.1563     0.3427 C.ar    
   7 C7             3.1066     3.4205     0.2492 C.ar    
   8 C8             3.9812     2.4419    -0.1850 C.ar    
   9 C9             3.4984     1.1899    -0.5234 C.ar    
  10 C10            0.0041    -0.5457     1.4083 C.2     
  11 O11            0.0553     0.2155     2.3512 O.2     
  12 N12           -0.0508    -1.8758     1.6183 N.am    
  13 C13           -0.0488    -2.4023     2.9854 C.3     
  14 C14           -0.1172    -3.9302     2.9436 C.3     
  15 C15           -0.1151    -4.4801     4.3714 C.3     
  16 O16            1.7183    -9.4022    -0.5381 O.3     
  17 C17            1.8924   -10.7607    -0.9821 C.3     
  18 O18            2.4027   -11.4383     0.1813 O.3     
  19 C19            1.9277   -10.7357     1.2515 C.ar    
  20 C20            1.5079    -9.4834     0.8087 C.ar    
  21 C21            1.8167   -11.0692     2.5895 C.ar    
  22 C22            1.2888   -10.1601     3.5013 C.ar    
  23 C23            0.8806    -8.9092     3.0484 C.ar    
  24 C24            0.9842    -8.5759     1.7140 C.ar    
  25 O25            1.0787   -10.2926     4.8424 O.3     
  26 C26            0.3904    -8.1550     4.2554 C.3     
  27 C27            0.9229    -8.9866     5.4303 C.3     
  28 N28           -0.1806    -5.9431     4.3313 N.am    
  29 C29            0.9029    -6.7440     4.2906 C.2     
  30 C30           -1.1045    -8.0362     4.2861 C.ar    
  31 C31           -2.1321    -8.9527     4.2775 C.ar    
  32 C32           -3.4460    -8.5210     4.3155 C.ar    
  33 C33           -3.7246    -7.1671     4.3615 C.ar    
  34 C34           -2.6988    -6.2451     4.3694 C.ar    
  35 C35           -1.3732    -6.6706     4.3318 C.ar    
  36 O36            2.0640    -6.3936     4.2840 O.2     
  37 H37           -0.8421    -0.3986    -0.5636 H       
  38 H38            1.8095    -1.2055    -0.2754 H       
  39 H39            1.1853    -0.4555    -1.7822 H       
  40 H40            1.0790     3.9266     0.6824 H       
  41 H41            3.4827     4.3970     0.5163 H       
  42 H42            5.0376     2.6539    -0.2602 H       
  43 H43            4.1783     0.4222    -0.8624 H       
  44 H44           -0.0917    -2.4846     0.8642 H       
  45 H45            0.8652    -2.0933     3.4924 H       
  46 H46           -0.9127    -2.0146     3.5253 H       
  47 H47           -1.0313    -4.2393     2.4365 H       
  48 H48            0.7466    -4.3180     2.4036 H       
  49 H49            0.7989    -4.1711     4.8784 H       
  50 H50           -0.9790    -4.0924     4.9113 H       
  51 H51            0.9378   -11.1893    -1.2870 H       
  52 H52            2.6126   -10.8072    -1.7990 H       
  53 H53            2.1419   -12.0416     2.9287 H       
  54 H54            0.6564    -7.6045     1.3745 H       
  55 H55            0.1997    -9.0128     6.2453 H       
  56 H56            1.8822    -8.6002     5.7747 H       
  57 H57           -1.9122   -10.0095     4.2413 H       
  58 H58           -4.2522    -9.2396     4.3096 H       
  59 H59           -4.7503    -6.8302     4.3910 H       
  60 H60           -2.9243    -5.1895     4.4049 H       
@<TRIPOS>BOND
   1    1    2 1
   2    1    5 1
   3    2    3 1
   4    2   10 1
   5    2   37 1
   6    3    4 1
   7    3   38 1
   8    3   39 1
   9    4    5 ar
  10    4    9 ar
  11    5    6 ar
  12    6    7 ar
  13    6   40 1
  14    7    8 ar
  15    7   41 1
  16    8    9 ar
  17    8   42 1
  18    9   43 1
  19   10   11 2
  20   10   12 am
  21   12   13 1
  22   12   44 1
  23   13   14 1
  24   13   45 1
  25   13   46 1
  26   14   15 1
  27   14   47 1
  28   14   48 1
  29   15   28 1
  30   15   49 1
  31   15   50 1
  32   16   17 1
  33   16   20 1
  34   17   18 1
  35   17   51 1
  36   17   52 1
  37   18   19 1
  38   19   20 ar
  39   19   21 ar
  40   20   24 ar
  41   21   22 ar
  42   21   53 1
  43   22   23 ar
  44   22   25 1
  45   23   24 ar
  46   23   26 1
  47   24   54 1
  48   25   27 1
  49   26   27 1
  50   26   29 1
  51   26   30 1
  52   27   55 1
  53   27   56 1
  54   28   29 am
  55   28   35 1
  56   29   36 2
  57   30   31 ar
  58   30   35 ar
  59   31   32 ar
  60   31   57 1
  61   32   33 ar
  62   32   58 1
  63   33   34 ar
  64   33   59 1
  65   34   35 ar
  66   34   60 1

#	End of record

