#	Name: ASD04882396
#	Creating user name:	WinNT
#	Creation time:	15. 06. 2019 20:54

#	Modifying user name:	WinNT
#	Modification time:	15. 06. 2019 20:54

#	Program:	/corina/corina34_cracker 3.40 0067  02.08.2006

@<TRIPOS>MOLECULE
ASD04882396
  78   83    0    0    0
SMALL
NO_CHARGES


@<TRIPOS>ATOM
   1 C1             0.0028     1.3920     0.0499 C.ar    
   2 C2             0.0139     0.0024     0.0313 C.ar    
   3 C3             1.2289    -0.6885    -0.0018 C.ar    
   4 C4             2.4201     0.0116    -0.0166 C.ar    
   5 C5             2.4061     1.4095     0.0016 C.ar    
   6 C6             1.1882     2.0937     0.0352 C.ar    
   7 N7            -1.1867    -0.7028     0.0462 N.3     
   8 C8            -1.9641    -0.3937     1.2545 C.3     
   9 C9            -1.9722    -0.4310    -1.1657 C.3     
  10 C10           -3.2434    -1.2832    -1.1483 C.3     
  11 N11           -4.0207    -0.9741     0.0600 N.3     
  12 C12           -3.2352    -1.2459     1.2719 C.3     
  13 C13            3.6754     2.1611    -0.0136 C.2     
  14 O14            4.7348     1.5649    -0.0420 O.2     
  15 C15           -5.2250    -1.6815     0.0750 C.ar    
  16 C16           -5.2168    -3.0702     0.0565 C.ar    
  17 C17           -6.4337    -0.9976     0.1141 C.ar    
  18 C18           -7.6225    -1.6999     0.1288 C.ar    
  19 C19           -7.6108    -3.0828     0.1050 C.ar    
  20 C20           -6.4096    -3.7666     0.0713 C.ar    
  21 N21            3.6609     3.5087     0.0040 N.am    
  22 C22           -6.4474     0.5091     0.1410 C.3     
  23 N23            1.2386    -2.0893    -0.0196 N.am    
  24 C24            2.1969    -2.7479    -0.7009 C.2     
  25 C25            2.2815    -4.2101    -0.6193 C.2     
  26 C26            1.4663    -5.0337     0.0995 C.2     
  27 N27            1.8855    -6.2873    -0.1008 N.2     
  28 C28            2.9145    -6.2682    -0.9050 C.2     
  29 O29            3.1802    -5.0036    -1.2474 O.3     
  30 O30            2.9921    -2.1296    -1.3840 O.2     
  31 C31            4.9214     4.2551    -0.0111 C.3     
  32 C32            4.6256     5.7560     0.0140 C.3     
  33 C33            5.9421     6.5356    -0.0017 C.3     
  34 C34            5.6508     8.0139     0.0230 C.2     
  35 C35            5.5252     8.7724     1.1161 C.2     
  36 S36            5.4231     9.0493    -1.3844 S.3     
  37 C37            5.1740    10.3975    -0.3629 C.2     
  38 N38            5.2692    10.0422     0.8739 N.2     
  39 C39            3.6767    -7.4795    -1.3771 C.3     
  40 C40            4.3421    -8.3544    -0.3129 C.3     
  41 C41            3.0946    -8.8546    -1.0439 C.3     
  42 C42            5.6645     8.2206     2.5116 C.3     
  43 H43           -0.9374     1.9230     0.0713 H       
  44 H44            3.3599    -0.5200    -0.0419 H       
  45 H45            1.1762     3.1735     0.0493 H       
  46 H46           -1.3658    -0.6150     2.1383 H       
  47 H47           -2.2342     0.6623     1.2529 H       
  48 H48           -2.2425     0.6246    -1.1948 H       
  49 H49           -1.3799    -0.6795    -2.0463 H       
  50 H50           -3.8417    -1.0619    -2.0321 H       
  51 H51           -2.9733    -2.3392    -1.1467 H       
  52 H52           -2.9650    -2.3015     1.3010 H       
  53 H53           -3.8276    -0.9974     2.1525 H       
  54 H54           -4.2789    -3.6050     0.0302 H       
  55 H55           -8.5624    -1.1689     0.1592 H       
  56 H56           -8.5420    -3.6297     0.1172 H       
  57 H57           -6.4040    -4.8464     0.0528 H       
  58 H58            2.8158     3.9843     0.0267 H       
  59 H59           -6.4737     0.8906    -0.8797 H       
  60 H60           -7.3289     0.8549     0.6809 H       
  61 H61           -5.5495     0.8717     0.6414 H       
  62 H62            0.5556    -2.5851     0.4585 H       
  63 H63            0.6348    -4.7290     0.7177 H       
  64 H64            5.5131     3.9867     0.8641 H       
  65 H65            5.4782     4.0096    -0.9154 H       
  66 H66            4.0339     6.0244    -0.8611 H       
  67 H67            4.0688     6.0016     0.9183 H       
  68 H68            6.5338     6.2672     0.8735 H       
  69 H69            6.4989     6.2900    -0.9060 H       
  70 H70            4.9707    11.4020    -0.7035 H       
  71 H71            4.1917    -7.3684    -2.3313 H       
  72 H72            5.2947    -8.8193    -0.5671 H       
  73 H73            4.2285    -8.0539     0.7287 H       
  74 H74            2.1602    -8.8831    -0.4833 H       
  75 H75            3.2264    -9.6485    -1.7790 H       
  76 H76            6.7061     8.2863     2.8259 H       
  77 H77            5.0417     8.7984     3.1946 H       
  78 H78            5.3464     7.1782     2.5235 H       
@<TRIPOS>BOND
   1    1    2 ar
   2    1    6 ar
   3    1   43 1
   4    2    3 ar
   5    2    7 1
   6    3    4 ar
   7    3   23 1
   8    4    5 ar
   9    4   44 1
  10    5    6 ar
  11    5   13 1
  12    6   45 1
  13    7    8 1
  14    7    9 1
  15    8   12 1
  16    8   46 1
  17    8   47 1
  18    9   10 1
  19    9   48 1
  20    9   49 1
  21   10   11 1
  22   10   50 1
  23   10   51 1
  24   11   12 1
  25   11   15 1
  26   12   52 1
  27   12   53 1
  28   13   14 2
  29   13   21 am
  30   15   16 ar
  31   15   17 ar
  32   16   20 ar
  33   16   54 1
  34   17   18 ar
  35   17   22 1
  36   18   19 ar
  37   18   55 1
  38   19   20 ar
  39   19   56 1
  40   20   57 1
  41   21   31 1
  42   21   58 1
  43   22   59 1
  44   22   60 1
  45   22   61 1
  46   23   24 am
  47   23   62 1
  48   24   25 1
  49   24   30 2
  50   25   26 2
  51   25   29 1
  52   26   27 1
  53   26   63 1
  54   27   28 2
  55   28   29 1
  56   28   39 1
  57   31   32 1
  58   31   64 1
  59   31   65 1
  60   32   33 1
  61   32   66 1
  62   32   67 1
  63   33   34 1
  64   33   68 1
  65   33   69 1
  66   34   36 1
  67   34   35 2
  68   35   42 1
  69   35   38 1
  70   36   37 1
  71   37   38 2
  72   37   70 1
  73   39   40 1
  74   39   41 1
  75   39   71 1
  76   40   41 1
  77   40   72 1
  78   40   73 1
  79   41   74 1
  80   41   75 1
  81   42   76 1
  82   42   77 1
  83   42   78 1

#	End of record

