#	Name: ASD01901560
#	Creating user name:	WinNT
#	Creation time:	15. 06. 2019 19:54

#	Modifying user name:	WinNT
#	Modification time:	15. 06. 2019 19:54

#	Program:	/corina/corina34_cracker 3.40 0067  02.08.2006

@<TRIPOS>MOLECULE
ASD01901560
  36   39    0    0    0
SMALL
NO_CHARGES


@<TRIPOS>ATOM
   1 C1             0.9151     1.2630     1.0008 C.3     
   2 C2             0.8386    -0.2553     0.8282 C.3     
   3 F3             1.6927    -0.8728     1.7483 F       
   4 F4            -0.4744    -0.6843     1.0500 F       
   5 C5             1.2577    -0.6235    -0.5717 C.ar    
   6 N6             1.6175     0.3136    -1.4179 N.ar    
   7 C7             1.9958     0.0517    -2.6619 C.ar    
   8 C8             2.0363    -1.2192    -3.1480 C.ar    
   9 C9             1.6643    -2.2791    -2.2991 C.ar    
  10 C10            1.6795    -3.6130    -2.7235 C.ar    
  11 C11            1.3037    -4.6069    -1.8429 C.ar    
  12 N12            1.3164    -5.9379    -2.2585 N.pl3   
  13 C13            0.4178    -6.8527    -1.7015 C.2     
  14 N14           -0.5473    -6.5749    -0.8660 N.2     
  15 N15           -1.2384    -7.7417    -0.5256 N.pl3   
  16 H16           -1.9954    -7.7896     0.0790 H       
  17 C17           -0.6793    -8.8053    -1.1800 C.ar    
  18 N18           -0.9449   -10.1059    -1.2092 N.ar    
  19 C19           -0.2116   -10.9086    -1.9549 C.ar    
  20 C20            0.8396   -10.4063    -2.7124 C.ar    
  21 N21            1.1187    -9.1189    -2.6960 N.ar    
  22 C22            0.3840    -8.2948    -1.9540 C.ar    
  23 C23            0.9101    -4.2927    -0.5359 C.ar    
  24 C24            0.8876    -3.0044    -0.1018 C.ar    
  25 C25            1.2691    -1.9690    -0.9706 C.ar    
  26 H26            1.9381     1.5972     0.8280 H       
  27 H27            0.2497     1.7441     0.2840 H       
  28 H28            0.6120     1.5293     2.0134 H       
  29 H29            2.2795     0.8698    -3.3074 H       
  30 H30            2.3471    -1.4105    -4.1644 H       
  31 H31            1.9820    -3.8618    -3.7300 H       
  32 H32            1.9486    -6.2291    -2.9340 H       
  33 H33           -0.4296   -11.9661    -1.9770 H       
  34 H34            1.4320   -11.0759    -3.3183 H       
  35 H35            0.6198    -5.0858     0.1372 H       
  36 H36            0.5813    -2.7785     0.9089 H       
@<TRIPOS>BOND
   1    1    2 1
   2    1   26 1
   3    1   27 1
   4    1   28 1
   5    2    3 1
   6    2    4 1
   7    2    5 1
   8    5   25 ar
   9    5    6 ar
  10    6    7 ar
  11    7    8 ar
  12    7   29 1
  13    8    9 ar
  14    8   30 1
  15    9   25 ar
  16    9   10 ar
  17   10   11 ar
  18   10   31 1
  19   11   12 1
  20   11   23 ar
  21   12   13 1
  22   12   32 1
  23   13   22 1
  24   13   14 2
  25   14   15 1
  26   15   16 1
  27   15   17 1
  28   17   22 ar
  29   17   18 ar
  30   18   19 ar
  31   19   20 ar
  32   19   33 1
  33   20   21 ar
  34   20   34 1
  35   21   22 ar
  36   23   24 ar
  37   23   35 1
  38   24   25 ar
  39   24   36 1

#	End of record

