#	Name: ASD01812759
#	Creating user name:	WinNT
#	Creation time:	15. 06. 2019 19:29

#	Modifying user name:	WinNT
#	Modification time:	15. 06. 2019 19:29

#	Program:	/corina/corina34_cracker 3.40 0067  02.08.2006

@<TRIPOS>MOLECULE
ASD01812759
  57   61    0    0    0
SMALL
NO_CHARGES


@<TRIPOS>ATOM
   1 N1            -0.0158     1.3146     0.0093 N.ar    
   2 C2             0.0021    -0.0041     0.0020 C.ar    
   3 C3             1.1989    -0.7034    -0.0127 C.ar    
   4 C4             2.3830    -0.0017    -0.0202 C.ar    
   5 C5             2.3452     1.3975    -0.0128 C.ar    
   6 C6             1.0958     2.0332     0.0025 C.ar    
   7 C7             3.8374    -0.3895    -0.0358 C.3     
   8 N8             4.5957     0.8678    -0.0366 N.am    
   9 C9             3.7284     1.8956    -0.0233 C.2     
  10 C10            6.0561     0.9836    -0.0497 C.3     
  11 C11            6.5435     1.0305    -1.4749 C.ar    
  12 C12            6.4768     2.2157    -2.1887 C.ar    
  13 C13            6.9231     2.2627    -3.4966 C.ar    
  14 C14            7.4401     1.1162    -4.0943 C.ar    
  15 C15            7.5048    -0.0726    -3.3706 C.ar    
  16 C16            7.0614    -0.1086    -2.0641 C.ar    
  17 O17            1.0259     3.3855     0.0100 O.3     
  18 O18            4.0435     3.0700    -0.0207 O.2     
  19 C19           -0.2061     3.9611     0.0244 C.ar    
  20 C20            7.9203     1.1603    -5.4985 C.2     
  21 C21           -0.8241     4.2490     1.2326 C.ar    
  22 C22           -2.0815     4.8370     1.2435 C.ar    
  23 C23           -2.7171     5.1353     0.0479 C.ar    
  24 C24           -2.1001     4.8479    -1.1557 C.ar    
  25 C25           -0.8450     4.2668    -1.1708 C.ar    
  26 F26           -0.2423     3.9918    -2.3482 F       
  27 F27           -0.2034     3.9572     2.3966 F       
  28 F28            5.9748     3.3267    -1.6066 F       
  29 O29           -2.6900     5.1200     2.4264 O.3     
  30 C30           -3.9831     5.7248     2.3625 C.3     
  31 C31            7.2412     1.6682    -6.5673 C.2     
  32 C32            9.1624     0.6910    -5.9685 C.2     
  33 N33            9.2160     0.9046    -7.2565 N.2     
  34 N34            8.0244     1.5223    -7.6550 N.pl3   
  35 C35           10.2416     0.0538    -5.1316 C.3     
  36 C36            7.6845     1.9332    -9.0195 C.3     
  37 H37           -0.9309    -0.5480     0.0080 H       
  38 H38            1.2022    -1.7834    -0.0178 H       
  39 H39            4.0794    -0.9727     0.8527 H       
  40 H40            4.0627    -0.9637    -0.9345 H       
  41 H41            6.3528     1.8969     0.4660 H       
  42 H42            6.4934     0.1225     0.4558 H       
  43 H43            6.8704     3.1865    -4.0535 H       
  44 H44            7.9051    -0.9642    -3.8303 H       
  45 H45            7.1151    -1.0292    -1.5019 H       
  46 H46           -3.6955     5.5925     0.0567 H       
  47 H47           -2.5974     5.0809    -2.0856 H       
  48 H48           -4.3540     5.8970     3.3728 H       
  49 H49           -3.9138     6.6756     1.8340 H       
  50 H50           -4.6678     5.0633     1.8318 H       
  51 H51            6.2547     2.1072    -6.5460 H       
  52 H52           10.0878    -1.0248    -5.1002 H       
  53 H53           11.2160     0.2693    -5.5699 H       
  54 H54           10.2015     0.4562    -4.1194 H       
  55 H55            8.0152     2.9589    -9.1831 H       
  56 H56            8.1803     1.2737    -9.7317 H       
  57 H57            6.6052     1.8729    -9.1589 H       
@<TRIPOS>BOND
   1    1    2 ar
   2    1    6 ar
   3    2    3 ar
   4    2   37 1
   5    3    4 ar
   6    3   38 1
   7    4    7 1
   8    4    5 ar
   9    5    6 ar
  10    5    9 1
  11    6   17 1
  12    7    8 1
  13    7   39 1
  14    7   40 1
  15    8    9 am
  16    8   10 1
  17    9   18 2
  18   10   11 1
  19   10   41 1
  20   10   42 1
  21   11   12 ar
  22   11   16 ar
  23   12   13 ar
  24   12   28 1
  25   13   14 ar
  26   13   43 1
  27   14   15 ar
  28   14   20 1
  29   15   16 ar
  30   15   44 1
  31   16   45 1
  32   17   19 1
  33   19   21 ar
  34   19   25 ar
  35   20   32 1
  36   20   31 2
  37   21   22 ar
  38   21   27 1
  39   22   23 ar
  40   22   29 1
  41   23   24 ar
  42   23   46 1
  43   24   25 ar
  44   24   47 1
  45   25   26 1
  46   29   30 1
  47   30   48 1
  48   30   49 1
  49   30   50 1
  50   31   34 1
  51   31   51 1
  52   32   33 2
  53   32   35 1
  54   33   34 1
  55   34   36 1
  56   35   52 1
  57   35   53 1
  58   35   54 1
  59   36   55 1
  60   36   56 1
  61   36   57 1

#	End of record

