#	Name: ASD04910459
#	Creating user name:	WinNT
#	Creation time:	15. 06. 2019 20:55

#	Modifying user name:	WinNT
#	Modification time:	15. 06. 2019 20:55

#	Program:	/corina/corina34_cracker 3.40 0067  02.08.2006

@<TRIPOS>MOLECULE
ASD04910459
  64   66    0    0    0
SMALL
NO_CHARGES


@<TRIPOS>ATOM
   1 C1            -0.2685     1.4349     0.2396 C.2     
   2 C2            -0.2083    -0.0704     0.2036 C.3     
   3 C3             1.2526    -0.5210     0.1421 C.3     
   4 O4             0.7523     2.0811     0.2182 O.2     
   5 O5            -1.4563     2.0581     0.2898 O.3     
   6 C6             2.5036    -2.6100     0.0511 C.2     
   7 C7             2.5627    -4.0869     0.0157 C.ar    
   8 C8             3.7960    -4.7378    -0.0423 C.ar    
   9 C9             3.8442    -6.1162    -0.0745 C.ar    
  10 C10            2.6734    -6.8531    -0.0499 C.ar    
  11 C11            1.4476    -6.2140     0.0076 C.ar    
  12 C12            1.3857    -4.8364     0.0461 C.ar    
  13 O13            3.5305    -1.9600     0.0296 O.2     
  14 N14            1.3111    -1.9845     0.1071 N.am    
  15 C15            2.7336    -8.3584    -0.0864 C.3     
  16 C16            2.5541    -8.9105     1.3292 C.3     
  17 C17            2.7392   -10.4291     1.3117 C.3     
  18 C18            2.5597   -10.9812     2.7273 C.3     
  19 O19            1.6915    -8.8566    -0.9276 O.3     
  20 C20            1.9543    -9.9903    -1.6303 C.ar    
  21 C21            3.2166   -10.5633    -1.5754 C.ar    
  22 C22            3.4840   -11.7147    -2.2890 C.ar    
  23 C23            2.4897   -12.2990    -3.0614 C.ar    
  24 C24            1.2268   -11.7254    -3.1161 C.ar    
  25 C25            0.9586   -10.5771    -2.3977 C.ar    
  26 C26            3.0688   -14.6867    -3.2703 C.2     
  27 N27            3.2535   -15.5224    -4.2559 N.2     
  28 C28            3.0741   -14.8821    -5.4207 C.2     
  29 C29            2.7660   -13.5989    -5.1518 C.2     
  30 N30            2.7612   -13.4692    -3.7873 N.pl3   
  31 C31            3.1967   -15.4928    -6.7929 C.3     
  32 F32            3.4167   -16.8691    -6.6729 F       
  33 F33            2.0160   -15.2700    -7.5096 F       
  34 F34            4.2710   -14.9060    -7.4702 F       
  35 C35            0.1469   -12.3593    -3.9545 C.3     
  36 C36            4.8554   -12.3367    -2.2296 C.3     
  37 H37           -0.6756    -0.4743     1.1017 H       
  38 H38           -0.7381    -0.4343    -0.6767 H       
  39 H39            1.7199    -0.1171    -0.7560 H       
  40 H40            1.7824    -0.1572     1.0224 H       
  41 H41           -1.4444     3.0248     0.3114 H       
  42 H42            4.7106    -4.1637    -0.0623 H       
  43 H43            4.7978    -6.6211    -0.1194 H       
  44 H44            0.5374    -6.7951     0.0266 H       
  45 H45            0.4284    -4.3388     0.0955 H       
  46 H46            0.4917    -2.5032     0.1242 H       
  47 H47            3.7000    -8.6740    -0.4796 H       
  48 H48            3.2951    -8.4618     1.9909 H       
  49 H49            1.5534    -8.6705     1.6886 H       
  50 H50            1.9983   -10.8778     0.6500 H       
  51 H51            3.7399   -10.6691     0.9523 H       
  52 H52            2.6915   -12.0631     2.7148 H       
  53 H53            3.3006   -10.5325     3.3889 H       
  54 H54            1.5590   -10.7412     3.0866 H       
  55 H55            3.9904   -10.1084    -0.9747 H       
  56 H56           -0.0252   -10.1332    -2.4368 H       
  57 H57            3.1436   -14.9248    -2.2195 H       
  58 H58            2.5623   -12.8212    -5.8730 H       
  59 H59           -0.4060   -13.0793    -3.3512 H       
  60 H60           -0.5339   -11.5877    -4.3140 H       
  61 H61            0.5995   -12.8694    -4.8049 H       
  62 H62            4.8939   -13.0538    -1.4096 H       
  63 H63            5.0635   -12.8480    -3.1695 H       
  64 H64            5.6007   -11.5582    -2.0667 H       
@<TRIPOS>BOND
   1    1    2 1
   2    1    4 2
   3    1    5 1
   4    2    3 1
   5    2   37 1
   6    2   38 1
   7    3   14 1
   8    3   39 1
   9    3   40 1
  10    5   41 1
  11    6    7 1
  12    6   13 2
  13    6   14 am
  14    7    8 ar
  15    7   12 ar
  16    8    9 ar
  17    8   42 1
  18    9   10 ar
  19    9   43 1
  20   10   11 ar
  21   10   15 1
  22   11   12 ar
  23   11   44 1
  24   12   45 1
  25   14   46 1
  26   15   16 1
  27   15   19 1
  28   15   47 1
  29   16   17 1
  30   16   48 1
  31   16   49 1
  32   17   18 1
  33   17   50 1
  34   17   51 1
  35   18   52 1
  36   18   53 1
  37   18   54 1
  38   19   20 1
  39   20   21 ar
  40   20   25 ar
  41   21   22 ar
  42   21   55 1
  43   22   23 ar
  44   22   36 1
  45   23   24 ar
  46   23   30 1
  47   24   25 ar
  48   24   35 1
  49   25   56 1
  50   26   27 2
  51   26   30 1
  52   26   57 1
  53   27   28 1
  54   28   29 2
  55   28   31 1
  56   29   30 1
  57   29   58 1
  58   31   32 1
  59   31   33 1
  60   31   34 1
  61   35   59 1
  62   35   60 1
  63   35   61 1
  64   36   62 1
  65   36   63 1
  66   36   64 1

#	End of record

