#	Name: ASD01940204
#	Creating user name:	WinNT
#	Creation time:	15. 06. 2019 20:12

#	Modifying user name:	WinNT
#	Modification time:	15. 06. 2019 20:12

#	Program:	/corina/corina34_cracker 3.40 0067  02.08.2006

@<TRIPOS>MOLECULE
ASD01940204
  46   47    0    0    0
SMALL
NO_CHARGES


@<TRIPOS>ATOM
   1 F1             1.9014     1.6024     2.2848 F       
   2 C2             1.0625     2.1529     1.3801 C.ar    
   3 C3             1.3872     2.1346     0.0302 C.ar    
   4 C4             0.5184     2.7039    -0.8994 C.ar    
   5 C5            -0.6658     3.2857    -0.4722 C.ar    
   6 C6            -0.9839     3.3010     0.8733 C.ar    
   7 C7            -0.1255     2.7312     1.7980 C.ar    
   8 N8             2.5855     1.5457    -0.3965 N.pl3   
   9 N9             0.8412     2.6887    -2.2629 N.am    
  10 C10            2.6325     0.1762    -0.6697 C.ar    
  11 C11            1.4774    -0.5902    -0.5861 C.ar    
  12 C12            1.5272    -1.9440    -0.8568 C.ar    
  13 C13            2.7253    -2.5367    -1.2103 C.ar    
  14 C14            3.8783    -1.7772    -1.2944 C.ar    
  15 C15            3.8348    -0.4215    -1.0315 C.ar    
  16 Cl16           5.2821     0.5313    -1.1371 Cl      
  17 F17           -0.4439     2.7439     3.1109 F       
  18 S18            0.4242     3.9691    -3.2268 S.o2    
  19 O19            0.9898     3.6542    -4.4918 O.2     
  20 O20           -0.9822     4.0881    -3.0624 O.2     
  21 C21           -0.3308     7.0840    -3.0314 C.3     
  22 C22           -0.5293     8.3365    -3.8874 C.3     
  23 C23            2.7751    -4.0139    -1.5043 C.3     
  24 F24            2.5365    -4.2266    -2.8663 F       
  25 F25            4.0379    -4.5138    -1.1685 F       
  26 F26            1.7974    -4.6726    -0.7511 F       
  27 C27            1.2742     5.3897    -2.4853 C.3     
  28 O28            0.9844     6.5665    -3.2423 O.3     
  29 O29           -0.4803     7.9808    -5.2706 O.3     
  30 C30           -0.6559     9.0846    -6.1611 C.3     
  31 H31           -1.3399     3.7276    -1.1911 H       
  32 H32           -1.9067     3.7547     1.2034 H       
  33 H33            3.3822     2.0889    -0.5021 H       
  34 H34            1.3089     1.9282    -2.6422 H       
  35 H35            0.5411    -0.1284    -0.3094 H       
  36 H36            0.6291    -2.5403    -0.7919 H       
  37 H37            4.8126    -2.2436    -1.5701 H       
  38 H38           -0.4563     7.3394    -1.9792 H       
  39 H39           -1.0670     6.3311    -3.3129 H       
  40 H40           -1.4982     8.7816    -3.6608 H       
  41 H41            0.2607     9.0550    -3.6688 H       
  42 H42            0.9308     5.5237    -1.4595 H       
  43 H43            2.3496     5.2116    -2.4880 H       
  44 H44           -1.6274     9.5452    -5.9817 H       
  45 H45            0.1314     9.8186    -5.9897 H       
  46 H46           -0.6058     8.7318    -7.1912 H       
@<TRIPOS>BOND
   1    1    2 1
   2    2    3 ar
   3    2    7 ar
   4    3    4 ar
   5    3    8 1
   6    4    5 ar
   7    4    9 1
   8    5    6 ar
   9    5   31 1
  10    6    7 ar
  11    6   32 1
  12    7   17 1
  13    8   10 1
  14    8   33 1
  15    9   18 am
  16    9   34 1
  17   10   11 ar
  18   10   15 ar
  19   11   12 ar
  20   11   35 1
  21   12   13 ar
  22   12   36 1
  23   13   14 ar
  24   13   23 1
  25   14   15 ar
  26   14   37 1
  27   15   16 1
  28   18   19 2
  29   18   20 2
  30   18   27 1
  31   21   28 1
  32   21   22 1
  33   21   38 1
  34   21   39 1
  35   22   29 1
  36   22   40 1
  37   22   41 1
  38   23   24 1
  39   23   25 1
  40   23   26 1
  41   27   28 1
  42   27   42 1
  43   27   43 1
  44   29   30 1
  45   30   44 1
  46   30   45 1
  47   30   46 1

#	End of record

