#	Name: ASD01180013
#	Creating user name:	WinNT
#	Creation time:	15. 06. 2019 19:06

#	Modifying user name:	WinNT
#	Modification time:	15. 06. 2019 19:06

#	Program:	/corina/corina34_cracker 3.40 0067  02.08.2006

@<TRIPOS>MOLECULE
ASD01180013
  28   29    0    0    0
SMALL
NO_CHARGES


@<TRIPOS>ATOM
   1 N1             0.0111     1.3506     0.1576 N.ar    
   2 C2            -0.0057     0.0283     0.1560 C.ar    
   3 C3             1.1759    -0.7136    -0.0013 C.ar    
   4 N4             2.3375    -0.1209    -0.1525 N.ar    
   5 C5             2.4009     1.2145    -0.1574 C.ar    
   6 C6             3.6170     1.8976    -0.3151 C.ar    
   7 C7             3.6273     3.2598    -0.3126 C.ar    
   8 C8             2.4550     4.0002    -0.1562 C.ar    
   9 C9             1.2456     3.3959     0.0009 C.ar    
  10 C10            1.1692     1.9910     0.0069 C.ar    
  11 C11            1.1095    -2.2191     0.0041 C.3     
  12 F12            0.3233    -2.6551    -1.0678 F       
  13 F13            2.4005    -2.7433    -0.1211 F       
  14 F14            0.5430    -2.6566     1.2061 F       
  15 C15           -1.2940    -0.6828     0.3237 C.2     
  16 O16           -1.3373    -1.8922     0.2244 O.2     
  17 Cl17           2.5413     5.7341    -0.1615 Cl      
  18 Cl18           5.1364     4.0953    -0.5083 Cl      
  19 O19           -2.4175     0.0119     0.5863 O.3     
  20 C20           -3.6437    -0.7506     0.7384 C.3     
  21 C21           -4.8042     0.2027     1.0305 C.3     
  22 H22            4.5381     1.3471    -0.4372 H       
  23 H23            0.3518     3.9902     0.1203 H       
  24 H24           -3.8469    -1.2991    -0.1814 H       
  25 H25           -3.5344    -1.4537     1.5641 H       
  26 H26           -5.7248    -0.3697     1.1446 H       
  27 H27           -4.6011     0.7512     1.9503 H       
  28 H28           -4.9136     0.9058     0.2048 H       
@<TRIPOS>BOND
   1    1    2 ar
   2    1   10 ar
   3    2    3 ar
   4    2   15 1
   5    3    4 ar
   6    3   11 1
   7    4    5 ar
   8    5    6 ar
   9    5   10 ar
  10    6    7 ar
  11    6   22 1
  12    7    8 ar
  13    7   18 1
  14    8    9 ar
  15    8   17 1
  16    9   10 ar
  17    9   23 1
  18   11   12 1
  19   11   13 1
  20   11   14 1
  21   15   16 2
  22   15   19 1
  23   19   20 1
  24   20   21 1
  25   20   24 1
  26   20   25 1
  27   21   26 1
  28   21   27 1
  29   21   28 1

#	End of record

