#	Name: ASD02030467
#	Creating user name:	WinNT
#	Creation time:	15. 06. 2019 20:15

#	Modifying user name:	WinNT
#	Modification time:	15. 06. 2019 20:15

#	Program:	/corina/corina34_cracker 3.40 0067  02.08.2006

@<TRIPOS>MOLECULE
ASD02030467
  48   49    0    0    0
SMALL
NO_CHARGES


@<TRIPOS>ATOM
   1 C1            -0.0144     1.2109     0.0087 C.2     
   2 O2             0.0752    -0.0006     0.0340 O.2     
   3 N3             1.0972     1.9670    -0.0872 N.am    
   4 C4             2.4336     1.3588    -0.0011 C.3     
   5 C5             3.2608     1.8290    -1.2023 C.3     
   6 N6             3.2487     3.2969    -1.2565 N.3     
   7 C7             1.8895     3.8111    -1.4710 C.3     
   8 C8             1.0061     3.4213    -0.2869 C.3     
   9 C9             4.7014     1.3353    -1.0548 C.3     
  10 C10            2.6568     1.2655    -2.4901 C.3     
  11 C11           -1.3461     1.8570     0.0771 C.ar    
  12 C12           -2.4973     1.0777    -0.0133 C.ar    
  13 C13           -3.7357     1.6962     0.0528 C.ar    
  14 C14           -3.7798     3.0731     0.2070 C.ar    
  15 C15           -2.5943     3.7855     0.2900 C.ar    
  16 N16           -1.4322     3.1725     0.2295 N.ar    
  17 C17           -2.6370     5.2826     0.4577 C.3     
  18 C18           -2.7717     6.1317    -0.8079 C.3     
  19 C19           -3.9576     5.9907     0.1485 C.3     
  20 H20            2.9194     1.6717     0.9231 H       
  21 H21            2.3435     0.2727    -0.0211 H       
  22 H22            3.6579     3.6929    -0.4235 H       
  23 H23            1.9213     4.8970    -1.5608 H       
  24 H24            1.4783     3.3821    -2.3847 H       
  25 H25           -0.0272     3.6982    -0.4959 H       
  26 H26            1.3521     3.9363     0.6093 H       
  27 H27            4.7097     0.2462    -1.0121 H       
  28 H28            5.2895     1.6700    -1.9093 H       
  29 H29            5.1314     1.7381    -0.1377 H       
  30 H30            1.6309     1.6186    -2.5951 H       
  31 H31            3.2454     1.6002    -3.3443 H       
  32 H32            2.6637     0.1764    -2.4485 H       
  33 H33           -2.4257     0.0068    -0.1335 H       
  34 H34           -4.6458     1.1186    -0.0147 H       
  35 H35           -4.7289     3.5856     0.2616 H       
  36 H36           -2.0293     5.6822     1.2696 H       
  37 H37           -2.2530     7.0901    -0.8285 H       
  38 H38           -2.8294     5.6075    -1.7618 H       
  39 H39           -4.7955     5.3737    -0.1762 H       
  40 H40           -4.2190     6.8563     0.7571 H       
  41 C41           11.4609    14.0783     7.4164 C.2     
  42 C42           11.4813    12.5715     7.4081 C.3     
  43 O43           12.4990    14.6966     7.4098 O.2     
  44 O44           10.2895    14.7336     7.4255 O.3     
  45 F45           12.8065    12.1232     7.3930 F       
  46 F46           10.8392    12.0901     8.5540 F       
  47 F47           10.8174    12.1024     6.2696 F       
  48 H48           10.3270    15.6999     7.4306 H       
@<TRIPOS>BOND
   1    1    2 2
   2    1    3 am
   3    1   11 1
   4    3    4 1
   5    3    8 1
   6    4    5 1
   7    4   20 1
   8    4   21 1
   9    5    6 1
  10    5    9 1
  11    5   10 1
  12    6    7 1
  13    6   22 1
  14    7    8 1
  15    7   23 1
  16    7   24 1
  17    8   25 1
  18    8   26 1
  19    9   27 1
  20    9   28 1
  21    9   29 1
  22   10   30 1
  23   10   31 1
  24   10   32 1
  25   11   12 ar
  26   11   16 ar
  27   12   13 ar
  28   12   33 1
  29   13   14 ar
  30   13   34 1
  31   14   15 ar
  32   14   35 1
  33   15   16 ar
  34   15   17 1
  35   17   18 1
  36   17   19 1
  37   17   36 1
  38   18   19 1
  39   18   37 1
  40   18   38 1
  41   19   39 1
  42   19   40 1
  43   41   42 1
  44   41   43 2
  45   41   44 1
  46   42   45 1
  47   42   46 1
  48   42   47 1
  49   44   48 1

#	End of record

