#	Name: ASD01940628
#	Creating user name:	WinNT
#	Creation time:	15. 06. 2019 20:12

#	Modifying user name:	WinNT
#	Modification time:	15. 06. 2019 20:12

#	Program:	/corina/corina34_cracker 3.40 0067  02.08.2006

@<TRIPOS>MOLECULE
ASD01940628
  49   51    0    0    0
SMALL
NO_CHARGES


@<TRIPOS>ATOM
   1 C1            -0.4323     1.1697     0.1020 C.ar    
   2 C2            -0.8715    -0.1309     0.3945 C.ar    
   3 C3             0.0539    -1.1433     0.5835 C.ar    
   4 C4             1.4102    -0.8770     0.4855 C.ar    
   5 C5             1.8555     0.4022     0.1979 C.ar    
   6 C6             0.9455     1.4304     0.0041 C.ar    
   7 N7             1.3937     2.7133    -0.2849 N.pl3   
   8 C8             2.4952     3.2398     0.3983 C.ar    
   9 C9             3.0634     2.5346     1.4503 C.ar    
  10 C10            4.1512     3.0570     2.1233 C.ar    
  11 C11            4.6750     4.2815     1.7507 C.ar    
  12 C12            4.1121     4.9883     0.7026 C.ar    
  13 C13            3.0272     4.4689     0.0212 C.ar    
  14 F14            2.4809     5.1562    -1.0057 F       
  15 I15            6.3240     5.0684     2.7756 I       
  16 F16            2.3044    -1.8723     0.6722 F       
  17 C17           -1.4067     2.2506    -0.1064 C.2     
  18 O18           -1.8159     2.8921     0.8428 O.2     
  19 N19           -1.8467     2.5308    -1.3491 N.am    
  20 O20           -2.1982    -0.3950     0.4921 O.3     
  21 C21           -2.5815    -1.6904     0.6477 C.ar    
  22 C22           -2.6970    -2.2360     1.9247 C.ar    
  23 C23           -3.0889    -3.5581     2.0771 C.ar    
  24 C24           -3.3635    -4.3298     0.9638 C.ar    
  25 C25           -3.2482    -3.7879    -0.3030 C.ar    
  26 C26           -2.8637    -2.4694    -0.4627 C.ar    
  27 N27           -2.4181    -1.4528     3.0502 N.am    
  28 S28           -3.3428    -0.1195     3.3809 S.o2    
  29 N29           -4.8892    -0.6491     3.6467 N.am    
  30 O30           -2.8762     0.3950     4.6206 O.2     
  31 O31           -3.3816     0.6485     2.1859 O.2     
  32 C32           -3.2148    -4.1527     3.4561 C.3     
  33 H33           -0.2828    -2.1445     0.8086 H       
  34 H34            2.9148     0.5997     0.1243 H       
  35 H35            0.9430     3.2439    -0.9603 H       
  36 H36            2.6552     1.5784     1.7427 H       
  37 H37            4.5930     2.5084     2.9420 H       
  38 H38            4.5231     5.9444     0.4141 H       
  39 H39           -1.5205     2.0193    -2.1060 H       
  40 H40           -2.4897     3.2440    -1.4867 H       
  41 H41           -3.6685    -5.3589     1.0837 H       
  42 H42           -3.4631    -4.3949    -1.1700 H       
  43 H43           -2.7789    -2.0479    -1.4534 H       
  44 H44           -1.6830    -1.6908     3.6366 H       
  45 H45           -5.0799    -1.6000     3.6638 H       
  46 H46           -5.6042    -0.0084     3.7853 H       
  47 H47           -4.2286    -4.0002     3.8264 H       
  48 H48           -3.0009    -5.2206     3.4122 H       
  49 H49           -2.5060    -3.6675     4.1271 H       
@<TRIPOS>BOND
   1    1    2 ar
   2    1    6 ar
   3    1   17 1
   4    2    3 ar
   5    2   20 1
   6    3    4 ar
   7    3   33 1
   8    4    5 ar
   9    4   16 1
  10    5    6 ar
  11    5   34 1
  12    6    7 1
  13    7    8 1
  14    7   35 1
  15    8    9 ar
  16    8   13 ar
  17    9   10 ar
  18    9   36 1
  19   10   11 ar
  20   10   37 1
  21   11   12 ar
  22   11   15 1
  23   12   13 ar
  24   12   38 1
  25   13   14 1
  26   17   18 2
  27   17   19 am
  28   19   39 1
  29   19   40 1
  30   20   21 1
  31   21   22 ar
  32   21   26 ar
  33   22   23 ar
  34   22   27 1
  35   23   24 ar
  36   23   32 1
  37   24   25 ar
  38   24   41 1
  39   25   26 ar
  40   25   42 1
  41   26   43 1
  42   27   28 am
  43   27   44 1
  44   28   29 am
  45   28   30 2
  46   28   31 2
  47   29   45 1
  48   29   46 1
  49   32   47 1
  50   32   48 1
  51   32   49 1

#	End of record

