#	Name: ASD00170902
#	Creating user name:	WinNT
#	Creation time:	15. 06. 2019 18:32

#	Modifying user name:	WinNT
#	Modification time:	15. 06. 2019 18:32

#	Program:	/corina/corina34_cracker 3.40 0067  02.08.2006

@<TRIPOS>MOLECULE
ASD00170902
  62   62    0    0    0
SMALL
NO_CHARGES


@<TRIPOS>ATOM
   1 C1            -0.0167     1.3784     0.0096 C.ar    
   2 C2             0.0021    -0.0041     0.0020 C.ar    
   3 C3             1.2070    -0.6796    -0.0132 C.ar    
   4 C4             2.3989     0.0304    -0.0208 C.ar    
   5 C5             2.3774     1.4175    -0.0131 C.ar    
   6 C6             1.1698     2.0883     0.0021 C.ar    
   7 Sn7           -1.8940     2.4262     0.0242 Du      
   8 C8            -2.5102     2.7644     2.0561 C.3     
   9 C9            -3.8462     3.5100     2.0665 C.3     
  10 C10           -4.2847     3.7507     3.5124 C.3     
  11 C11           -5.6207     4.4963     3.5228 C.3     
  12 C12           -1.6691     4.3138    -0.9801 C.3     
  13 C13           -0.6116     5.1522    -0.2593 C.3     
  14 C14           -0.4515     6.4955    -0.9740 C.3     
  15 C15            0.6061     7.3339    -0.2532 C.3     
  16 C16           -3.3802     1.2481    -0.9887 C.3     
  17 C17           -3.5402    -0.0952    -0.2740 C.3     
  18 C18           -4.5978    -0.9336    -0.9948 C.3     
  19 C19           -4.7578    -2.2769    -0.2801 C.3     
  20 O20            3.5855    -0.6319    -0.0353 O.3     
  21 C21            4.7725     0.1638    -0.0424 C.3     
  22 C22            5.9992    -0.7504    -0.0585 C.3     
  23 O23            6.0294    -1.4854    -1.2836 O.3     
  24 C24            7.1421    -2.3743    -1.4008 C.3     
  25 H25           -0.9260    -0.5563     0.0083 H       
  26 H26            1.2211    -1.7595    -0.0187 H       
  27 H27            3.3039     1.9724    -0.0187 H       
  28 H28            1.1525     3.1682     0.0077 H       
  29 H29           -2.6243     1.8074     2.5652 H       
  30 H30           -1.7568     3.3617     2.5696 H       
  31 H31           -3.7322     4.4670     1.5573 H       
  32 H32           -4.5996     2.9127     1.5529 H       
  33 H33           -4.3987     2.7937     4.0216 H       
  34 H34           -3.5313     4.3480     4.0259 H       
  35 H35           -5.9331     4.6678     4.5529 H       
  36 H36           -5.5067     5.4533     3.0136 H       
  37 H37           -6.3741     3.8990     3.0092 H       
  38 H38           -1.3567     4.1423    -2.0102 H       
  39 H39           -2.6209     4.8450    -0.9727 H       
  40 H40           -0.9240     5.3237     0.7708 H       
  41 H41            0.3402     4.6210    -0.2667 H       
  42 H42           -0.1391     6.3240    -2.0042 H       
  43 H43           -1.4033     7.0267    -0.9667 H       
  44 H44            0.7201     8.2909    -0.7624 H       
  45 H45            0.2937     7.5054     0.7769 H       
  46 H46            1.5578     6.8027    -0.2606 H       
  47 H47           -4.3319     1.7792    -0.9813 H       
  48 H48           -3.0678     1.0766    -2.0188 H       
  49 H49           -2.5884    -0.6264    -0.2814 H       
  50 H50           -3.8526     0.0762     0.7561 H       
  51 H51           -5.5496    -0.4025    -0.9874 H       
  52 H52           -4.2854    -1.1051    -2.0249 H       
  53 H53           -3.8061    -2.8081    -0.2875 H       
  54 H54           -5.0702    -2.1055     0.7500 H       
  55 H55           -5.5113    -2.8742    -0.7936 H       
  56 H56            4.7798     0.7974    -0.9293 H       
  57 H57            4.7965     0.7884     0.8506 H       
  58 H58            6.9031    -0.1471     0.0256 H       
  59 H59            5.9462    -1.4444     0.7803 H       
  60 H60            7.0926    -2.8943    -2.3575 H       
  61 H61            8.0697    -1.8047    -1.3445 H       
  62 H62            7.1129    -3.1020    -0.5898 H       
@<TRIPOS>BOND
   1    1    2 ar
   2    1    6 ar
   3    1    7 1
   4    2    3 ar
   5    2   25 1
   6    3    4 ar
   7    3   26 1
   8    4    5 ar
   9    4   20 1
  10    5    6 ar
  11    5   27 1
  12    6   28 1
  13    7    8 1
  14    7   12 1
  15    7   16 1
  16    8    9 1
  17    8   29 1
  18    8   30 1
  19    9   10 1
  20    9   31 1
  21    9   32 1
  22   10   11 1
  23   10   33 1
  24   10   34 1
  25   11   35 1
  26   11   36 1
  27   11   37 1
  28   12   13 1
  29   12   38 1
  30   12   39 1
  31   13   14 1
  32   13   40 1
  33   13   41 1
  34   14   15 1
  35   14   42 1
  36   14   43 1
  37   15   44 1
  38   15   45 1
  39   15   46 1
  40   16   17 1
  41   16   47 1
  42   16   48 1
  43   17   18 1
  44   17   49 1
  45   17   50 1
  46   18   19 1
  47   18   51 1
  48   18   52 1
  49   19   53 1
  50   19   54 1
  51   19   55 1
  52   20   21 1
  53   21   22 1
  54   21   56 1
  55   21   57 1
  56   22   23 1
  57   22   58 1
  58   22   59 1
  59   23   24 1
  60   24   60 1
  61   24   61 1
  62   24   62 1

#	End of record

