#	Name: ASD07301565
#	Creating user name:	WinNT
#	Creation time:	15. 06. 2019 21:11

#	Modifying user name:	WinNT
#	Modification time:	15. 06. 2019 21:11

#	Program:	/corina/corina34_cracker 3.40 0067  02.08.2006

@<TRIPOS>MOLECULE
ASD07301565
  24   25    0    0    0
SMALL
NO_CHARGES


@<TRIPOS>ATOM
   1 C1            -0.0170     1.4022     0.0098 C.2     
   2 C2             0.0021    -0.0041     0.0020 C.2     
   3 C3             1.1986    -0.6567    -0.0129 C.2     
   4 C4             2.3899     0.0815    -0.0203 C.2     
   5 C5             2.3506     1.4337    -0.0122 C.2     
   6 N6             1.1615     2.0921     0.0022 N.pl3   
   7 N7            -1.0227     2.2759     0.0294 N.2     
   8 C8            -0.5457     3.5106     0.0288 C.2     
   9 C9             0.8407     3.4388     0.0125 C.2     
  10 C10            1.7455     4.5255     0.0097 C.2     
  11 O11            1.3249     5.6677     0.0199 O.2     
  12 O12            3.0758     4.2961    -0.0041 O.3     
  13 Cl13          -1.4899     4.9672     0.0501 Cl      
  14 C14            3.9314     5.4406    -0.0061 C.3     
  15 C15            5.3920     4.9854    -0.0224 C.3     
  16 H16           -0.9228    -0.5617     0.0082 H       
  17 H17            1.2285    -1.7363    -0.0186 H       
  18 H18            3.3410    -0.4300    -0.0322 H       
  19 H19            3.2729     1.9956    -0.0173 H       
  20 H20            3.7290     6.0441    -0.8909 H       
  21 H21            3.7459     6.0345     0.8889 H       
  22 H22            5.5944     4.3819     0.8625 H       
  23 H23            5.5775     4.3915    -0.9174 H       
  24 H24            6.0447     5.8584    -0.0239 H       
@<TRIPOS>BOND
   1    1    2 1
   2    1    6 1
   3    1    7 2
   4    2    3 2
   5    2   16 1
   6    3    4 1
   7    3   17 1
   8    4    5 2
   9    4   18 1
  10    5    6 1
  11    5   19 1
  12    6    9 1
  13    7    8 1
  14    8    9 2
  15    8   13 1
  16    9   10 1
  17   10   11 2
  18   10   12 1
  19   12   14 1
  20   14   15 1
  21   14   20 1
  22   14   21 1
  23   15   22 1
  24   15   23 1
  25   15   24 1

#	End of record

