#	Name: ASD01884827
#	Creating user name:	WinNT
#	Creation time:	15. 06. 2019 19:48

#	Modifying user name:	WinNT
#	Modification time:	15. 06. 2019 19:48

#	Program:	/corina/corina34_cracker 3.40 0067  02.08.2006

@<TRIPOS>MOLECULE
ASD01884827
  37   40    0    0    0
SMALL
NO_CHARGES


@<TRIPOS>ATOM
   1 C1            -0.0173     1.4248     0.0099 C.3     
   2 O2             0.0021    -0.0041     0.0020 O.3     
   3 C3            -1.1984    -0.6365     0.0101 C.ar    
   4 C4            -1.2431    -2.0223     0.0088 C.ar    
   5 C5            -2.4852    -2.6586     0.0177 C.ar    
   6 C6            -3.6364    -1.8637     0.0275 C.ar    
   7 C7            -3.5048    -0.4914     0.0280 C.ar    
   8 N8            -2.3132     0.0763     0.0246 N.ar    
   9 C9            -2.5822    -4.1391     0.0162 C.2     
  10 C10           -3.7723    -4.8865     0.0189 C.2     
  11 C11           -3.4368    -6.2079     0.0164 C.2     
  12 N12           -4.2303    -7.3462     0.0167 N.am    
  13 C13           -5.6889    -7.2089     0.0213 C.3     
  14 C14           -3.6789    -8.5773     0.0124 C.2     
  15 O15           -4.3806    -9.5711     0.0119 O.2     
  16 C16           -2.2096    -8.6948     0.0079 C.ar    
  17 C17           -1.5833    -9.9397     0.0028 C.ar    
  18 C18           -0.2058   -10.0089    -0.0017 C.ar    
  19 C19            0.5541    -8.8499    -0.0008 C.ar    
  20 C20           -0.0545    -7.6104     0.0041 C.ar    
  21 C21           -1.4386    -7.5214     0.0083 C.ar    
  22 N22           -2.0772    -6.2855     0.0123 N.pl3   
  23 N23           -1.5681    -4.9789     0.0066 N.2     
  24 H24            1.0053     1.8021     0.0021 H       
  25 H25           -0.5445     1.7859    -0.8732 H       
  26 H26           -0.5275     1.7763     0.9067 H       
  27 H27           -0.3309    -2.6003     0.0008 H       
  28 H28           -4.6155    -2.3193     0.0341 H       
  29 H29           -4.3895     0.1280     0.0352 H       
  30 H30           -4.7750    -4.4852     0.0228 H       
  31 H31           -6.0537    -7.1730    -1.0053 H       
  32 H32           -6.1325    -8.0619     0.5349 H       
  33 H33           -5.9657    -6.2897     0.5376 H       
  34 H34           -2.1729   -10.8446     0.0029 H       
  35 H35            0.2834   -10.9718    -0.0056 H       
  36 H36            1.6320    -8.9168    -0.0036 H       
  37 H37            0.5458    -6.7126     0.0051 H       
@<TRIPOS>BOND
   1    1    2 1
   2    1   24 1
   3    1   25 1
   4    1   26 1
   5    2    3 1
   6    3    8 ar
   7    3    4 ar
   8    4    5 ar
   9    4   27 1
  10    5    6 ar
  11    5    9 1
  12    6    7 ar
  13    6   28 1
  14    7    8 ar
  15    7   29 1
  16    9   23 2
  17    9   10 1
  18   10   11 2
  19   10   30 1
  20   11   22 1
  21   11   12 1
  22   12   13 1
  23   12   14 am
  24   13   31 1
  25   13   32 1
  26   13   33 1
  27   14   15 2
  28   14   16 1
  29   16   21 ar
  30   16   17 ar
  31   17   18 ar
  32   17   34 1
  33   18   19 ar
  34   18   35 1
  35   19   20 ar
  36   19   36 1
  37   20   21 ar
  38   20   37 1
  39   21   22 1
  40   22   23 1

#	End of record

