#	Name: ASD01230229
#	Creating user name:	WinNT
#	Creation time:	15. 06. 2019 19:12

#	Modifying user name:	WinNT
#	Modification time:	15. 06. 2019 19:12

#	Program:	/corina/corina34_cracker 3.40 0067  02.08.2006

@<TRIPOS>MOLECULE
ASD01230229
  44   47    0    0    0
SMALL
NO_CHARGES


@<TRIPOS>ATOM
   1 S1            -0.0204     1.6504     0.0111 S.o2    
   2 N2             0.0021    -0.0041     0.0020 N.am    
   3 C3             1.0230    -0.6873    -0.4557 C.2     
   4 N4             2.1689    -0.1518    -0.9712 N.pl3   
   5 C5             2.3935     1.2854    -1.1472 C.3     
   6 C6             1.7501     2.0749    -0.0035 C.3     
   7 C7             0.8952    -2.1590    -0.3951 C.2     
   8 C8             1.9454    -2.9419    -0.8226 C.2     
   9 C9             3.1046    -2.3189    -1.3055 C.2     
  10 C10            3.1912    -0.9791    -1.3650 C.2     
  11 C11           -0.3451    -2.7835     0.1187 C.ar    
  12 C12           -0.3146    -3.5356     1.2936 C.ar    
  13 C13           -1.4717    -4.1153     1.7693 C.ar    
  14 C14           -2.6661    -3.9517     1.0806 C.ar    
  15 C15           -2.7004    -3.2040    -0.0888 C.ar    
  16 C16           -1.5484    -2.6165    -0.5675 C.ar    
  17 O17           -3.8044    -4.5252     1.5520 O.3     
  18 C18           -4.9978    -4.3167     0.7942 C.3     
  19 C19           -6.1484    -5.0221     1.4648 C.ar    
  20 C20           -6.9085    -4.3593     2.4100 C.ar    
  21 C21           -7.9657    -5.0074     3.0256 C.ar    
  22 C22           -8.2603    -6.3191     2.6935 C.ar    
  23 C23           -7.4990    -6.9796     1.7483 C.ar    
  24 C24           -6.4467    -6.3296     1.1303 C.ar    
  25 F25           -8.7091    -4.3607     3.9500 F       
  26 O26           -0.6346     2.0065    -1.2198 O.2     
  27 O27           -0.6110     1.9932     1.2573 O.2     
  28 H28            3.4654     1.4826    -1.1617 H       
  29 H29            1.9572     1.6041    -2.0939 H       
  30 H30            1.8743     3.1442    -0.1745 H       
  31 H31            2.2074     1.7939     0.9452 H       
  32 H32            1.8766    -4.0190    -0.7858 H       
  33 H33            3.9378    -2.9227    -1.6334 H       
  34 H34            4.1024    -0.5350    -1.7377 H       
  35 H35            0.6143    -3.6639     1.8295 H       
  36 H36           -1.4488    -4.6976     2.6786 H       
  37 H37           -3.6313    -3.0789    -0.6219 H       
  38 H38           -1.5766    -2.0316    -1.4750 H       
  39 H39           -5.2099    -3.2491     0.7367 H       
  40 H40           -4.8639    -4.7152    -0.2115 H       
  41 H41           -6.6776    -3.3365     2.6685 H       
  42 H42           -9.0846    -6.8258     3.1734 H       
  43 H43           -7.7286    -8.0026     1.4891 H       
  44 H44           -5.8549    -6.8452     0.3884 H       
@<TRIPOS>BOND
   1    1    2 am
   2    1    6 1
   3    1   26 2
   4    1   27 2
   5    2    3 2
   6    3    4 1
   7    3    7 1
   8    4    5 1
   9    4   10 1
  10    5    6 1
  11    5   28 1
  12    5   29 1
  13    6   30 1
  14    6   31 1
  15    7    8 2
  16    7   11 1
  17    8    9 1
  18    8   32 1
  19    9   10 2
  20    9   33 1
  21   10   34 1
  22   11   12 ar
  23   11   16 ar
  24   12   13 ar
  25   12   35 1
  26   13   14 ar
  27   13   36 1
  28   14   15 ar
  29   14   17 1
  30   15   16 ar
  31   15   37 1
  32   16   38 1
  33   17   18 1
  34   18   19 1
  35   18   39 1
  36   18   40 1
  37   19   20 ar
  38   19   24 ar
  39   20   21 ar
  40   20   41 1
  41   21   22 ar
  42   21   25 1
  43   22   23 ar
  44   22   42 1
  45   23   24 ar
  46   23   43 1
  47   24   44 1

#	End of record

