#	Name: ASD01030005
#	Creating user name:	WinNT
#	Creation time:	15. 06. 2019 18:58

#	Modifying user name:	WinNT
#	Modification time:	15. 06. 2019 18:58

#	Program:	/corina/corina34_cracker 3.40 0067  02.08.2006

@<TRIPOS>MOLECULE
ASD01030005
  59   58    0    0    0
SMALL
NO_CHARGES


@<TRIPOS>ATOM
   1 C1             2.8815     2.4759    -3.0894 C.2     
   2 C2             2.6805     0.9824    -3.1022 C.3     
   3 C3             3.9326     0.2946    -2.5544 C.3     
   4 C4             3.7285    -1.2217    -2.5674 C.3     
   5 C5             4.9806    -1.9095    -2.0196 C.3     
   6 C6             4.7765    -3.4258    -2.0325 C.3     
   7 C7             6.0286    -4.1136    -1.4848 C.3     
   8 C8             5.8245    -5.6299    -1.4977 C.3     
   9 C9             7.0578    -6.3074    -0.9582 C.2     
  10 C10            6.9600    -7.1422     0.0466 C.2     
  11 C11            8.1933    -7.8197     0.5862 C.3     
  12 C12            8.3076    -7.5500     2.0879 C.3     
  13 C13            9.4799    -8.3485     2.6616 C.3     
  14 C14            9.5182    -8.1774     4.1815 C.3     
  15 C15           10.6905    -8.9758     4.7552 C.3     
  16 C16           10.7289    -8.8048     6.2751 C.3     
  17 C17           11.9012    -9.6032     6.8488 C.3     
  18 C18           11.9395    -9.4322     8.3687 C.3     
  19 O19            3.9197     2.9423    -2.6839 O.2     
  20 O20            1.9093     3.2878    -3.5338 O.3     
  21 O21            8.5292    -6.1553     2.3059 O.3     
  22 S22            7.3536    -5.4350     2.9507 S.o2    
  23 O23            7.6728    -4.0504     2.9331 O.2     
  24 O24            6.1797    -5.9696     2.3546 O.2     
  25 O25            7.3193    -5.8496     4.4147 O.3     
  26 H26            1.8233     0.7259    -2.4797 H       
  27 H27            2.5003     0.6488    -4.1241 H       
  28 H28            4.7898     0.5511    -3.1769 H       
  29 H29            4.1128     0.6282    -1.5325 H       
  30 H30            2.8713    -1.4782    -1.9449 H       
  31 H31            3.5483    -1.5553    -3.5893 H       
  32 H32            5.8378    -1.6530    -2.6421 H       
  33 H33            5.1608    -1.5759    -0.9977 H       
  34 H34            3.9193    -3.6823    -1.4101 H       
  35 H35            4.5963    -3.7594    -3.0544 H       
  36 H36            6.8858    -3.8571    -2.1073 H       
  37 H37            6.2088    -3.7800    -0.4629 H       
  38 H38            4.9673    -5.8864    -0.8752 H       
  39 H39            5.6443    -5.9636    -2.5196 H       
  40 H40            8.0222    -6.1047    -1.4000 H       
  41 H41            5.9955    -7.3448     0.4884 H       
  42 H42            8.1225    -8.8937     0.4142 H       
  43 H43            9.0746    -7.4277     0.0785 H       
  44 H44            7.3849    -7.8530     2.5827 H       
  45 H45            9.3549    -9.4034     2.4177 H       
  46 H46           10.4128    -7.9841     2.2313 H       
  47 H47            9.6432    -7.1224     4.4254 H       
  48 H48            8.5854    -8.5417     4.6117 H       
  49 H49           10.5656   -10.0308     4.5113 H       
  50 H50           11.6234    -8.6115     4.3249 H       
  51 H51           10.8538    -7.7498     6.5190 H       
  52 H52            9.7960    -9.1691     6.7053 H       
  53 H53           11.7762   -10.6582     6.6049 H       
  54 H54           12.8340    -9.2389     6.4185 H       
  55 H55           12.0645    -8.3772     8.6126 H       
  56 H56           11.0066    -9.7965     8.7989 H       
  57 H57           12.7746   -10.0010     8.7774 H       
  58 H58            2.0844     4.2384    -3.5061 H       
  59 H59            6.6023    -5.4446     4.9215 H       
@<TRIPOS>BOND
   1    1    2 1
   2    1   19 2
   3    1   20 1
   4    2    3 1
   5    2   26 1
   6    2   27 1
   7    3    4 1
   8    3   28 1
   9    3   29 1
  10    4    5 1
  11    4   30 1
  12    4   31 1
  13    5    6 1
  14    5   32 1
  15    5   33 1
  16    6    7 1
  17    6   34 1
  18    6   35 1
  19    7    8 1
  20    7   36 1
  21    7   37 1
  22    8    9 1
  23    8   38 1
  24    8   39 1
  25    9   10 2
  26    9   40 1
  27   10   11 1
  28   10   41 1
  29   11   12 1
  30   11   42 1
  31   11   43 1
  32   12   13 1
  33   12   21 1
  34   12   44 1
  35   13   14 1
  36   13   45 1
  37   13   46 1
  38   14   15 1
  39   14   47 1
  40   14   48 1
  41   15   16 1
  42   15   49 1
  43   15   50 1
  44   16   17 1
  45   16   51 1
  46   16   52 1
  47   17   18 1
  48   17   53 1
  49   17   54 1
  50   18   55 1
  51   18   56 1
  52   18   57 1
  53   20   58 1
  54   21   22 1
  55   22   23 2
  56   22   24 2
  57   22   25 1
  58   25   59 1

#	End of record

