#	Name: ASD08070649
#	Creating user name:	WinNT
#	Creation time:	15. 06. 2019 21:15

#	Modifying user name:	WinNT
#	Modification time:	15. 06. 2019 21:15

#	Program:	/corina/corina34_cracker 3.40 0067  02.08.2006

@<TRIPOS>MOLECULE
ASD08070649
  35   35    0    0    0
SMALL
NO_CHARGES


@<TRIPOS>ATOM
   1 C1            -0.0179     1.4718     0.0101 C.2     
   2 C2             0.0021    -0.0041     0.0020 C.ar    
   3 C3             1.2207    -0.6881    -0.0133 C.ar    
   4 C4             1.2349    -2.0658    -0.0209 C.ar    
   5 C5             0.0383    -2.7752    -0.0133 C.ar    
   6 C6            -1.1747    -2.0980     0.0019 C.ar    
   7 C7            -1.1970    -0.7207     0.0154 C.ar    
   8 O8             1.0266     2.0940     0.0035 O.2     
   9 N9            -1.1942     2.1298     0.0193 N.am    
  10 C10            0.2626     3.7309    -1.9835 C.3     
  11 C11           -1.1021     4.1141    -1.4074 C.3     
  12 C12           -1.2140     3.5946     0.0273 C.3     
  13 C13           -2.5253     4.0835     0.6459 C.3     
  14 C14           -2.5802     3.6698     2.1179 C.3     
  15 O15            0.0558    -4.1324    -0.0213 O.3     
  16 C16           -1.2089    -4.7976    -0.0128 C.3     
  17 Cl17           2.7476    -2.9173    -0.0405 Cl      
  18 H18            2.1499    -0.1376    -0.0195 H       
  19 H19           -2.1016    -2.6523     0.0074 H       
  20 H20           -2.1405    -0.1955     0.0317 H       
  21 H21           -2.0275     1.6334     0.0205 H       
  22 H22            1.0511     4.1730    -1.3744 H       
  23 H23            0.3665     2.6459    -1.9808 H       
  24 H24            0.3424     4.1010    -3.0056 H       
  25 H25           -1.2059     5.1991    -1.4101 H       
  26 H26           -1.8906     3.6720    -2.0164 H       
  27 H27           -0.3744     3.9661     0.6148 H       
  28 H28           -2.5794     5.1696     0.5714 H       
  29 H29           -3.3661     3.6403     0.1123 H       
  30 H30           -2.5261     2.5837     2.1923 H       
  31 H31           -1.7394     4.1130     2.6514 H       
  32 H32           -3.5144     4.0181     2.5585 H       
  33 H33           -1.7609    -4.5171     0.8842 H       
  34 H34           -1.7783    -4.5069    -0.8956 H       
  35 H35           -1.0521    -5.8762    -0.0205 H       
@<TRIPOS>BOND
   1    1    2 1
   2    1    8 2
   3    1    9 am
   4    2    3 ar
   5    2    7 ar
   6    3    4 ar
   7    3   18 1
   8    4    5 ar
   9    4   17 1
  10    5    6 ar
  11    5   15 1
  12    6    7 ar
  13    6   19 1
  14    7   20 1
  15    9   12 1
  16    9   21 1
  17   10   11 1
  18   10   22 1
  19   10   23 1
  20   10   24 1
  21   11   12 1
  22   11   25 1
  23   11   26 1
  24   12   13 1
  25   12   27 1
  26   13   14 1
  27   13   28 1
  28   13   29 1
  29   14   30 1
  30   14   31 1
  31   14   32 1
  32   15   16 1
  33   16   33 1
  34   16   34 1
  35   16   35 1

#	End of record

