#	Name: ASD03331458
#	Creating user name:	WinNT
#	Creation time:	15. 06. 2019 20:39

#	Modifying user name:	WinNT
#	Modification time:	15. 06. 2019 20:39

#	Program:	/corina/corina34_cracker 3.40 0067  02.08.2006

@<TRIPOS>MOLECULE
ASD03331458
  56   59    0    0    0
SMALL
NO_CHARGES


@<TRIPOS>ATOM
   1 N1             0.0545     1.4378    -0.0239 N.pl3   
   2 C2            -0.0594     0.0929    -0.0398 C.2     
   3 C3             1.2089    -0.4481    -0.0062 C.2     
   4 C4             2.1221     0.6384     0.0316 C.2     
   5 C5             1.3861     1.7790     0.0198 C.2     
   6 C6             1.5506    -1.8793    -0.0086 C.2     
   7 O7             0.6684    -2.7147    -0.0428 O.2     
   8 O8             2.8419    -2.2639     0.0271 O.3     
   9 C9             1.9250     3.1558     0.0489 C.ar    
  10 C10            2.8920     3.5105     0.9923 C.ar    
  11 C11            3.3913     4.7973     1.0138 C.ar    
  12 C12            2.9348     5.7350     0.1029 C.ar    
  13 C13            1.9764     5.3886    -0.8343 C.ar    
  14 C14            1.4739     4.1041    -0.8696 C.ar    
  15 Cl15           3.5664     7.3517     0.1366 Cl      
  16 Cl16           3.4641     2.3360     2.1356 Cl      
  17 C17           -1.0147     2.3433    -0.0534 C.ar    
  18 C18           -1.3019     3.1167     1.0634 C.ar    
  19 C19           -2.3562     4.0083     1.0319 C.ar    
  20 C20           -3.1261     4.1311    -0.1114 C.ar    
  21 C21           -2.8419     3.3614    -1.2258 C.ar    
  22 C22           -1.7851     2.4725    -1.2012 C.ar    
  23 Cl23          -4.4510     5.2523    -0.1477 Cl      
  24 C24           -1.3501    -0.6838    -0.0855 C.3     
  25 C25           -1.7439    -0.9332    -1.5428 C.3     
  26 C26           -3.0542    -1.7217    -1.5892 C.3     
  27 O27           -3.4220    -1.9547    -2.9502 O.3     
  28 C28           -4.6387    -2.6878    -3.1062 C.3     
  29 C29           -4.9281    -2.8745    -4.5733 C.ar    
  30 C30           -4.4438    -3.9860    -5.2374 C.ar    
  31 C31           -4.7093    -4.1573    -6.5831 C.ar    
  32 C32           -5.4593    -3.2172    -7.2648 C.ar    
  33 C33           -5.9444    -2.1062    -6.6006 C.ar    
  34 C34           -5.6826    -1.9371    -5.2538 C.ar    
  35 H35            3.1995     0.5704     0.0641 H       
  36 H36            3.0170    -3.2149     0.0239 H       
  37 H37            4.1390     5.0733     1.7426 H       
  38 H38            1.6241     6.1245    -1.5419 H       
  39 H39            0.7296     3.8344    -1.6042 H       
  40 H40           -0.7016     3.0209     1.9560 H       
  41 H41           -2.5802     4.6098     1.9004 H       
  42 H42           -3.4441     3.4590    -2.1169 H       
  43 H43           -1.5609     1.8752    -2.0727 H       
  44 H44           -1.2179    -1.6384     0.4236 H       
  45 H45           -2.1353    -0.1131     0.4105 H       
  46 H46           -1.8761     0.0215    -2.0519 H       
  47 H47           -0.9587    -1.5038    -2.0388 H       
  48 H48           -2.9220    -2.6764    -1.0800 H       
  49 H49           -3.8394    -1.1511    -1.0932 H       
  50 H50           -4.5394    -3.6625    -2.6285 H       
  51 H51           -5.4567    -2.1372    -2.6417 H       
  52 H52           -3.8578    -4.7204    -4.7048 H       
  53 H53           -4.3303    -5.0253    -7.1021 H       
  54 H54           -5.6661    -3.3507    -8.3164 H       
  55 H55           -6.5301    -1.3716    -7.1332 H       
  56 H56           -6.0646    -1.0709    -4.7340 H       
@<TRIPOS>BOND
   1    1    2 1
   2    1    5 1
   3    1   17 1
   4    2    3 2
   5    2   24 1
   6    3    4 1
   7    3    6 1
   8    4    5 2
   9    4   35 1
  10    5    9 1
  11    6    7 2
  12    6    8 1
  13    8   36 1
  14    9   10 ar
  15    9   14 ar
  16   10   11 ar
  17   10   16 1
  18   11   12 ar
  19   11   37 1
  20   12   13 ar
  21   12   15 1
  22   13   14 ar
  23   13   38 1
  24   14   39 1
  25   17   18 ar
  26   17   22 ar
  27   18   19 ar
  28   18   40 1
  29   19   20 ar
  30   19   41 1
  31   20   21 ar
  32   20   23 1
  33   21   22 ar
  34   21   42 1
  35   22   43 1
  36   24   25 1
  37   24   44 1
  38   24   45 1
  39   25   26 1
  40   25   46 1
  41   25   47 1
  42   26   27 1
  43   26   48 1
  44   26   49 1
  45   27   28 1
  46   28   29 1
  47   28   50 1
  48   28   51 1
  49   29   30 ar
  50   29   34 ar
  51   30   31 ar
  52   30   52 1
  53   31   32 ar
  54   31   53 1
  55   32   33 ar
  56   32   54 1
  57   33   34 ar
  58   33   55 1
  59   34   56 1

#	End of record

