#	Name: ASD02500093
#	Creating user name:	WinNT
#	Creation time:	15. 06. 2019 20:22

#	Modifying user name:	WinNT
#	Modification time:	15. 06. 2019 20:22

#	Program:	/corina/corina34_cracker 3.40 0067  02.08.2006

@<TRIPOS>MOLECULE
ASD02500093
  62   66    0    0    0
SMALL
NO_CHARGES


@<TRIPOS>ATOM
   1 N1            -1.4832     4.3178     1.7167 N.ar    
   2 C2            -2.2843     4.4991     2.7382 C.ar    
   3 C3            -2.1709     3.7420     3.9025 C.ar    
   4 C4            -1.2054     2.7809     3.9992 C.ar    
   5 C5            -0.3471     2.5887     2.9001 C.ar    
   6 C6             0.6689     1.6202     2.9264 C.ar    
   7 C7             1.4789     1.4651     1.8428 C.ar    
   8 C8             1.3134     2.2555     0.7076 C.ar    
   9 C9             0.3388     3.2038     0.6480 C.ar    
  10 C10           -0.5174     3.3939     1.7464 C.ar    
  11 S11            0.1519     4.1901    -0.8001 S.o2    
  12 O12            0.0603     5.5377    -0.3586 O.2     
  13 O13            1.1347     3.7394    -1.7221 O.2     
  14 N14           -1.3184     3.8141    -1.4628 N.am    
  15 C15           -1.5738     2.5185    -1.8983 C.ar    
  16 C16           -2.7687     1.8934    -1.5542 C.ar    
  17 C17           -3.0245     0.6097    -1.9837 C.ar    
  18 C18           -2.0811    -0.0647    -2.7671 C.ar    
  19 C19           -0.8824     0.5675    -3.1106 C.ar    
  20 C20           -0.6361     1.8517    -2.6823 C.ar    
  21 Cl21          -4.5145    -0.1703    -1.5534 Cl      
  22 C22           -2.3504    -1.4389    -3.2286 C.2     
  23 O23           -3.4152    -1.7071    -3.7512 O.2     
  24 N24           -1.4165    -2.3979    -3.0713 N.am    
  25 C25           -0.1694    -2.1245    -2.3410 C.3     
  26 C26            0.0222    -3.2137    -1.2802 C.3     
  27 N27           -0.0459    -4.5339    -1.9207 N.3     
  28 C28           -1.3687    -4.7707    -2.5140 C.3     
  29 C29           -1.6201    -3.7472    -3.6201 C.3     
  30 C30            0.2867    -5.5483    -1.0155 C.ar    
  31 C31            1.5819    -5.6353    -0.5086 C.ar    
  32 C32            1.9051    -6.6406     0.3870 C.ar    
  33 C33            0.9439    -7.5559     0.7763 C.ar    
  34 C34           -0.3407    -7.4707     0.2737 C.ar    
  35 C35           -0.6733    -6.4661    -0.6163 C.ar    
  36 O36            2.5262    -4.7351    -0.8930 O.3     
  37 C37            3.8322    -4.8856    -0.3326 C.3     
  38 H38           -3.0525     5.2556     2.6759 H       
  39 H39           -2.8456     3.9154     4.7278 H       
  40 H40           -1.1030     2.1852     4.8942 H       
  41 H41            0.8074     1.0020     3.8010 H       
  42 H42            2.2603     0.7199     1.8639 H       
  43 H43            1.9692     2.1138    -0.1387 H       
  44 H44           -2.0014     4.4977    -1.5473 H       
  45 H45           -3.4958     2.4151    -0.9496 H       
  46 H46           -0.1521     0.0498    -3.7147 H       
  47 H47            0.2880     2.3418    -2.9513 H       
  48 H48            0.6713    -2.1370    -3.0347 H       
  49 H49           -0.2344    -1.1498    -1.8575 H       
  50 H50            0.9948    -3.0903    -0.8038 H       
  51 H51           -0.7639    -3.1326    -0.5295 H       
  52 H52           -1.4049    -5.7766    -2.9324 H       
  53 H53           -2.1355    -4.6680    -1.7461 H       
  54 H54           -2.6437    -3.8447    -3.9818 H       
  55 H55           -0.9215    -3.9186    -4.4390 H       
  56 H56            2.9081    -6.7102     0.7814 H       
  57 H57            1.1981    -8.3396     1.4747 H       
  58 H58           -1.0877    -8.1881     0.5800 H       
  59 H59           -1.6790    -6.3991    -1.0040 H       
  60 H60            4.4865    -4.1054    -0.7214 H       
  61 H61            3.7736    -4.8033     0.7527 H       
  62 H62            4.2325    -5.8631    -0.6017 H       
@<TRIPOS>BOND
   1    1    2 ar
   2    1   10 ar
   3    2    3 ar
   4    2   38 1
   5    3    4 ar
   6    3   39 1
   7    4    5 ar
   8    4   40 1
   9    5    6 ar
  10    5   10 ar
  11    6    7 ar
  12    6   41 1
  13    7    8 ar
  14    7   42 1
  15    8    9 ar
  16    8   43 1
  17    9   10 ar
  18    9   11 1
  19   11   12 2
  20   11   13 2
  21   11   14 am
  22   14   15 1
  23   14   44 1
  24   15   16 ar
  25   15   20 ar
  26   16   17 ar
  27   16   45 1
  28   17   18 ar
  29   17   21 1
  30   18   19 ar
  31   18   22 1
  32   19   20 ar
  33   19   46 1
  34   20   47 1
  35   22   23 2
  36   22   24 am
  37   24   25 1
  38   24   29 1
  39   25   26 1
  40   25   48 1
  41   25   49 1
  42   26   27 1
  43   26   50 1
  44   26   51 1
  45   27   28 1
  46   27   30 1
  47   28   29 1
  48   28   52 1
  49   28   53 1
  50   29   54 1
  51   29   55 1
  52   30   31 ar
  53   30   35 ar
  54   31   32 ar
  55   31   36 1
  56   32   33 ar
  57   32   56 1
  58   33   34 ar
  59   33   57 1
  60   34   35 ar
  61   34   58 1
  62   35   59 1
  63   36   37 1
  64   37   60 1
  65   37   61 1
  66   37   62 1

#	End of record

