#	Name: ASD01900597
#	Creating user name:	WinNT
#	Creation time:	15. 06. 2019 19:52

#	Modifying user name:	WinNT
#	Modification time:	15. 06. 2019 19:52

#	Program:	/corina/corina34_cracker 3.40 0067  02.08.2006

@<TRIPOS>MOLECULE
ASD01900597
  40   43    0    0    0
SMALL
NO_CHARGES


@<TRIPOS>ATOM
   1 C1            -0.0165     1.3646     0.0095 C.2     
   2 N2             0.0021    -0.0041     0.0020 N.pl3   
   3 C3             1.3258    -0.3942    -0.0127 C.ar    
   4 C4             2.0842     0.7909    -0.0136 C.ar    
   5 N5             1.2098     1.8250     0.0003 N.2     
   6 C6             3.4808     0.7128    -0.0269 C.ar    
   7 C7             4.0942    -0.5076    -0.0390 C.ar    
   8 C8             3.3460    -1.6763    -0.0381 C.ar    
   9 C9             1.9680    -1.6247    -0.0251 C.ar    
  10 S10            5.8537    -0.5988    -0.0563 S.o2    
  11 O11            6.1337    -1.8492    -0.6706 O.2     
  12 O12            6.2619     0.6214    -0.6594 O.2     
  13 C13            6.3226    -0.6310     1.6957 C.3     
  14 C14            7.8230    -0.7094     1.8128 C.ar    
  15 C15            8.5740     0.4524     1.8720 C.ar    
  16 C16            9.9522     0.3814     1.9791 C.ar    
  17 C17           10.5794    -0.8513     2.0275 C.ar    
  18 C18            9.8264    -2.0140     1.9686 C.ar    
  19 C19            8.4480    -1.9408     1.8668 C.ar    
  20 F20           10.4375    -3.2179     2.0158 F       
  21 F21           11.9245    -0.9217     2.1316 F       
  22 F22            7.9614     1.6556     1.8247 F       
  23 C23           -1.2387     2.1991     0.0201 C.ar    
  24 C24           -1.1272     3.5890     0.0271 C.ar    
  25 C25           -2.2797     4.3559     0.0364 C.ar    
  26 C26           -3.5065     3.7078     0.0384 C.ar    
  27 C27           -3.5437     2.3247     0.0311 C.ar    
  28 N28           -2.4326     1.6183     0.0172 N.ar    
  29 H29           -0.7708    -0.5902     0.0065 H       
  30 H30            4.0731     1.6159    -0.0281 H       
  31 H31            3.8465    -2.6333    -0.0481 H       
  32 H32            1.3911    -2.5376    -0.0242 H       
  33 H33            5.9670     0.2764     2.1838 H       
  34 H34            5.8747    -1.5012     2.1757 H       
  35 H35           10.5379     1.2876     2.0245 H       
  36 H36            7.8610    -2.8464     1.8253 H       
  37 H37           -0.1556     4.0605     0.0256 H       
  38 H38           -2.2250     5.4345     0.0423 H       
  39 H39           -4.4239     4.2777     0.0460 H       
  40 H40           -4.4972     1.8175     0.0327 H       
@<TRIPOS>BOND
   1    1    2 1
   2    1    5 2
   3    1   23 1
   4    2    3 1
   5    2   29 1
   6    3    4 ar
   7    3    9 ar
   8    4    5 1
   9    4    6 ar
  10    6    7 ar
  11    6   30 1
  12    7    8 ar
  13    7   10 1
  14    8    9 ar
  15    8   31 1
  16    9   32 1
  17   10   11 2
  18   10   12 2
  19   10   13 1
  20   13   14 1
  21   13   33 1
  22   13   34 1
  23   14   15 ar
  24   14   19 ar
  25   15   16 ar
  26   15   22 1
  27   16   17 ar
  28   16   35 1
  29   17   18 ar
  30   17   21 1
  31   18   19 ar
  32   18   20 1
  33   19   36 1
  34   23   24 ar
  35   23   28 ar
  36   24   25 ar
  37   24   37 1
  38   25   26 ar
  39   25   38 1
  40   26   27 ar
  41   26   39 1
  42   27   28 ar
  43   27   40 1

#	End of record

