#	Name: ASD01411149
#	Creating user name:	WinNT
#	Creation time:	15. 06. 2019 19:19

#	Modifying user name:	WinNT
#	Modification time:	15. 06. 2019 19:19

#	Program:	/corina/corina34_cracker 3.40 0067  02.08.2006

@<TRIPOS>MOLECULE
ASD01411149
  44   47    0    0    0
SMALL
NO_CHARGES


@<TRIPOS>ATOM
   1 C1            -0.0166     1.3732     0.0096 C.ar    
   2 C2             0.0021    -0.0041     0.0020 C.ar    
   3 C3             1.2222    -0.6870    -0.0128 C.ar    
   4 C4             2.4223     0.0378    -0.0204 C.ar    
   5 C5             2.3856     1.4307    -0.0130 C.ar    
   6 C6             1.1690     2.0904     0.0021 C.ar    
   7 C7             1.2465    -2.1606    -0.0200 C.2     
   8 O8             3.5448     2.1417    -0.0198 O.3     
   9 C9             3.4321     3.5662    -0.0116 C.3     
  10 C10            4.8089     4.1791    -0.0208 C.ar    
  11 C11            5.4531     4.4488     1.1722 C.ar    
  12 C12            5.4294     4.4661    -1.2223 C.ar    
  13 C13            6.6920     5.0281    -1.2314 C.ar    
  14 C14            7.3350     5.3035    -0.0377 C.ar    
  15 C15            6.7158     5.0108     1.1644 C.ar    
  16 Cl16           8.9209     6.0095    -0.0484 Cl      
  17 O17            0.0908    -2.8535    -0.0122 O.3     
  18 O18            2.3086    -2.7507    -0.0329 O.2     
  19 N19            3.6446    -0.6309    -0.0347 N.am    
  20 C20            4.3835    -1.0355    -1.2361 C.3     
  21 C21            5.6362    -1.7207    -0.7503 C.ar    
  22 C22            4.3442    -1.0067     1.0498 C.2     
  23 C23            6.7021    -2.3040    -1.3954 C.ar    
  24 C24            7.7316    -2.8670    -0.6600 C.ar    
  25 C25            7.6915    -2.8452     0.7232 C.ar    
  26 C26            6.6273    -2.2633     1.3800 C.ar    
  27 C27            5.5858    -1.6927     0.6454 C.ar    
  28 O28            4.0014    -0.8114     2.1996 O.2     
  29 H29           -0.9609     1.8972     0.0169 H       
  30 H30           -0.9259    -0.5566     0.0079 H       
  31 H31            1.1436     3.1701     0.0081 H       
  32 H32            2.8833     3.8924    -0.8950 H       
  33 H33            2.8992     3.8834     0.8848 H       
  34 H34            4.9695     4.2206     2.1105 H       
  35 H35            4.9275     4.2507    -2.1541 H       
  36 H36            7.1768     5.2520    -2.1702 H       
  37 H37            7.2189     5.2218     2.0965 H       
  38 H38            0.1573    -3.8182    -0.0174 H       
  39 H39            3.7845    -1.7265    -1.8293 H       
  40 H40            4.6423    -0.1586    -1.8297 H       
  41 H41            6.7359    -2.3231    -2.4747 H       
  42 H42            8.5680    -3.3247    -1.1673 H       
  43 H43            8.4973    -3.2863     1.2911 H       
  44 H44            6.5998    -2.2488     2.4595 H       
@<TRIPOS>BOND
   1    1    2 ar
   2    1    6 ar
   3    1   29 1
   4    2    3 ar
   5    2   30 1
   6    3    4 ar
   7    3    7 1
   8    4    5 ar
   9    4   19 1
  10    5    6 ar
  11    5    8 1
  12    6   31 1
  13    7   17 1
  14    7   18 2
  15    8    9 1
  16    9   10 1
  17    9   32 1
  18    9   33 1
  19   10   12 ar
  20   10   11 ar
  21   11   15 ar
  22   11   34 1
  23   12   13 ar
  24   12   35 1
  25   13   14 ar
  26   13   36 1
  27   14   15 ar
  28   14   16 1
  29   15   37 1
  30   17   38 1
  31   19   20 1
  32   19   22 am
  33   20   21 1
  34   20   39 1
  35   20   40 1
  36   21   23 ar
  37   21   27 ar
  38   22   28 2
  39   22   27 1
  40   23   24 ar
  41   23   41 1
  42   24   25 ar
  43   24   42 1
  44   25   26 ar
  45   25   43 1
  46   26   27 ar
  47   26   44 1

#	End of record

