#	Name: ASD01120305
#	Creating user name:	WinNT
#	Creation time:	15. 06. 2019 18:59

#	Modifying user name:	WinNT
#	Modification time:	15. 06. 2019 18:59

#	Program:	/corina/corina34_cracker 3.40 0067  02.08.2006

@<TRIPOS>MOLECULE
ASD01120305
  33   35    0    0    0
SMALL
NO_CHARGES


@<TRIPOS>ATOM
   1 Cl1           -0.0147    -0.0014     0.2229 Cl      
   2 C2            -0.0331     1.7336     0.1682 C.ar    
   3 C3            -0.9684     2.4380     0.9059 C.ar    
   4 C4            -0.9856     3.8182     0.8640 C.ar    
   5 C5            -0.0626     4.4996     0.0806 C.ar    
   6 C6             0.8754     3.7899    -0.6585 C.ar    
   7 C7             0.8913     2.4099    -0.6086 C.ar    
   8 N8            -0.0779     5.8964     0.0359 N.pl3   
   9 C9            -1.2892     6.5767    -0.0540 C.ar    
  10 C10           -2.4663     5.8790    -0.2556 C.ar    
  11 C11           -3.6748     6.5536    -0.3456 C.ar    
  12 C12           -3.7255     7.9262    -0.2363 C.ar    
  13 C13           -2.5568     8.6546    -0.0326 C.ar    
  14 C14           -1.3251     7.9793     0.0656 C.ar    
  15 C15           -0.3289     8.9602     0.2687 C.2     
  16 C16           -0.9413    10.1752     0.2911 C.2     
  17 N17           -2.3018     9.9982     0.1119 N.pl3   
  18 C18           -0.2679    11.4647     0.4796 C.2     
  19 O19            0.9378    11.5044     0.6329 O.2     
  20 O20           -0.9860    12.6064     0.4829 O.3     
  21 N21           -5.0253     8.6277    -0.3361 N.pl3   
  22 O22           -6.0485     7.9916    -0.5147 O.2     
  23 O23           -5.0715     9.8410    -0.2396 O.2     
  24 H24           -1.6857     1.9078     1.5148 H       
  25 H25           -1.7162     4.3674     1.4393 H       
  26 H26            1.5940     4.3170    -1.2687 H       
  27 H27            1.6205     1.8576    -1.1827 H       
  28 H28            0.7554     6.3918     0.0674 H       
  29 H29           -2.4442     4.8029    -0.3438 H       
  30 H30           -4.5865     5.9967    -0.5035 H       
  31 H31            0.7293     8.7783     0.3857 H       
  32 H32           -2.9654    10.7053     0.0877 H       
  33 H33           -0.4982    13.4315     0.6106 H       
@<TRIPOS>BOND
   1    1    2 1
   2    2    3 ar
   3    2    7 ar
   4    3    4 ar
   5    3   24 1
   6    4    5 ar
   7    4   25 1
   8    5    6 ar
   9    5    8 1
  10    6    7 ar
  11    6   26 1
  12    7   27 1
  13    8    9 1
  14    8   28 1
  15    9   10 ar
  16    9   14 ar
  17   10   11 ar
  18   10   29 1
  19   11   12 ar
  20   11   30 1
  21   12   13 ar
  22   12   21 1
  23   13   14 ar
  24   13   17 1
  25   14   15 1
  26   15   16 2
  27   15   31 1
  28   16   17 1
  29   16   18 1
  30   17   32 1
  31   18   19 2
  32   18   20 1
  33   20   33 1
  34   21   22 2
  35   21   23 2

#	End of record

