#	Name: ASD03730709
#	Creating user name:	WinNT
#	Creation time:	15. 06. 2019 20:44

#	Modifying user name:	WinNT
#	Modification time:	15. 06. 2019 20:44

#	Program:	/corina/corina34_cracker 3.40 0067  02.08.2006

@<TRIPOS>MOLECULE
ASD03730709
  65   71    0    0    0
SMALL
NO_CHARGES


@<TRIPOS>ATOM
   1 C1             1.3669    -1.2415    -2.5550 C.2     
   2 C2             0.7528    -1.4888    -1.2334 C.ar    
   3 C3             1.4886    -1.2724    -0.0669 C.ar    
   4 C4             0.9095    -1.5052     1.1632 C.ar    
   5 C5            -0.3977    -1.9523     1.2425 C.ar    
   6 C6            -1.1323    -2.1688     0.0905 C.ar    
   7 C7            -0.5670    -1.9343    -1.1461 C.ar    
   8 O8             2.4854    -0.7709    -2.6270 O.2     
   9 N9             0.6889    -1.5429    -3.6802 N.am    
  10 C10            2.9124    -0.7859    -0.1514 C.3     
  11 O11            1.4113    -3.3893     6.3801 O.3     
  12 C12            1.6253    -3.4756     7.8013 C.3     
  13 O13            3.0571    -3.4084     7.9365 O.3     
  14 C14            3.4948    -2.7082     6.8489 C.ar    
  15 C15            2.4827    -2.6977     5.8918 C.ar    
  16 C16            4.6942    -2.0676     6.5944 C.ar    
  17 C17            4.9002    -1.4113     5.3846 C.ar    
  18 C18            3.8848    -1.4148     4.4331 C.ar    
  19 C19            2.6856    -2.0474     4.6862 C.ar    
  20 O20            5.9864    -0.7132     4.9454 O.3     
  21 C21            4.4111    -0.6603     3.2415 C.3     
  22 C22            5.9198    -0.5829     3.5122 C.3     
  23 N23            3.4078    -0.4891     1.1950 N.am    
  24 C24            4.1096    -1.3598     1.9475 C.2     
  25 C25            3.7955     0.7012     3.1105 C.ar    
  26 C26            3.7262     1.7979     3.9404 C.ar    
  27 C27            3.0702     2.9423     3.5232 C.ar    
  28 C28            2.4840     2.9819     2.2711 C.ar    
  29 C29            2.5500     1.8857     1.4366 C.ar    
  30 C30            3.2085     0.7296     1.8481 C.ar    
  31 O31            4.4342    -2.4872     1.6396 O.2     
  32 C32            1.2535    -1.2720    -4.9306 C.ar    
  33 C33            0.6194    -1.7032    -6.0889 C.ar    
  34 C34            1.1796    -1.4342    -7.3219 C.ar    
  35 C35            2.3711    -0.7367    -7.4045 C.ar    
  36 C36            3.0048    -0.3061    -6.2536 C.ar    
  37 C37            2.4466    -0.5666    -5.0173 C.ar    
  38 C38           -0.6784    -2.4641    -5.9998 C.3     
  39 C39           -1.8431    -1.4766    -5.9052 C.3     
  40 H40            1.4777    -1.3385     2.0664 H       
  41 H41           -0.8462    -2.1334     2.2081 H       
  42 H42           -2.1521    -2.5178     0.1593 H       
  43 H43           -1.1432    -2.0991    -2.0446 H       
  44 H44           -0.1908    -1.9476    -3.6226 H       
  45 H45            3.5338    -1.5580    -0.6052 H       
  46 H46            2.9523     0.1171    -0.7605 H       
  47 H47            1.1526    -2.6363     8.3114 H       
  48 H48            1.2480    -4.4221     8.1886 H       
  49 H49            5.4759    -2.0768     7.3395 H       
  50 H50            1.9029    -2.0358     3.9421 H       
  51 H51            6.3218     0.3782     3.1917 H       
  52 H52            6.4433    -1.4049     3.0241 H       
  53 H53            4.1845     1.7647     4.9178 H       
  54 H54            3.0164     3.8029     4.1735 H       
  55 H55            1.9719     3.8752     1.9455 H       
  56 H56            2.0893     1.9240     0.4605 H       
  57 H57            0.6871    -1.7691    -8.2228 H       
  58 H58            2.8075    -0.5282    -8.3702 H       
  59 H59            3.9353     0.2380    -6.3215 H       
  60 H60            2.9396    -0.2258    -4.1188 H       
  61 H61           -0.7982    -3.0833    -6.8887 H       
  62 H62           -0.6673    -3.0988    -5.1137 H       
  63 H63           -1.7233    -0.8574    -5.0163 H       
  64 H64           -1.8542    -0.8419    -6.7913 H       
  65 H65           -2.7818    -2.0270    -5.8408 H       
@<TRIPOS>BOND
   1    1    2 1
   2    1    8 2
   3    1    9 am
   4    2    3 ar
   5    2    7 ar
   6    3    4 ar
   7    3   10 1
   8    4    5 ar
   9    4   40 1
  10    5    6 ar
  11    5   41 1
  12    6    7 ar
  13    6   42 1
  14    7   43 1
  15    9   32 1
  16    9   44 1
  17   10   23 1
  18   10   45 1
  19   10   46 1
  20   11   12 1
  21   11   15 1
  22   12   13 1
  23   12   47 1
  24   12   48 1
  25   13   14 1
  26   14   15 ar
  27   14   16 ar
  28   15   19 ar
  29   16   17 ar
  30   16   49 1
  31   17   18 ar
  32   17   20 1
  33   18   19 ar
  34   18   21 1
  35   19   50 1
  36   20   22 1
  37   21   22 1
  38   21   24 1
  39   21   25 1
  40   22   51 1
  41   22   52 1
  42   23   24 am
  43   23   30 1
  44   24   31 2
  45   25   26 ar
  46   25   30 ar
  47   26   27 ar
  48   26   53 1
  49   27   28 ar
  50   27   54 1
  51   28   29 ar
  52   28   55 1
  53   29   30 ar
  54   29   56 1
  55   32   33 ar
  56   32   37 ar
  57   33   34 ar
  58   33   38 1
  59   34   35 ar
  60   34   57 1
  61   35   36 ar
  62   35   58 1
  63   36   37 ar
  64   36   59 1
  65   37   60 1
  66   38   39 1
  67   38   61 1
  68   38   62 1
  69   39   63 1
  70   39   64 1
  71   39   65 1

#	End of record

