#	Name: ASD06020202
#	Creating user name:	WinNT
#	Creation time:	15. 06. 2019 21:04

#	Modifying user name:	WinNT
#	Modification time:	15. 06. 2019 21:04

#	Program:	/corina/corina34_cracker 3.40 0067  02.08.2006

@<TRIPOS>MOLECULE
ASD06020202
  23   25    0    0    0
SMALL
NO_CHARGES


@<TRIPOS>ATOM
   1 C1            -0.0168     1.3862     0.0097 C.ar    
   2 C2             0.0021    -0.0041     0.0020 C.ar    
   3 C3             1.2315    -0.6797    -0.0134 C.ar    
   4 C4             2.4021     0.1157    -0.0204 C.ar    
   5 C5             2.2881     1.4719    -0.0120 C.ar    
   6 N6             1.1085     2.0698     0.0026 N.ar    
   7 S7            -1.2871    -1.2024     0.0074 S.3     
   8 C8            -0.0971    -2.4976    -0.0112 C.2     
   9 N9             1.0991    -2.0068    -0.0197 N.2     
  10 C10           -0.4184    -3.9403    -0.0159 C.ar    
  11 C11           -1.7497    -4.3626    -0.0058 C.ar    
  12 C12           -2.0424    -5.7123    -0.0103 C.ar    
  13 C13           -1.0209    -6.6449    -0.0242 C.ar    
  14 C14            0.2999    -6.2339    -0.0343 C.ar    
  15 C15            0.6076    -4.8876    -0.0363 C.ar    
  16 Cl16           2.2658    -4.3741    -0.0562 Cl      
  17 Cl17          -3.0332    -3.1940     0.0129 Cl      
  18 H18           -0.9616     1.9093     0.0170 H       
  19 H19            3.3768    -0.3492    -0.0318 H       
  20 H20            3.1838     2.0753    -0.0173 H       
  21 H21           -3.0713    -6.0404    -0.0025 H       
  22 H22           -1.2557    -7.6991    -0.0269 H       
  23 H23            1.0923    -6.9677    -0.0448 H       
@<TRIPOS>BOND
   1    1    2 ar
   2    1    6 ar
   3    1   18 1
   4    2    3 ar
   5    2    7 1
   6    3    4 ar
   7    3    9 1
   8    4    5 ar
   9    4   19 1
  10    5    6 ar
  11    5   20 1
  12    7    8 1
  13    8    9 2
  14    8   10 1
  15   10   11 ar
  16   10   15 ar
  17   11   12 ar
  18   11   17 1
  19   12   13 ar
  20   12   21 1
  21   13   14 ar
  22   13   22 1
  23   14   15 ar
  24   14   23 1
  25   15   16 1

#	End of record

