#	Name: ASD01813040
#	Creating user name:	WinNT
#	Creation time:	15. 06. 2019 19:29

#	Modifying user name:	WinNT
#	Modification time:	15. 06. 2019 19:29

#	Program:	/corina/corina34_cracker 3.40 0067  02.08.2006

@<TRIPOS>MOLECULE
ASD01813040
  58   61    0    0    0
SMALL
NO_CHARGES


@<TRIPOS>ATOM
   1 N1            -0.0017     1.2871    -0.4623 N.ar    
   2 C2             0.0257    -0.0232    -0.6107 C.ar    
   3 C3             1.2273    -0.7127    -0.6595 C.ar    
   4 C4             2.4058    -0.0100    -0.5508 C.ar    
   5 C5             2.3577     1.3801    -0.3943 C.ar    
   6 C6             1.1041     2.0059    -0.3536 C.ar    
   7 C7             3.8627    -0.3887    -0.5585 C.3     
   8 N8             4.6116     0.8640    -0.3983 N.am    
   9 C9             3.7369     1.8813    -0.3041 C.2     
  10 C10            6.0707     0.9857    -0.3487 C.3     
  11 C11            6.6056     1.1872    -1.7431 C.ar    
  12 O12            1.0244     3.3494    -0.2031 O.3     
  13 O13            4.0432     3.0497    -0.1645 O.2     
  14 C14            6.7507     2.4651    -2.2588 C.ar    
  15 N15            7.2163     2.6541    -3.4742 N.ar    
  16 C16            7.5644     1.6370    -4.2525 C.ar    
  17 C17            7.4451     0.3252    -3.7991 C.ar    
  18 C18            6.9626     0.0962    -2.5202 C.ar    
  19 C19           -0.2844     3.9220    -0.1703 C.3     
  20 C20            8.0837     1.8990    -5.6153 C.2     
  21 C21           -0.2687     5.1810     0.6990 C.3     
  22 C22           -1.6700     5.7941     0.7341 C.3     
  23 C23           -2.1019     6.1610    -0.6870 C.3     
  24 C24           -2.1177     4.9020    -1.5563 C.3     
  25 C25           -0.7164     4.2889    -1.5915 C.3     
  26 C26           -3.5033     6.7741    -0.6519 C.3     
  27 F27            0.1263     4.8454     1.9985 F       
  28 C28           -3.4534     8.1191     0.0757 C.3     
  29 F29           -2.4854     8.9354    -0.5190 F       
  30 F30           -4.7036     8.7413    -0.0082 F       
  31 F31           -3.1257     7.9103     1.4197 F       
  32 O32            8.4039     0.9715    -6.3321 O.2     
  33 N33            8.2010     3.1659    -6.0597 N.am    
  34 C34            8.7145     3.4249    -7.4071 C.3     
  35 H35           -0.9031    -0.5678    -0.6953 H       
  36 H36            1.2385    -1.7858    -0.7806 H       
  37 H37            4.0790    -1.0633     0.2699 H       
  38 H38            4.1220    -0.8619    -1.5056 H       
  39 H39            6.3432     1.8393     0.2719 H       
  40 H40            6.4968     0.0768     0.0761 H       
  41 H41            6.4773     3.3175    -1.6546 H       
  42 H42            7.7284    -0.5015    -4.4338 H       
  43 H43            6.8634    -0.9094    -2.1392 H       
  44 H44           -0.9863     3.2005     0.2479 H       
  45 H45            0.4332     5.9025     0.2808 H       
  46 H46           -2.3719     5.0725     1.1523 H       
  47 H47           -1.6588     6.6910     1.3534 H       
  48 H48           -1.4001     6.8825    -1.1052 H       
  49 H49           -2.8196     4.1805    -1.1382 H       
  50 H50           -2.4254     5.1635    -2.5688 H       
  51 H51           -0.0145     5.0105    -2.0097 H       
  52 H52           -0.7276     3.3921    -2.2108 H       
  53 H53           -3.8594     6.9253    -1.6709 H       
  54 H54           -4.1810     6.1015    -0.1262 H       
  55 H55            7.9455     3.9063    -5.4875 H       
  56 H56            8.7372     4.4997    -7.5869 H       
  57 H57            9.7228     3.0204    -7.4957 H       
  58 H58            8.0657     2.9473    -8.1413 H       
@<TRIPOS>BOND
   1    1    2 ar
   2    1    6 ar
   3    2    3 ar
   4    2   35 1
   5    3    4 ar
   6    3   36 1
   7    4    7 1
   8    4    5 ar
   9    5    6 ar
  10    5    9 1
  11    6   12 1
  12    7    8 1
  13    7   37 1
  14    7   38 1
  15    8    9 am
  16    8   10 1
  17    9   13 2
  18   10   11 1
  19   10   39 1
  20   10   40 1
  21   11   14 ar
  22   11   18 ar
  23   12   19 1
  24   14   15 ar
  25   14   41 1
  26   15   16 ar
  27   16   17 ar
  28   16   20 1
  29   17   18 ar
  30   17   42 1
  31   18   43 1
  32   19   21 1
  33   19   25 1
  34   19   44 1
  35   20   32 2
  36   20   33 am
  37   21   22 1
  38   21   27 1
  39   21   45 1
  40   22   23 1
  41   22   46 1
  42   22   47 1
  43   23   24 1
  44   23   26 1
  45   23   48 1
  46   24   25 1
  47   24   49 1
  48   24   50 1
  49   25   51 1
  50   25   52 1
  51   26   28 1
  52   26   53 1
  53   26   54 1
  54   28   29 1
  55   28   30 1
  56   28   31 1
  57   33   34 1
  58   33   55 1
  59   34   56 1
  60   34   57 1
  61   34   58 1

#	End of record

