#	Name: ASD03331902
#	Creating user name:	WinNT
#	Creation time:	15. 06. 2019 20:40

#	Modifying user name:	WinNT
#	Modification time:	15. 06. 2019 20:40

#	Program:	/corina/corina34_cracker 3.40 0067  02.08.2006

@<TRIPOS>MOLECULE
ASD03331902
  60   62    0    0    0
SMALL
NO_CHARGES


@<TRIPOS>ATOM
   1 C1            -0.0618     2.0063     1.7855 C.2     
   2 N2            -0.1512     0.7152     2.2015 N.pl3   
   3 C3             1.0654     0.1333     1.9952 C.2     
   4 N4             1.8789     1.0316     1.4912 N.2     
   5 C5             1.2147     2.1999     1.3521 C.2     
   6 C6             1.7715     3.4582     0.8249 C.2     
   7 O7             1.0698     4.4485     0.7476 O.2     
   8 N8             3.0585     3.5116     0.4284 N.am    
   9 C9             3.6122     4.7627    -0.0958 C.3     
  10 C10            3.3004     4.8720    -1.5896 C.3     
  11 C11            4.0051     3.7414    -2.3418 C.3     
  12 C12            5.1053     4.7755     0.1080 C.2     
  13 C13            1.7895     4.7634    -1.8046 C.3     
  14 C14            3.7948     6.2207    -2.1164 C.3     
  15 O15            5.6879     3.7493     0.3881 O.2     
  16 N16            5.7932     5.9273    -0.0210 N.am    
  17 C17            7.2528     5.9267     0.1039 C.3     
  18 C18           -1.3431     0.0888     2.7800 C.3     
  19 C19           -2.5601     0.4318     1.9152 C.3     
  20 C20           -3.1673     1.7518     2.3794 C.3     
  21 N21           -2.1316     2.6671     2.8627 N.3     
  22 C22           -1.1827     3.0133     1.7940 C.3     
  23 C23           -2.7282     3.8750     3.4485 C.3     
  24 C24            1.4101    -1.2744     2.2901 C.ar    
  25 C25            2.0957    -2.0416     1.3454 C.ar    
  26 C26            1.0568    -1.8404     3.5157 C.ar    
  27 C27            1.3811    -3.1536     3.7858 C.ar    
  28 C28            2.0558    -3.9118     2.8451 C.ar    
  29 C29            2.4149    -3.3577     1.6292 C.ar    
  30 F30            2.4458    -1.5003     0.1581 F       
  31 Cl31           3.2606    -4.3171     0.4553 Cl      
  32 H32            3.6182     2.7218     0.4900 H       
  33 H33            3.1663     5.6062     0.4312 H       
  34 H34            3.6529     2.7805    -1.9666 H       
  35 H35            3.7830     3.8193    -3.4061 H       
  36 H36            5.0815     3.8188    -2.1887 H       
  37 H37            1.2874     5.5689    -1.2687 H       
  38 H38            1.5673     4.8413    -2.8688 H       
  39 H39            1.4373     3.8025    -1.4293 H       
  40 H40            4.8394     6.3589    -1.8376 H       
  41 H41            3.7026     6.2426    -3.2023 H       
  42 H42            3.1945     7.0216    -1.6846 H       
  43 H43            5.3218     6.7567    -0.1966 H       
  44 H44            7.6824     5.2766    -0.6583 H       
  45 H45            7.6293     6.9409    -0.0293 H       
  46 H46            7.5328     5.5621     1.0922 H       
  47 H47           -1.2091    -0.9925     2.8081 H       
  48 H48           -1.4974     0.4643     3.7915 H       
  49 H49           -2.2511     0.5214     0.8738 H       
  50 H50           -3.3033    -0.3605     2.0049 H       
  51 H51           -3.6941     2.2159     1.5457 H       
  52 H52           -3.8756     1.5561     3.1845 H       
  53 H53           -0.7771     4.0087     1.9751 H       
  54 H54           -1.6950     2.9966     0.8321 H       
  55 H55           -3.3662     3.5951     4.2868 H       
  56 H56           -1.9370     4.5375     3.7993 H       
  57 H57           -3.3242     4.3885     2.6940 H       
  58 H58            0.5305    -1.2510     4.2519 H       
  59 H59            1.1079    -3.5914     4.7346 H       
  60 H60            2.3072    -4.9394     3.0627 H       
@<TRIPOS>BOND
   1    1    2 1
   2    1    5 2
   3    1   22 1
   4    2    3 1
   5    2   18 1
   6    3    4 2
   7    3   24 1
   8    4    5 1
   9    5    6 1
  10    6    7 2
  11    6    8 am
  12    8    9 1
  13    8   32 1
  14    9   10 1
  15    9   12 1
  16    9   33 1
  17   10   11 1
  18   10   13 1
  19   10   14 1
  20   11   34 1
  21   11   35 1
  22   11   36 1
  23   12   15 2
  24   12   16 am
  25   13   37 1
  26   13   38 1
  27   13   39 1
  28   14   40 1
  29   14   41 1
  30   14   42 1
  31   16   17 1
  32   16   43 1
  33   17   44 1
  34   17   45 1
  35   17   46 1
  36   18   19 1
  37   18   47 1
  38   18   48 1
  39   19   20 1
  40   19   49 1
  41   19   50 1
  42   20   21 1
  43   20   51 1
  44   20   52 1
  45   21   22 1
  46   21   23 1
  47   22   53 1
  48   22   54 1
  49   23   55 1
  50   23   56 1
  51   23   57 1
  52   24   25 ar
  53   24   26 ar
  54   25   30 1
  55   25   29 ar
  56   26   27 ar
  57   26   58 1
  58   27   28 ar
  59   27   59 1
  60   28   29 ar
  61   28   60 1
  62   29   31 1

#	End of record

