#	Name: ASD03330339
#	Creating user name:	WinNT
#	Creation time:	15. 06. 2019 20:37

#	Modifying user name:	WinNT
#	Modification time:	15. 06. 2019 20:37

#	Program:	/corina/corina34_cracker 3.40 0067  02.08.2006

@<TRIPOS>MOLECULE
ASD03330339
  66   69    0    0    0
SMALL
NO_CHARGES


@<TRIPOS>ATOM
   1 C1             0.4879     1.5002     0.2412 C.3     
   2 N2             0.3973     0.0334     0.1821 N.am    
   3 C3             1.0264    -0.6539    -0.9618 C.3     
   4 C4             2.3675     0.0010    -1.1848 C.2     
   5 N5             2.7625     1.1502    -0.5815 N.pl3   
   6 C6             1.9582     1.9116     0.3772 C.3     
   7 C7             3.3832    -0.4072    -1.9874 C.2     
   8 N8             4.3832     0.4958    -1.8731 N.2     
   9 C9             4.0165     1.4351    -1.0318 C.2     
  10 C10            4.8292     2.6075    -0.6391 C.ar    
  11 C11            5.9525     2.9630    -1.3861 C.ar    
  12 C12            3.3944    -1.6160    -2.8302 C.2     
  13 O13            2.4283    -2.3546    -2.8470 O.2     
  14 C14            4.4864    -3.1049    -4.4202 C.3     
  15 N15            4.4753    -1.9031    -3.5824 N.am    
  16 C16           -0.2409    -0.6620     1.1442 C.2     
  17 O17           -0.6628    -0.0891     2.1298 O.2     
  18 C18            6.7060     4.0577    -1.0149 C.ar    
  19 C19            6.3495     4.8021     0.0953 C.ar    
  20 C20            5.2367     4.4547     0.8402 C.ar    
  21 C21            4.4720     3.3654     0.4764 C.ar    
  22 C22            5.9100    -3.5389    -4.6571 C.2     
  23 C23            3.8169    -2.7978    -5.7613 C.3     
  24 C24           -0.4277    -2.1216     1.0009 C.ar    
  25 N25            6.1884    -4.8362    -4.8937 N.am    
  26 O26            6.8050    -2.7208    -4.6350 O.2     
  27 C27            7.5806    -5.2767    -5.0124 C.3     
  28 C28            4.5037    -1.5946    -6.4105 C.3     
  29 C29            3.9393    -4.0133    -6.6825 C.3     
  30 C30            2.3383    -2.4786    -5.5318 C.3     
  31 C31           -0.4711    -2.9371     2.1327 C.ar    
  32 C32           -0.5673    -2.6892    -0.2666 C.ar    
  33 C33           -0.7418    -4.0518    -0.3933 C.ar    
  34 C34           -0.7791    -4.8552     0.7325 C.ar    
  35 C35           -0.6462    -4.2983     1.9920 C.ar    
  36 H36            0.0734     1.9275    -0.6718 H       
  37 H37           -0.0730     1.8650     1.1016 H       
  38 H38            1.1620    -1.7108    -0.7322 H       
  39 H39            0.4053    -0.5420    -1.8506 H       
  40 H40            2.0586     2.9773     0.1713 H       
  41 H41            2.3029     1.7015     1.3896 H       
  42 H42            6.2320     2.3824    -2.2528 H       
  43 H43            3.9420    -3.9038    -3.9168 H       
  44 H44            5.2458    -1.3141    -3.5690 H       
  45 H45            7.5760     4.3338    -1.5922 H       
  46 H46            6.9427     5.6579     0.3820 H       
  47 H47            4.9636     5.0399     1.7059 H       
  48 H48            3.6035     3.0952     1.0587 H       
  49 H49            5.4671    -5.4782    -4.9853 H       
  50 H50            8.0592    -4.7499    -5.8379 H       
  51 H51            8.1111    -5.0582    -4.0856 H       
  52 H52            7.6072    -6.3497    -5.2020 H       
  53 H53            5.5571    -1.8221    -6.5739 H       
  54 H54            4.0267    -1.3759    -7.3659 H       
  55 H55            4.4165    -0.7287    -5.7542 H       
  56 H56            3.5425    -4.8937    -6.1770 H       
  57 H57            3.3744    -3.8341    -7.5973 H       
  58 H58            4.9881    -4.1779    -6.9294 H       
  59 H59            2.2511    -1.6127    -4.8756 H       
  60 H60            1.8613    -2.2599    -6.4872 H       
  61 H61            1.8490    -3.3358    -5.0693 H       
  62 H62           -0.3675    -2.5036     3.1165 H       
  63 H63           -0.5391    -2.0631    -1.1461 H       
  64 H64           -0.8500    -4.4923    -1.3735 H       
  65 H65           -0.9167    -5.9213     0.6278 H       
  66 H66           -0.6762    -4.9310     2.8668 H       
@<TRIPOS>BOND
   1    1    2 1
   2    1    6 1
   3    1   36 1
   4    1   37 1
   5    2    3 1
   6    2   16 am
   7    3    4 1
   8    3   38 1
   9    3   39 1
  10    4    5 1
  11    4    7 2
  12    5    6 1
  13    5    9 1
  14    6   40 1
  15    6   41 1
  16    7    8 1
  17    7   12 1
  18    8    9 2
  19    9   10 1
  20   10   11 ar
  21   10   21 ar
  22   11   18 ar
  23   11   42 1
  24   12   13 2
  25   12   15 am
  26   14   15 1
  27   14   22 1
  28   14   23 1
  29   14   43 1
  30   15   44 1
  31   16   17 2
  32   16   24 1
  33   18   19 ar
  34   18   45 1
  35   19   20 ar
  36   19   46 1
  37   20   21 ar
  38   20   47 1
  39   21   48 1
  40   22   25 am
  41   22   26 2
  42   23   28 1
  43   23   29 1
  44   23   30 1
  45   24   31 ar
  46   24   32 ar
  47   25   27 1
  48   25   49 1
  49   27   50 1
  50   27   51 1
  51   27   52 1
  52   28   53 1
  53   28   54 1
  54   28   55 1
  55   29   56 1
  56   29   57 1
  57   29   58 1
  58   30   59 1
  59   30   60 1
  60   30   61 1
  61   31   35 ar
  62   31   62 1
  63   32   33 ar
  64   32   63 1
  65   33   34 ar
  66   33   64 1
  67   34   35 ar
  68   34   65 1
  69   35   66 1

#	End of record

