#	Name: ASD02560115
#	Creating user name:	WinNT
#	Creation time:	15. 06. 2019 20:24

#	Modifying user name:	WinNT
#	Modification time:	15. 06. 2019 20:24

#	Program:	/corina/corina34_cracker 3.40 0067  02.08.2006

@<TRIPOS>MOLECULE
ASD02560115
  54   57    0    0    0
SMALL
NO_CHARGES


@<TRIPOS>ATOM
   1 N1             0.0900     1.3347     0.4012 N.2     
   2 N2            -0.1426     0.1334     0.2339 N.2     
   3 C3             1.5156     1.6314     0.2099 C.3     
   4 N4             2.1897     0.3102     0.2788 N.3     
   5 C5             1.0827    -0.6035    -0.1012 C.3     
   6 S6             1.1765    -2.1417     0.8557 S.3     
   7 C7             1.0330    -1.5653     2.5697 C.3     
   8 C8             1.0946    -2.7464     3.5037 C.2     
   9 O9             1.2227    -3.8668     3.0570 O.2     
  10 N10            1.0073    -2.5578     4.8353 N.am    
  11 Br11           1.8125     2.4607    -1.5477 Br      
  12 C12            3.2360     0.2352    -0.6380 C.ar    
  13 C13            1.0034    -3.6590     5.6993 C.ar    
  14 C14            0.3252    -3.5915     6.9104 C.ar    
  15 C15            0.3232    -4.6806     7.7606 C.ar    
  16 C16            0.9951    -5.8366     7.4071 C.ar    
  17 C17            1.6706    -5.9065     6.2028 C.ar    
  18 C18            1.6722    -4.8229     5.3457 C.ar    
  19 Br19          -0.5930    -2.0109     7.3945 Br      
  20 S20            0.9906    -7.2233     8.4942 S.o2    
  21 O21            2.1422    -7.9903     8.1709 O.2     
  22 O22            0.7376    -6.7120     9.7957 O.2     
  23 C23            4.3180     1.1381    -0.5592 C.ar    
  24 C24            3.2268    -0.7255    -1.6270 C.ar    
  25 C25            4.2672    -0.8091    -2.5472 C.ar    
  26 C26            5.3210     0.0520    -2.4973 C.ar    
  27 C27            5.3712     1.0426    -1.5020 C.ar    
  28 C28            6.4462     1.9453    -1.4268 C.ar    
  29 C29            6.4628     2.8929    -0.4500 C.ar    
  30 C30            5.4285     2.9831     0.4794 C.ar    
  31 C31            4.3699     2.1280     0.4345 C.ar    
  32 C32            6.4351    -0.0607    -3.5058 C.3     
  33 O33           -0.2130    -8.0795     8.1273 O.3     
  34 C34            7.5686    -0.9059    -2.9212 C.3     
  35 H35            1.8774     2.2840     1.0045 H       
  36 H36            1.1168    -0.8173    -1.1695 H       
  37 H37            1.8525    -0.8823     2.7932 H       
  38 H38            0.0827    -1.0478     2.7007 H       
  39 H39            0.9472    -1.6590     5.1949 H       
  40 H40           -0.2032    -4.6291     8.7022 H       
  41 H41            2.1942    -6.8108     5.9299 H       
  42 H42            2.1999    -4.8786     4.4051 H       
  43 H43            2.4029    -1.4211    -1.6880 H       
  44 H44            4.2388    -1.5698    -3.3133 H       
  45 H45            7.2549     1.8869    -2.1402 H       
  46 H46            7.2901     3.5850    -0.3942 H       
  47 H47            5.4657     3.7442     1.2448 H       
  48 H48            3.5752     2.2095     1.1613 H       
  49 H49            6.0583    -0.5349    -4.4120 H       
  50 H50            6.8102     0.9343    -3.7454 H       
  51 H51           -0.3099    -8.8746     8.6691 H       
  52 H52            7.9453    -0.4316    -2.0150 H       
  53 H53            7.1935    -1.9009    -2.6815 H       
  54 H54            8.3744    -0.9874    -3.6506 H       
@<TRIPOS>BOND
   1    1    2 2
   2    1    3 1
   3    2    5 1
   4    3    4 1
   5    3   11 1
   6    3   35 1
   7    4    5 1
   8    4   12 1
   9    5    6 1
  10    5   36 1
  11    6    7 1
  12    7    8 1
  13    7   37 1
  14    7   38 1
  15    8    9 2
  16    8   10 am
  17   10   13 1
  18   10   39 1
  19   12   23 ar
  20   12   24 ar
  21   13   14 ar
  22   13   18 ar
  23   14   15 ar
  24   14   19 1
  25   15   16 ar
  26   15   40 1
  27   16   17 ar
  28   16   20 1
  29   17   18 ar
  30   17   41 1
  31   18   42 1
  32   20   21 2
  33   20   22 2
  34   20   33 1
  35   23   27 ar
  36   23   31 ar
  37   24   25 ar
  38   24   43 1
  39   25   26 ar
  40   25   44 1
  41   26   27 ar
  42   26   32 1
  43   27   28 ar
  44   28   29 ar
  45   28   45 1
  46   29   30 ar
  47   29   46 1
  48   30   31 ar
  49   30   47 1
  50   31   48 1
  51   32   34 1
  52   32   49 1
  53   32   50 1
  54   33   51 1
  55   34   52 1
  56   34   53 1
  57   34   54 1

#	End of record

