#	Name: ASD03090843
#	Creating user name:	WinNT
#	Creation time:	15. 06. 2019 20:29

#	Modifying user name:	WinNT
#	Modification time:	15. 06. 2019 20:29

#	Program:	/corina/corina34_cracker 3.40 0067  02.08.2006

@<TRIPOS>MOLECULE
ASD03090843
  39   42    0    0    0
SMALL
NO_CHARGES


@<TRIPOS>ATOM
   1 C1             0.0348     1.4050     0.0099 C.2     
   2 C2             0.0725     0.0718    -0.0081 C.2     
   3 C3             1.3439    -0.4756    -0.0206 C.2     
   4 C4             2.3386     0.4131    -0.0128 C.2     
   5 S5             1.6745     2.0415     0.0118 S.3     
   6 S6            -1.4331     2.3796     0.0223 S.o2    
   7 O7            -1.0758     3.6499    -0.5048 O.2     
   8 O8            -2.4584     1.5678    -0.5337 O.2     
   9 N9            -1.8423     2.6293     1.6074 N.am    
  10 S10           -4.0446     4.1023     0.7847 S.3     
  11 C11           -2.9067     3.3320     1.9062 C.2     
  12 N12           -3.3861     3.6335     3.1540 N.pl3   
  13 C13           -4.5232     4.3877     3.2056 C.2     
  14 C14           -5.0738     4.7685     2.0651 C.2     
  15 O15           -0.8557     1.8995     7.7636 O.3     
  16 C16           -0.0170     0.7439     7.6579 C.3     
  17 C17            0.8755     0.9097     6.4204 C.3     
  18 O18            0.0300     1.0323     5.2715 O.3     
  19 C19           -1.0260     1.8846     5.3770 C.ar    
  20 C20           -1.4704     2.3161     6.6218 C.ar    
  21 C21           -1.6626     2.3228     4.2265 C.ar    
  22 C22           -2.7425     3.1901     4.3177 C.ar    
  23 C23           -3.1850     3.6179     5.5619 C.ar    
  24 C24           -2.5506     3.1814     6.7091 C.ar    
  25 F25            1.6591     2.0609     6.5546 F       
  26 F26            1.7016    -0.2107     6.2810 F       
  27 F27            0.7795     0.6328     8.8026 F       
  28 F28           -0.8077    -0.4019     7.5194 F       
  29 C29           -6.3198     5.5980     1.8899 C.3     
  30 H30           -0.8211    -0.5346    -0.0122 H       
  31 H31            1.5173    -1.5415    -0.0352 H       
  32 H32            3.3908     0.1698    -0.0198 H       
  33 H33           -4.9616     4.6656     4.1527 H       
  34 H34           -1.3176     1.9901     3.2586 H       
  35 H35           -4.0258     4.2919     5.6333 H       
  36 H36           -2.8967     3.5151     7.6762 H       
  37 H37           -6.5146     5.7410     0.8271 H       
  38 H38           -7.1652     5.0851     2.3485 H       
  39 H39           -6.1807     6.5678     2.3676 H       
@<TRIPOS>BOND
   1    1    2 2
   2    1    5 1
   3    1    6 1
   4    2    3 1
   5    2   30 1
   6    3    4 2
   7    3   31 1
   8    4    5 1
   9    4   32 1
  10    6    7 2
  11    6    8 2
  12    6    9 am
  13    9   11 2
  14   10   11 1
  15   10   14 1
  16   11   12 1
  17   12   13 1
  18   12   22 1
  19   13   14 2
  20   13   33 1
  21   14   29 1
  22   15   16 1
  23   15   20 1
  24   16   17 1
  25   16   27 1
  26   16   28 1
  27   17   18 1
  28   17   25 1
  29   17   26 1
  30   18   19 1
  31   19   20 ar
  32   19   21 ar
  33   20   24 ar
  34   21   22 ar
  35   21   34 1
  36   22   23 ar
  37   23   24 ar
  38   23   35 1
  39   24   36 1
  40   29   37 1
  41   29   38 1
  42   29   39 1

#	End of record

