#	Name: ASD08710130
#	Creating user name:	WinNT
#	Creation time:	15. 06. 2019 21:19

#	Modifying user name:	WinNT
#	Modification time:	15. 06. 2019 21:19

#	Program:	/corina/corina34_cracker 3.40 0067  02.08.2006

@<TRIPOS>MOLECULE
ASD08710130
  51   52    0    0    0
SMALL
NO_CHARGES


@<TRIPOS>ATOM
   1 N1            -0.3540     1.0468    -0.5206 N.am    
   2 C2            -0.0641    -0.3653    -0.8062 C.3     
   3 C3             1.1282    -0.4360    -1.7683 C.3     
   4 N4             2.2051     0.4164    -1.2450 N.am    
   5 C5             1.9151     1.8285    -0.9595 C.3     
   6 C6             0.7228     1.8992     0.0027 C.3     
   7 C7            -1.5839     1.5525    -0.7399 C.2     
   8 O8            -2.4649     0.8393    -1.1776 O.2     
   9 O9            -1.8363     2.8480    -0.4740 O.3     
  10 C10            1.6208    -1.8810    -1.8703 C.3     
  11 S11            3.7179    -0.2035    -0.9814 S.o2    
  12 O12            3.9090    -1.2224    -1.9533 O.2     
  13 O13            4.5891     0.9104    -0.8415 O.2     
  14 C14            3.6855    -1.0098     0.5849 C.ar    
  15 C15            3.5996    -0.2591     1.7443 C.ar    
  16 C16            3.5743    -0.8838     2.9737 C.ar    
  17 C17            3.6351    -2.2770     3.0468 C.ar    
  18 C18            3.7213    -3.0282     1.8732 C.ar    
  19 C19            3.7405    -2.3906     0.6498 C.ar    
  20 C20            3.5340     1.2443     1.6634 C.3     
  21 C21            3.6098    -2.9323     4.3199 C.1     
  22 N22            3.5897    -3.4521     5.3298 N.1     
  23 C23           -3.1831     3.3241    -0.7345 C.3     
  24 C24           -4.1780     2.5290     0.1134 C.3     
  25 C25           -3.2779     4.8081    -0.3744 C.3     
  26 C26           -3.5125     3.1369    -2.2168 C.3     
  27 H27            0.1828    -0.8828     0.1209 H       
  28 H28           -0.9346    -0.8315    -1.2676 H       
  29 H29            0.8254    -0.0797    -2.7529 H       
  30 H30            2.7857     2.2946    -0.4980 H       
  31 H31            1.6683     2.3460    -1.8865 H       
  32 H32            0.3720     2.9286     0.0754 H       
  33 H33            1.0257     1.5429     0.9873 H       
  34 H34            0.7703    -2.5446    -2.0264 H       
  35 H35            2.3108    -1.9712    -2.7093 H       
  36 H36            2.1322    -2.1565    -0.9480 H       
  37 H37            3.5079    -0.2967     3.8778 H       
  38 H38            3.7688    -4.1060     1.9226 H       
  39 H39            3.8027    -2.9706    -0.2591 H       
  40 H40            2.4932     1.5653     1.7051 H       
  41 H41            4.0817     1.6774     2.5003 H       
  42 H42            3.9796     1.5775     0.7261 H       
  43 H43           -3.9433     2.6624     1.1695 H       
  44 H44           -5.1890     2.8864    -0.0821 H       
  45 H45           -4.1104     1.4718    -0.1431 H       
  46 H46           -2.5692     5.3746    -0.9785 H       
  47 H47           -4.2889     5.1655    -0.5699 H       
  48 H48           -3.0433     4.9415     0.6816 H       
  49 H49           -3.4449     2.0797    -2.4733 H       
  50 H50           -4.5235     3.4943    -2.4123 H       
  51 H51           -2.8037     3.7033    -2.8209 H       
@<TRIPOS>BOND
   1    1    2 1
   2    1    6 1
   3    1    7 am
   4    2    3 1
   5    2   27 1
   6    2   28 1
   7    3    4 1
   8    3   10 1
   9    3   29 1
  10    4    5 1
  11    4   11 am
  12    5    6 1
  13    5   30 1
  14    5   31 1
  15    6   32 1
  16    6   33 1
  17    7    8 2
  18    7    9 1
  19    9   23 1
  20   10   34 1
  21   10   35 1
  22   10   36 1
  23   11   12 2
  24   11   13 2
  25   11   14 1
  26   14   15 ar
  27   14   19 ar
  28   15   16 ar
  29   15   20 1
  30   16   17 ar
  31   16   37 1
  32   17   18 ar
  33   17   21 1
  34   18   19 ar
  35   18   38 1
  36   19   39 1
  37   20   40 1
  38   20   41 1
  39   20   42 1
  40   21   22 3
  41   23   24 1
  42   23   25 1
  43   23   26 1
  44   24   43 1
  45   24   44 1
  46   24   45 1
  47   25   46 1
  48   25   47 1
  49   25   48 1
  50   26   49 1
  51   26   50 1
  52   26   51 1

#	End of record

