#	Name: ASD00860005
#	Creating user name:	WinNT
#	Creation time:	15. 06. 2019 18:53

#	Modifying user name:	WinNT
#	Modification time:	15. 06. 2019 18:53

#	Program:	/corina/corina34_cracker 3.40 0067  02.08.2006

@<TRIPOS>MOLECULE
ASD00860005
  31   32    0    0    0
SMALL
NO_CHARGES


@<TRIPOS>ATOM
   1 O1            -0.0173     1.4248     0.0099 O.3     
   2 C2             0.0021    -0.0041     0.0020 C.3     
   3 C3            -1.4333    -0.5336     0.0129 C.3     
   4 C4            -1.4265    -2.0687    -0.1217 C.3     
   5 O5            -2.1365    -2.4711    -1.2948 O.3     
   6 C6            -2.1566    -2.5644     1.1502 C.3     
   7 C7            -2.9566    -1.3071     1.5762 C.3     
   8 O8            -2.0615    -0.2174     1.2665 O.3     
   9 N9            -3.2484    -1.3431     3.0114 N.am    
  10 C10           -3.9694    -2.3590     3.5196 C.2     
  11 O11           -4.3709    -3.2373     2.7809 O.2     
  12 N12           -4.2521    -2.4170     4.8342 N.am    
  13 C13           -3.8139    -1.4511     5.6668 C.2     
  14 O14           -4.0689    -1.5030     6.8565 O.2     
  15 C15           -3.0542    -0.3764     5.1452 C.2     
  16 C16           -2.5525     0.7160     6.0541 C.3     
  17 C17           -2.7804    -0.3460     3.8233 C.2     
  18 H18            0.8606     1.8301     0.0037 H       
  19 H19            0.5123    -0.3556    -0.8948 H       
  20 H20            0.5293    -0.3651     0.8851 H       
  21 H21           -1.9996    -0.0922    -0.8072 H       
  22 H22           -0.4038    -2.4451    -0.1457 H       
  23 H23           -2.1637    -3.4284    -1.4291 H       
  24 H24           -2.8271    -3.3914     0.9165 H       
  25 H25           -1.4422    -2.8509     1.9221 H       
  26 H26           -3.8770    -1.2238     0.9983 H       
  27 H27           -4.7735    -3.1563     5.1841 H       
  28 H28           -2.8701     0.5122     7.0767 H       
  29 H29           -1.4639     0.7521     6.0121 H       
  30 H30           -2.9605     1.6736     5.7309 H       
  31 H31           -2.1984     0.4634     3.4082 H       
@<TRIPOS>BOND
   1    1    2 1
   2    1   18 1
   3    2    3 1
   4    2   19 1
   5    2   20 1
   6    3    4 1
   7    3    8 1
   8    3   21 1
   9    4    6 1
  10    4    5 1
  11    4   22 1
  12    5   23 1
  13    6    7 1
  14    6   24 1
  15    6   25 1
  16    7    8 1
  17    7    9 1
  18    7   26 1
  19    9   10 am
  20    9   17 1
  21   10   11 2
  22   10   12 am
  23   12   13 am
  24   12   27 1
  25   13   14 2
  26   13   15 1
  27   15   16 1
  28   15   17 2
  29   16   28 1
  30   16   29 1
  31   16   30 1
  32   17   31 1

#	End of record

