#	Name: ASD07931696
#	Creating user name:	WinNT
#	Creation time:	15. 06. 2019 21:13

#	Modifying user name:	WinNT
#	Modification time:	15. 06. 2019 21:13

#	Program:	/corina/corina34_cracker 3.40 0067  02.08.2006

@<TRIPOS>MOLECULE
ASD07931696
  56   60    0    0    0
SMALL
NO_CHARGES


@<TRIPOS>ATOM
   1 C1             0.1103     0.8621    -0.1890 C.2     
   2 C2             0.2018    -0.4849    -0.4097 C.2     
   3 C3             1.5289    -1.0893    -0.5497 C.2     
   4 N4             2.6202    -0.3099    -0.4564 N.am    
   5 C5             2.5018     1.0438    -0.2359 C.2     
   6 C6             1.2797     1.6276    -0.1027 C.2     
   7 C7             3.9661    -0.8846    -0.5858 C.3     
   8 C8             4.8217     0.0883    -1.4107 C.3     
   9 N9             4.8702     1.3783    -0.7078 N.am    
  10 C10            3.7343     1.8578    -0.1471 C.2     
  11 C11            6.1235     2.1312    -0.6154 C.3     
  12 O12            1.6424    -2.2869    -0.7482 O.2     
  13 N13           -0.9507    -1.2707    -0.4997 N.pl3   
  14 C14           -1.9179    -1.1915    -1.4686 C.2     
  15 C15           -1.3216    -2.2617     0.3532 C.2     
  16 N16           -2.4539    -2.7625    -0.0593 N.2     
  17 C17           -2.8423    -2.1251    -1.1740 C.2     
  18 C18           -4.0968    -2.4055    -1.9606 C.3     
  19 O19            3.7273     2.9348     0.4170 O.2     
  20 C20            6.0238     3.4245    -1.4431 C.3     
  21 C21            6.2186     4.5948    -0.4572 C.3     
  22 C22            7.0046     3.9708     0.7226 C.3     
  23 C23            6.3755     2.5608     0.8447 C.3     
  24 C24            4.6469     3.5192    -2.1035 C.3     
  25 C25            4.6218     4.6945    -3.0464 C.ar    
  26 C26            4.9885     4.5272    -4.3684 C.ar    
  27 C27            4.9658     5.6064    -5.2357 C.ar    
  28 C28            4.5756     6.8532    -4.7781 C.ar    
  29 C29            4.2085     7.0196    -3.4539 C.ar    
  30 C30            4.2265     5.9377    -2.5898 C.ar    
  31 F31            3.8278     8.2360    -3.0059 F       
  32 F32            5.3249     5.4427    -6.5277 F       
  33 H33           -0.8566     1.3322    -0.0864 H       
  34 H34            1.2111     2.6913     0.0709 H       
  35 H35            4.4070    -1.0158     0.4024 H       
  36 H36            3.9083    -1.8467    -1.0947 H       
  37 H37            5.8310    -0.3099    -1.5153 H       
  38 H38            4.3748     0.2245    -2.3955 H       
  39 H39            6.9525     1.5212    -0.9742 H       
  40 H40           -1.9349    -0.5109    -2.3070 H       
  41 H41           -0.7713    -2.5814     1.2258 H       
  42 H42           -4.9101    -1.7878    -1.5799 H       
  43 H43           -3.9259    -2.1737    -3.0119 H       
  44 H44           -4.3616    -3.4580    -1.8591 H       
  45 H45            6.8049     3.4425    -2.2031 H       
  46 H46            6.7978     5.3928    -0.9219 H       
  47 H47            5.2540     4.9711    -0.1164 H       
  48 H48            8.0662     3.9010     0.4854 H       
  49 H49            6.8488     4.5439     1.6366 H       
  50 H50            5.4363     2.6085     1.3958 H       
  51 H51            7.0692     1.8742     1.3300 H       
  52 H52            4.4467     2.6031    -2.6593 H       
  53 H53            3.8843     3.6525    -1.3362 H       
  54 H54            5.2933     3.5544    -4.7250 H       
  55 H55            4.5579     7.6956    -5.4538 H       
  56 H56            3.9398     6.0672    -1.5567 H       
@<TRIPOS>BOND
   1    1    2 2
   2    1    6 1
   3    1   33 1
   4    2    3 1
   5    2   13 1
   6    3    4 am
   7    3   12 2
   8    4    5 1
   9    4    7 1
  10    5    6 2
  11    5   10 1
  12    6   34 1
  13    7    8 1
  14    7   35 1
  15    7   36 1
  16    8    9 1
  17    8   37 1
  18    8   38 1
  19    9   10 am
  20    9   11 1
  21   10   19 2
  22   11   20 1
  23   11   23 1
  24   11   39 1
  25   13   14 1
  26   13   15 1
  27   14   17 2
  28   14   40 1
  29   15   16 2
  30   15   41 1
  31   16   17 1
  32   17   18 1
  33   18   42 1
  34   18   43 1
  35   18   44 1
  36   20   21 1
  37   20   24 1
  38   20   45 1
  39   21   22 1
  40   21   46 1
  41   21   47 1
  42   22   23 1
  43   22   48 1
  44   22   49 1
  45   23   50 1
  46   23   51 1
  47   24   25 1
  48   24   52 1
  49   24   53 1
  50   25   26 ar
  51   25   30 ar
  52   26   27 ar
  53   26   54 1
  54   27   28 ar
  55   27   32 1
  56   28   29 ar
  57   28   55 1
  58   29   30 ar
  59   29   31 1
  60   30   56 1

#	End of record

