#	Name: ASD08170020
#	Creating user name:	WinNT
#	Creation time:	15. 06. 2019 21:17

#	Modifying user name:	WinNT
#	Modification time:	15. 06. 2019 21:17

#	Program:	/corina/corina34_cracker 3.40 0067  02.08.2006

@<TRIPOS>MOLECULE
ASD08170020
  44   46    0    0    0
SMALL
NO_CHARGES


@<TRIPOS>ATOM
   1 C1            -0.0167     1.3781     0.0096 C.ar    
   2 C2             0.0021    -0.0041     0.0020 C.ar    
   3 C3             1.2084    -0.6789    -0.0132 C.ar    
   4 C4             2.3960     0.0285    -0.0212 C.ar    
   5 C5             2.3773     1.4107    -0.0145 C.ar    
   6 C6             1.1710     2.0855     0.0021 C.ar    
   7 C7             3.6720     2.1819    -0.0228 C.3     
   8 C8             4.0905     2.4457    -1.4463 C.2     
   9 N9             5.2266     3.1249    -1.6998 N.am    
  10 O10            3.4049     2.0467    -2.3638 O.2     
  11 C11            5.6129     3.3683    -3.0135 C.2     
  12 N12            4.9647     2.9937    -4.0750 N.2     
  13 N13            5.4545     3.2972    -5.1983 N.2     
  14 C14            6.5673     3.9597    -5.1855 C.2     
  15 S15            7.0184     4.2184    -3.4999 S.3     
  16 C16            7.3360     4.4297    -6.3935 C.3     
  17 C17            6.8586     5.8284    -6.7893 C.3     
  18 S18            7.7838     6.3942    -8.2434 S.3     
  19 C19            7.0882     8.0404    -8.5546 C.3     
  20 C20            7.7755     8.6627    -9.7716 C.3     
  21 C21            7.1976    10.0303   -10.0301 C.2     
  22 N22            7.6290    11.1449    -9.5362 N.2     
  23 N23            7.0274    12.2058    -9.8564 N.2     
  24 C24            6.0111    12.1033   -10.6645 C.2     
  25 S25            5.8168    10.3958   -11.0667 S.3     
  26 N26            5.2266    13.1483   -11.1297 N.pl3   
  27 H27           -0.9592     1.9054     0.0170 H       
  28 H28           -0.9258    -0.5567     0.0083 H       
  29 H29            1.2231    -1.7588    -0.0184 H       
  30 H30            3.3386    -0.4987    -0.0324 H       
  31 H31            1.1563     3.1654     0.0069 H       
  32 H32            3.5335     3.1300     0.4968 H       
  33 H33            4.4443     1.6008     0.4812 H       
  34 H34            5.7750     3.4440    -0.9661 H       
  35 H35            8.3996     4.4622    -6.1573 H       
  36 H36            7.1685     3.7408    -7.2214 H       
  37 H37            5.7950     5.7960    -7.0254 H       
  38 H38            7.0261     6.5173    -5.9614 H       
  39 H39            6.0189     7.9526    -8.7465 H       
  40 H40            7.2500     8.6739    -7.6825 H       
  41 H41            8.8448     8.7505    -9.5797 H       
  42 H42            7.6137     8.0291   -10.6437 H       
  43 H43            5.4172    14.0583   -10.8531 H       
  44 H44            4.4875    12.9691   -11.7317 H       
@<TRIPOS>BOND
   1    1    2 ar
   2    1    6 ar
   3    1   27 1
   4    2    3 ar
   5    2   28 1
   6    3    4 ar
   7    3   29 1
   8    4    5 ar
   9    4   30 1
  10    5    6 ar
  11    5    7 1
  12    6   31 1
  13    7    8 1
  14    7   32 1
  15    7   33 1
  16    8    9 am
  17    8   10 2
  18    9   11 1
  19    9   34 1
  20   11   12 2
  21   11   15 1
  22   12   13 1
  23   13   14 2
  24   14   15 1
  25   14   16 1
  26   16   17 1
  27   16   35 1
  28   16   36 1
  29   17   18 1
  30   17   37 1
  31   17   38 1
  32   18   19 1
  33   19   20 1
  34   19   39 1
  35   19   40 1
  36   20   21 1
  37   20   41 1
  38   20   42 1
  39   21   22 2
  40   21   25 1
  41   22   23 1
  42   23   24 2
  43   24   25 1
  44   24   26 1
  45   26   43 1
  46   26   44 1

#	End of record

