#	Name: ASD04550076
#	Creating user name:	WinNT
#	Creation time:	15. 06. 2019 20:49

#	Modifying user name:	WinNT
#	Modification time:	15. 06. 2019 20:49

#	Program:	/corina/corina34_cracker 3.40 0067  02.08.2006

@<TRIPOS>MOLECULE
ASD04550076
  38   39    0    0    0
SMALL
NO_CHARGES


@<TRIPOS>ATOM
   1 C1            -0.1179     2.0221    -0.5074 C.ar    
   2 C2            -0.2826     0.6445    -0.5123 C.ar    
   3 C3             0.8237    -0.1844    -0.3953 C.ar    
   4 C4             2.0861     0.3635    -0.2743 C.ar    
   5 C5             2.2475     1.7367    -0.2692 C.ar    
   6 C6             1.1466     2.5649    -0.3861 C.ar    
   7 C7             3.6257     2.3316    -0.1360 C.3     
   8 C8             3.9337     3.1855    -1.3676 C.3     
   9 O9            -1.5255     0.1080    -0.6310 O.3     
  10 S10           -1.9546    -0.1478    -2.0687 S.o2    
  11 O11           -3.3405    -0.4467    -1.9729 O.2     
  12 O12           -1.4990     0.9954    -2.7791 O.2     
  13 C13            3.6840     3.1925     1.0995 C.2     
  14 O14            2.7029     3.3113     1.8027 O.2     
  15 N15            4.8262     3.8305     1.4230 N.am    
  16 C16            4.8534     4.7069     2.5138 C.ar    
  17 C17            4.0851     4.4495     3.6462 C.ar    
  18 C18            4.1455     5.3466     4.7003 C.ar    
  19 C19            4.9596     6.4586     4.5947 C.ar    
  20 N20            5.6750     6.6741     3.5078 N.ar    
  21 C21            5.6515     5.8432     2.4851 C.ar    
  22 C22           -1.0187    -1.6204    -2.5651 C.3     
  23 F23           -1.3487    -2.6882    -1.7237 F       
  24 F24           -1.3375    -1.9520    -3.8863 F       
  25 F25            0.3517    -1.3566    -2.4682 F       
  26 H26           -0.9771     2.6694    -0.6028 H       
  27 H27            0.6981    -1.2570    -0.3985 H       
  28 H28            2.9477    -0.2814    -0.1831 H       
  29 H29            1.2753     3.6372    -0.3819 H       
  30 H30            4.3609     1.5309    -0.0559 H       
  31 H31            3.1985     3.9862    -1.4477 H       
  32 H32            4.9306     3.6158    -1.2713 H       
  33 H33            3.8916     2.5629    -2.2613 H       
  34 H34            5.6295     3.6822     0.8999 H       
  35 H35            3.4573     3.5725     3.7012 H       
  36 H36            3.5628     5.1791     5.5941 H       
  37 H37            5.0104     7.1611     5.4134 H       
  38 H38            6.2515     6.0531     1.6119 H       
@<TRIPOS>BOND
   1    1    2 ar
   2    1    6 ar
   3    1   26 1
   4    2    3 ar
   5    2    9 1
   6    3    4 ar
   7    3   27 1
   8    4    5 ar
   9    4   28 1
  10    5    6 ar
  11    5    7 1
  12    6   29 1
  13    7    8 1
  14    7   13 1
  15    7   30 1
  16    8   31 1
  17    8   32 1
  18    8   33 1
  19    9   10 1
  20   10   11 2
  21   10   12 2
  22   10   22 1
  23   13   14 2
  24   13   15 am
  25   15   16 1
  26   15   34 1
  27   16   17 ar
  28   16   21 ar
  29   17   18 ar
  30   17   35 1
  31   18   19 ar
  32   18   36 1
  33   19   20 ar
  34   19   37 1
  35   20   21 ar
  36   21   38 1
  37   22   23 1
  38   22   24 1
  39   22   25 1

#	End of record

