#	Name: ASD01440134
#	Creating user name:	WinNT
#	Creation time:	15. 06. 2019 19:21

#	Modifying user name:	WinNT
#	Modification time:	15. 06. 2019 19:21

#	Program:	/corina/corina34_cracker 3.40 0067  02.08.2006

@<TRIPOS>MOLECULE
ASD01440134
  41   43    0    0    0
SMALL
NO_CHARGES


@<TRIPOS>ATOM
   1 C1             0.8155     1.4601    -0.2965 C.ar    
   2 C2             0.7060     0.0881    -0.2906 C.ar    
   3 C3             1.8435    -0.7023    -0.1666 C.ar    
   4 C4             3.0962    -0.1116    -0.0484 C.ar    
   5 C5             3.2159     1.2609    -0.0538 C.ar    
   6 C6             2.0733     2.0600    -0.1780 C.ar    
   7 C7             2.1955     3.5291    -0.1843 C.2     
   8 O8             2.0869     4.1437    -1.2278 O.2     
   9 C9             2.4500     4.2549     1.0777 C.ar    
  10 O10            1.7301    -2.0544    -0.1604 O.3     
  11 C11            2.9383    -2.8062    -0.0298 C.3     
  12 C12            2.6176    -4.2786    -0.0428 C.2     
  13 N13            3.6088    -5.1852     0.0681 N.am    
  14 O14            1.4676    -4.6479    -0.1531 O.2     
  15 C15            2.6733     5.6334     1.0614 C.ar    
  16 C16            2.9097     6.3045     2.2430 C.ar    
  17 C17            2.9263     5.6150     3.4427 C.ar    
  18 C18            2.7058     4.2490     3.4662 C.ar    
  19 C19            2.4624     3.5663     2.2927 C.ar    
  20 C20            3.3034    -6.5474     0.1664 C.ar    
  21 C21            4.2132    -7.5061    -0.2605 C.ar    
  22 N22            3.9289    -8.7898    -0.1699 N.ar    
  23 C23            2.7823    -9.2145     0.3243 C.ar    
  24 C24            1.8264    -8.3209     0.7698 C.ar    
  25 C25            2.0854    -6.9617     0.6988 C.ar    
  26 Br26           4.9205     2.0638     0.1070 Br      
  27 H27           -0.0684     2.0726    -0.3971 H       
  28 H28           -0.2651    -0.3756    -0.3821 H       
  29 H29            3.9768    -0.7293     0.0480 H       
  30 H30            3.6036    -2.5719    -0.8608 H       
  31 H31            3.4265    -2.5489     0.9102 H       
  32 H32            4.5338    -4.8934     0.0798 H       
  33 H33            2.6613     6.1726     0.1257 H       
  34 H34            3.0826     7.3705     2.2318 H       
  35 H35            3.1126     6.1453     4.3649 H       
  36 H36            2.7201     3.7171     4.4060 H       
  37 H37            2.2864     2.5009     2.3128 H       
  38 H38            5.1629    -7.1965    -0.6710 H       
  39 H39            2.5874   -10.2752     0.3815 H       
  40 H40            0.8902    -8.6783     1.1726 H       
  41 H41            1.3586    -6.2412     1.0440 H       
@<TRIPOS>BOND
   1    1    2 ar
   2    1    6 ar
   3    1   27 1
   4    2    3 ar
   5    2   28 1
   6    3    4 ar
   7    3   10 1
   8    4    5 ar
   9    4   29 1
  10    5    6 ar
  11    5   26 1
  12    6    7 1
  13    7    8 2
  14    7    9 1
  15    9   15 ar
  16    9   19 ar
  17   10   11 1
  18   11   12 1
  19   11   30 1
  20   11   31 1
  21   12   13 am
  22   12   14 2
  23   13   20 1
  24   13   32 1
  25   15   16 ar
  26   15   33 1
  27   16   17 ar
  28   16   34 1
  29   17   18 ar
  30   17   35 1
  31   18   19 ar
  32   18   36 1
  33   19   37 1
  34   20   21 ar
  35   20   25 ar
  36   21   22 ar
  37   21   38 1
  38   22   23 ar
  39   23   24 ar
  40   23   39 1
  41   24   25 ar
  42   24   40 1
  43   25   41 1

#	End of record

