#	Name: ASD01913533
#	Creating user name:	WinNT
#	Creation time:	15. 06. 2019 20:01

#	Modifying user name:	WinNT
#	Modification time:	15. 06. 2019 20:01

#	Program:	/corina/corina34_cracker 3.40 0067  02.08.2006

@<TRIPOS>MOLECULE
ASD01913533
  35   37    0    0    0
SMALL
NO_CHARGES


@<TRIPOS>ATOM
   1 C1             0.3564     0.6182     0.8315 C.ar    
   2 C2            -0.0062     0.0013    -0.3615 C.ar    
   3 C3             0.8473     0.0894    -1.4522 C.ar    
   4 N4             1.9863     0.7467    -1.3635 N.ar    
   5 C5             2.3594     1.3424    -0.2476 C.ar    
   6 C6             1.5624     1.2990     0.8808 C.ar    
   7 C7            -1.1354    -2.0343    -0.4143 C.ar    
   8 C8             0.0771    -2.7047    -0.2796 C.ar    
   9 C9             0.0844    -4.0874    -0.2335 C.ar    
  10 N10           -1.0354    -4.7737    -0.3155 N.ar    
  11 C11           -2.2146    -4.1758    -0.4448 C.ar    
  12 C12           -2.3032    -2.7888    -0.4981 C.ar    
  13 C13           -3.4464    -4.9939    -0.5329 C.2     
  14 N14           -3.3676    -6.3384    -0.4819 N.am    
  15 O15           -1.1792    -0.6783    -0.4574 O.3     
  16 C16           -4.5356    -7.1071    -0.4652 C.ar    
  17 C17           -4.5524    -8.3602    -1.0638 C.ar    
  18 C18           -5.7075    -9.1175    -1.0460 C.ar    
  19 C19           -6.8467    -8.6296    -0.4335 C.ar    
  20 C20           -6.8340    -7.3809     0.1638 C.ar    
  21 C21           -5.6795    -6.6213     0.1550 C.ar    
  22 O22           -4.5281    -4.4527    -0.6513 O.2     
  23 Cl23          -8.2673    -6.7716     0.9307 Cl      
  24 H24           -0.2882     0.5714     1.6968 H       
  25 H25            0.5756    -0.3858    -2.3832 H       
  26 H26            3.3007     1.8709    -0.2149 H       
  27 H27            1.8759     1.7897     1.7903 H       
  28 H28            1.0021    -2.1514    -0.2121 H       
  29 H29            1.0231    -4.6112    -0.1291 H       
  30 H30           -3.2627    -2.3044    -0.6029 H       
  31 H31           -2.5007    -6.7728    -0.4567 H       
  32 H32           -3.6632    -8.7421    -1.5431 H       
  33 H33           -5.7206   -10.0920    -1.5114 H       
  34 H34           -7.7486    -9.2237    -0.4213 H       
  35 H35           -5.6697    -5.6471     0.6210 H       
@<TRIPOS>BOND
   1    1    2 ar
   2    1    6 ar
   3    1   24 1
   4    2    3 ar
   5    2   15 1
   6    3    4 ar
   7    3   25 1
   8    4    5 ar
   9    5    6 ar
  10    5   26 1
  11    6   27 1
  12    7    8 ar
  13    7   12 ar
  14    7   15 1
  15    8    9 ar
  16    8   28 1
  17    9   10 ar
  18    9   29 1
  19   10   11 ar
  20   11   12 ar
  21   11   13 1
  22   12   30 1
  23   13   14 am
  24   13   22 2
  25   14   16 1
  26   14   31 1
  27   16   17 ar
  28   16   21 ar
  29   17   18 ar
  30   17   32 1
  31   18   19 ar
  32   18   33 1
  33   19   20 ar
  34   19   34 1
  35   20   21 ar
  36   20   23 1
  37   21   35 1

#	End of record

