#	Name: ASD01813581
#	Creating user name:	WinNT
#	Creation time:	15. 06. 2019 19:30

#	Modifying user name:	WinNT
#	Modification time:	15. 06. 2019 19:30

#	Program:	/corina/corina34_cracker 3.40 0067  02.08.2006

@<TRIPOS>MOLECULE
ASD01813581
  47   51    0    0    0
SMALL
NO_CHARGES


@<TRIPOS>ATOM
   1 C1            -0.0168     1.3825    -0.0433 C.ar    
   2 C2             0.0020    -0.0038    -0.0504 C.ar    
   3 C3             1.1975    -0.6932    -0.0475 C.ar    
   4 C4             2.4040     0.0044    -0.0379 C.ar    
   5 C5             2.3834     1.4096    -0.0312 C.ar    
   6 C6             1.1657     2.0946    -0.0338 C.ar    
   7 N7             3.6050    -0.6734    -0.0339 N.pl3   
   8 C8             4.7898    -0.0496    -0.0238 C.2     
   9 C9             4.8962     1.3266    -0.0161 C.2     
  10 C10            3.6660     2.1351    -0.0211 C.2     
  11 O11            3.7066     3.3531    -0.0152 O.2     
  12 C12            6.2155     1.9737    -0.0040 C.2     
  13 O13            6.3065     3.3187     0.0034 O.3     
  14 O14            7.2249     1.2962    -0.0008 O.2     
  15 C15            3.5837    -2.1382    -0.0406 C.3     
  16 C16            3.4403    -2.6321    -1.4571 C.ar    
  17 N17            2.2402    -2.7346    -1.9912 N.ar    
  18 C18            2.0667    -3.1646    -3.2345 C.ar    
  19 C19            3.1609    -3.5241    -4.0185 C.ar    
  20 C20            4.4334    -3.4262    -3.4826 C.ar    
  21 C21            4.5702    -2.9661    -2.1806 C.ar    
  22 F22            1.1984    -2.0441    -0.0536 F       
  23 F23            1.1457     3.4455    -0.0278 F       
  24 C24            0.6968    -3.2638    -3.7940 C.ar    
  25 C25            0.4996    -3.8142    -5.0648 C.ar    
  26 C26           -0.7545    -3.9128    -5.5945 C.ar    
  27 C27           -1.8569    -3.4642    -4.8726 C.ar    
  28 C28           -1.6709    -2.9083    -3.5925 C.ar    
  29 C29           -0.3887    -2.8152    -3.0532 C.ar    
  30 N30           -3.2076    -3.4314    -5.1357 N.pl3   
  31 C31           -3.8757    -2.8795    -4.0767 C.2     
  32 C32           -3.0058    -2.5422    -3.1118 C.2     
  33 H33           -0.9606     1.9075    -0.0498 H       
  34 H34           -0.9295    -0.5504    -0.0579 H       
  35 H35            5.6921    -0.6430    -0.0212 H       
  36 H36            7.1957     3.6986     0.0112 H       
  37 H37            4.5134    -2.5171     0.3839 H       
  38 H38            2.7418    -2.4920     0.5545 H       
  39 H39            3.0182    -3.8745    -5.0300 H       
  40 H40            5.3006    -3.6980    -4.0661 H       
  41 H41            5.5494    -2.8782    -1.7336 H       
  42 H42            1.3487    -4.1645    -5.6330 H       
  43 H43           -0.8919    -4.3400    -6.5768 H       
  44 H44           -0.2400    -2.3898    -2.0717 H       
  45 H45           -3.6241    -3.7517    -5.9510 H       
  46 H46           -4.9449    -2.7361    -4.0251 H       
  47 H47           -3.2445    -2.0879    -2.1615 H       
@<TRIPOS>BOND
   1    1    2 ar
   2    1    6 ar
   3    1   33 1
   4    2    3 ar
   5    2   34 1
   6    3    4 ar
   7    3   22 1
   8    4    5 ar
   9    4    7 1
  10    5    6 ar
  11    5   10 1
  12    6   23 1
  13    7    8 1
  14    7   15 1
  15    8    9 2
  16    8   35 1
  17    9   10 1
  18    9   12 1
  19   10   11 2
  20   12   13 1
  21   12   14 2
  22   13   36 1
  23   15   16 1
  24   15   37 1
  25   15   38 1
  26   16   17 ar
  27   16   21 ar
  28   17   18 ar
  29   18   19 ar
  30   18   24 1
  31   19   20 ar
  32   19   39 1
  33   20   21 ar
  34   20   40 1
  35   21   41 1
  36   24   25 ar
  37   24   29 ar
  38   25   26 ar
  39   25   42 1
  40   26   27 ar
  41   26   43 1
  42   27   28 ar
  43   27   30 1
  44   28   29 ar
  45   28   32 1
  46   29   44 1
  47   30   31 1
  48   30   45 1
  49   31   32 2
  50   31   46 1
  51   32   47 1

#	End of record

