#	Name: ASD06590010
#	Creating user name:	WinNT
#	Creation time:	15. 06. 2019 21:06

#	Modifying user name:	WinNT
#	Modification time:	15. 06. 2019 21:06

#	Program:	/corina/corina34_cracker 3.40 0067  02.08.2006

@<TRIPOS>MOLECULE
ASD06590010
 377  384    0    0    0
SMALL
NO_CHARGES


@<TRIPOS>ATOM
   1 C1             1.2818     5.9212    -7.8085 C.2     
   2 O2             1.6798     4.7760    -7.8383 O.2     
   3 N3             3.5739     6.5213    -8.3331 N.am    
   4 C4             2.2362     7.0577    -8.0704 C.3     
   5 C5             1.7587     7.8549    -9.2859 C.3     
   6 C6             2.6421     9.0612    -9.4741 C.2     
   7 C7             3.3101     9.3855   -10.5976 C.2     
   8 N8             3.9831    10.5484   -10.3365 N.pl3   
   9 C9             3.7028    10.8946    -9.0617 C.2     
  10 N10            2.8963    10.0033    -8.5537 N.2     
  11 C11           -2.3464     5.5087    -7.6369 C.2     
  12 O12           -2.5495     6.6323    -8.0459 O.2     
  13 N13           -0.0153     6.1773    -7.5467 N.am    
  14 C14           -0.9444     5.0722    -7.2980 C.3     
  15 C15           -0.8774     4.6717    -5.8229 C.3     
  16 O16           -1.3492     5.7514    -5.0143 O.3     
  17 C17           -5.6916     4.2976    -6.8565 C.2     
  18 O18           -5.3294     3.2387    -6.3891 O.2     
  19 N19           -3.3745     4.6505    -7.4856 N.am    
  20 C20           -4.7486     5.1069    -7.7090 C.3     
  21 C21           -5.1123     4.9265    -9.1842 C.3     
  22 C22           -6.4848     5.5480    -9.4507 C.3     
  23 C23           -6.4157     7.0579    -9.2135 C.3     
  24 C24           -6.8944     5.2776   -10.8998 C.3     
  25 C25           -9.2806     4.1730    -6.3584 C.2     
  26 O26           -9.4598     4.8707    -7.3341 O.2     
  27 N27           -6.9375     4.7506    -6.6135 N.am    
  28 C28           -7.8817     3.9261    -5.8553 C.3     
  29 C29           -7.8013     4.2918    -4.3719 C.3     
  30 C30           -7.9833     5.8022    -4.2084 C.3     
  31 C31           -9.4145     6.1874    -4.5878 C.3     
  32 C32           -6.4357     3.8798    -3.8183 C.3     
  33 C33          -12.6474     3.7315    -5.0046 C.2     
  34 O34          -12.2268     3.3641    -3.9281 O.2     
  35 N35          -10.3326     3.6184    -5.7242 N.am    
  36 C36          -11.6968     3.9311    -6.1568 C.3     
  37 C37          -12.0911     3.0056    -7.3095 C.3     
  38 C38          -11.2185     3.2916    -8.5044 C.ar    
  39 C39          -10.0276     2.6094    -8.6698 C.ar    
  40 C40           -9.2272     2.8718    -9.7658 C.ar    
  41 C41           -9.6178     3.8161   -10.6967 C.ar    
  42 C42          -10.8090     4.4976   -10.5319 C.ar    
  43 C43          -11.6116     4.2321    -9.4381 C.ar    
  44 C44          -16.2698     3.4804    -4.5822 C.2     
  45 O45          -16.4628     3.4419    -5.7789 O.2     
  46 N46          -13.9651     3.9612    -5.1705 N.am    
  47 C47          -14.8892     3.7671    -4.0505 C.3     
  48 C48          -14.9256     5.0344    -3.1939 C.3     
  49 C49          -13.5541     5.2565    -2.5532 C.3     
  50 S50          -13.5972     6.7589    -1.5376 S.3     
  51 C51          -11.9115     6.8514    -0.8740 C.3     
  52 C52          -19.6593     3.3859    -3.2162 C.2     
  53 O53          -19.3050     3.8561    -2.1559 O.2     
  54 N54          -17.2900     3.2667    -3.7278 N.am    
  55 C55          -18.6322     2.9879    -4.2447 C.3     
  56 C56          -18.7630     1.4933    -4.5443 C.3     
  57 C57          -23.2299     2.8074    -2.6881 C.2     
  58 O58          -23.2881     1.9949    -3.5866 O.2     
  59 N59          -20.9715     3.2193    -3.4748 N.am    
  60 C60          -21.9699     3.6062    -2.4749 C.3     
  61 C61          -22.2815     5.0975    -2.6159 C.3     
  62 C62          -21.0513     5.9014    -2.2825 C.ar    
  63 C63          -20.1508     6.2319    -3.2780 C.ar    
  64 C64          -19.0223     6.9693    -2.9722 C.ar    
  65 C65          -18.7944     7.3767    -1.6711 C.ar    
  66 C66          -19.6953     7.0470    -0.6758 C.ar    
  67 C67          -20.8260     6.3133    -0.9823 C.ar    
  68 C68          -26.6937     2.9798    -1.5325 C.2     
  69 O69          -26.5258     4.0638    -1.0150 O.2     
  70 N70          -24.2920     2.9959    -1.8801 N.am    
  71 C71          -25.5169     2.2193    -2.0873 C.3     
  72 C72          -25.3951     0.8736    -1.3695 C.3     
  73 C73          -24.2963     0.0623    -2.0062 C.ar    
  74 C74          -22.9997     0.1673    -1.5383 C.ar    
  75 C75          -21.9918    -0.5768    -2.1224 C.ar    
  76 C76          -22.2804    -1.4263    -3.1741 C.ar    
  77 C77          -23.5770    -1.5319    -3.6414 C.ar    
  78 C78          -24.5858    -0.7910    -3.0545 C.ar    
  79 C79          -30.1766     2.2282    -0.7156 C.2     
  80 O80          -30.0203     1.0389    -0.8944 O.2     
  81 N81          -27.9328     2.4555    -1.6114 N.am    
  82 C82          -29.0768     3.1948    -1.0721 C.3     
  83 C83          -29.5869     4.1827    -2.1231 C.3     
  84 O84          -30.0981     3.4618    -3.2461 O.3     
  85 C85          -33.7305     2.4583     0.1089 C.2     
  86 O86          -33.7786     3.6352    -0.1803 O.2     
  87 N87          -31.3340     2.6854    -0.1980 N.am    
  88 C88          -32.4032     1.7458     0.1486 C.3     
  89 C89          -32.1619     1.1950     1.5554 C.3     
  90 C90          -30.8758     0.3662     1.5650 C.3     
  91 C91          -30.6381    -0.1764     2.9507 C.2     
  92 O92          -31.4174     0.0741     3.8394 O.2     
  93 O93          -29.5607    -0.9379     3.1976 O.3     
  94 C94          -37.1322     1.7717     1.2579 C.2     
  95 O95          -36.7854     0.7850     1.8720 O.2     
  96 N96          -34.8641     1.7878     0.3950 N.am    
  97 C97          -36.1545     2.4805     0.3564 C.3     
  98 C98          -36.6903     2.4813    -1.0767 C.3     
  99 C99          -35.7607     3.3072    -1.9682 C.3     
 100 C100         -36.2965     3.3080    -3.4013 C.3     
 101 C101         -35.3670     4.1339    -4.2928 C.3     
 102 N102         -35.8815     4.1347    -5.6688 N.3     
 103 C103         -40.7483     1.8223     1.7909 C.2     
 104 O104         -40.9376     2.5262     0.8215 O.2     
 105 N105         -38.3921     2.2341     1.3816 N.am    
 106 C106         -39.3426     1.5451     2.2579 C.3     
 107 C107         -39.1727     2.0503     3.6921 C.3     
 108 C108         -37.7873     1.6585     4.2100 C.3     
 109 C109         -37.6174     2.1637     5.6441 C.3     
 110 C110         -36.2320     1.7719     6.1621 C.3     
 111 N111         -36.0689     2.2570     7.5390 N.3     
 112 C112         -44.1146     1.4072     3.1544 C.2     
 113 O113         -43.6936     1.1048     4.2508 O.2     
 114 N114         -41.7952     1.2881     2.4505 N.am    
 115 C115         -43.1618     1.5576     1.9965 C.3     
 116 C116         -43.5381     0.5654     0.8943 C.3     
 117 C117         -42.6642     0.7985    -0.3112 C.ar    
 118 C118         -41.4632     0.1245    -0.4337 C.ar    
 119 C119         -40.6602     0.3368    -1.5376 C.ar    
 120 C120         -41.0599     1.2269    -2.5238 C.ar    
 121 O121         -40.2719     1.4372    -3.6109 O.3     
 122 C122         -42.2657     1.9016    -2.3987 C.ar    
 123 C123         -43.0675     1.6819    -1.2954 C.ar    
 124 C124         -47.7514     1.3145     3.6308 C.2     
 125 O125         -48.0153     1.4288     2.4526 O.2     
 126 N126         -45.4346     1.6089     2.9714 N.am    
 127 C127         -46.3475     1.5678     4.1165 C.3     
 128 C128         -46.2975     2.9059     4.8568 C.3     
 129 C129         -47.1964     2.8386     6.0931 C.3     
 130 C130         -46.6081     1.8462     7.0981 C.3     
 131 C131         -47.2839     4.2241     6.7361 C.3     
 132 C132         -51.0416     0.9912     5.1908 C.2     
 133 O133         -50.6117     1.2796     6.2876 O.2     
 134 N134         -48.7137     0.9611     4.5058 N.am    
 135 C135         -50.0905     0.7703     4.0429 C.3     
 136 C136         -50.2565    -0.6542     3.5099 C.3     
 137 C137         -49.3957    -0.8363     2.2864 C.2     
 138 C138         -49.7831    -0.6939     1.0091 C.2     
 139 N139         -48.7289    -0.9382     0.1717 N.pl3   
 140 C140         -47.6088    -1.2519     0.9085 C.ar    
 141 C141         -46.2999    -1.5779     0.5694 C.ar    
 142 C142         -45.3827    -1.8470     1.5618 C.ar    
 143 C143         -45.7511    -1.7962     2.8989 C.ar    
 144 C144         -47.0318    -1.4785     3.2545 C.ar    
 145 C145         -47.9758    -1.1961     2.2657 C.ar    
 146 C146         -54.7107     0.8867     5.6383 C.2     
 147 O147         -54.9265     0.5960     4.4807 O.2     
 148 N148         -52.3699     0.8682     4.9985 N.am    
 149 C149         -53.2944     1.0829     6.1145 C.3     
 150 C150         -58.0542     1.6203     6.9212 C.2     
 151 O151         -57.6171     2.2695     7.8477 O.2     
 152 N152         -55.7375     1.0341     6.4987 N.am    
 153 C153         -57.1143     0.8433     6.0358 C.3     
 154 C154         -57.4706    -0.6435     6.0943 C.3     
 155 C155         -56.6123    -1.4045     5.1169 C.ar    
 156 C156         -55.3939    -1.9177     5.5208 C.ar    
 157 C157         -54.6066    -2.6158     4.6243 C.ar    
 158 C158         -55.0378    -2.8010     3.3240 C.ar    
 159 C159         -56.2566    -2.2886     2.9204 C.ar    
 160 C160         -57.0459    -1.5943     3.8181 C.ar    
 161 C161         -61.6622     1.7182     7.5006 C.2     
 162 O162         -61.8542     0.7383     6.8203 O.2     
 163 N163         -59.3806     1.5937     6.6835 N.am    
 164 C164         -60.2943     2.3490     7.5442 C.3     
 165 C165         -60.3831     3.7942     7.0498 C.3     
 166 C166         -61.3373     4.5831     7.9487 C.3     
 167 O167         -59.0859     4.3924     7.0911 O.3     
 168 O168         -62.6673     2.2451     8.2175 O.3     
 169 C169           4.6624     7.2812    -8.1002 C.2     
 170 O170           4.5344     8.4092    -7.6732 O.2     
 171 C171          23.1707    10.2098    -7.8707 C.3     
 172 C172          21.7737    10.7700    -7.5965 C.3     
 173 C173          20.7233     9.7126    -7.9421 C.3     
 174 C174          19.3262    10.2728    -7.6678 C.3     
 175 C175          18.2758     9.2154    -8.0135 C.3     
 176 C176          16.8787     9.7756    -7.7392 C.3     
 177 C177          15.8283     8.7182    -8.0849 C.3     
 178 C178          14.4313     9.2784    -7.8106 C.3     
 179 C179          13.3809     8.2210    -8.1562 C.3     
 180 C180          11.9838     8.7812    -7.8820 C.3     
 181 C181          10.9334     7.7238    -8.2276 C.3     
 182 C182           9.5363     8.2840    -7.9533 C.3     
 183 C183           8.4859     7.2266    -8.2990 C.3     
 184 C184           7.0888     7.7869    -8.0247 C.3     
 185 C185           6.0385     6.7294    -8.3704 C.3     
 186 H186           3.6763     5.6192    -8.6745 H       
 187 H187           2.2714     7.7109    -7.1985 H       
 188 H188           1.8080     7.2262   -10.1750 H       
 189 H189           0.7303     8.1790    -9.1267 H       
 190 H190           3.3142     8.8337   -11.5260 H       
 191 H191           4.5546    11.0333   -10.9523 H       
 192 H192           4.0803    11.7669    -8.5488 H       
 193 H193          -0.3336     7.0932    -7.5228 H       
 194 H194          -0.6692     4.2195    -7.9188 H       
 195 H195          -1.5011     3.7935    -5.6562 H       
 196 H196           0.1538     4.4411    -5.5554 H       
 197 H197          -1.3349     5.5674    -4.0651 H       
 198 H198          -3.2047     3.7307    -7.2287 H       
 199 H199          -4.8296     6.1603    -7.4410 H       
 200 H200          -4.3639     5.4182    -9.8057 H       
 201 H201          -5.1421     3.8636    -9.4237 H       
 202 H202          -7.2200     5.1077    -8.7771 H       
 203 H203          -5.7298     7.5075    -9.9316 H       
 204 H204          -7.4080     7.4912    -9.3386 H       
 205 H205          -6.0599     7.2509    -8.2014 H       
 206 H206          -6.9436     4.2019   -11.0688 H       
 207 H207          -7.8721     5.7204   -11.0897 H       
 208 H208          -6.1591     5.7179   -11.5734 H       
 209 H209          -7.2089     5.6225    -6.9405 H       
 210 H210          -7.6298     2.8734    -5.9842 H       
 211 H211          -8.5872     3.7700    -3.8258 H       
 212 H212          -7.7948     6.0807    -3.1716 H       
 213 H213          -7.2818     6.3251    -4.8584 H       
 214 H214          -9.5955     7.2270    -4.3148 H       
 215 H215          -9.5511     6.0649    -5.6623 H       
 216 H216         -10.1167     5.5448    -4.0567 H       
 217 H217          -5.6563     4.4753    -4.2937 H       
 218 H218          -6.4147     4.0470    -2.7414 H       
 219 H219          -6.2633     2.8237    -4.0255 H       
 220 H220         -10.1864     3.0121    -4.9812 H       
 221 H221         -11.7434     4.9676    -6.4909 H       
 222 H222         -11.9594     1.9677    -7.0035 H       
 223 H223         -13.1349     3.1771    -7.5725 H       
 224 H224          -9.7225     1.8716    -7.9424 H       
 225 H225          -8.2964     2.3393    -9.8946 H       
 226 H226          -8.9920     4.0216   -11.5526 H       
 227 H227         -11.1140     5.2357   -11.2590 H       
 228 H228         -12.5441     4.7620    -9.3112 H       
 229 H229         -14.3015     4.2550    -6.0316 H       
 230 H230         -14.5522     2.9274    -3.4427 H       
 231 H231         -15.1765     5.8898    -3.8211 H       
 232 H232         -15.6778     4.9235    -2.4128 H       
 233 H233         -13.3032     4.4010    -1.9260 H       
 234 H234         -12.8019     5.3673    -3.3343 H       
 235 H235         -11.7017     5.9561    -0.2888 H       
 236 H236         -11.2004     6.9224    -1.6971 H       
 237 H237         -11.8194     7.7314    -0.2374 H       
 238 H238         -17.1357     3.2975    -2.7707 H       
 239 H239         -18.7947     3.5575    -5.1597 H       
 240 H240         -18.6006     0.9237    -3.6293 H       
 241 H241         -19.7616     1.2859    -4.9289 H       
 242 H242         -18.0202     1.2055    -5.2882 H       
 243 H243         -21.2548     2.8433    -4.3228 H       
 244 H244         -21.5794     3.4094    -1.4765 H       
 245 H245         -22.5875     5.3095    -3.6403 H       
 246 H246         -23.0874     5.3664    -1.9329 H       
 247 H247         -20.3289     5.9136    -4.2946 H       
 248 H248         -18.3185     7.2269    -3.7498 H       
 249 H249         -17.9123     7.9522    -1.4320 H       
 250 H250         -19.5171     7.3650     0.3409 H       
 251 H251         -21.5318     6.0589    -0.2054 H       
 252 H252         -24.2455     3.6457    -1.1614 H       
 253 H253         -25.6638     2.0502    -3.1540 H       
 254 H254         -25.1600     1.0423    -0.3187 H       
 255 H255         -26.3383     0.3330    -1.4486 H       
 256 H256         -22.7743     0.8309    -0.7166 H       
 257 H257         -20.9787    -0.4943    -1.7573 H       
 258 H258         -21.4927    -2.0071    -3.6309 H       
 259 H259         -23.8025    -2.1953    -4.4633 H       
 260 H260         -25.5995    -0.8763    -3.4172 H       
 261 H261         -28.0670     1.5885    -2.0253 H       
 262 H262         -28.7690     3.7401    -0.1799 H       
 263 H263         -30.3798     4.7942    -1.6924 H       
 264 H264         -28.7675     4.8249    -2.4460 H       
 265 H265         -30.4394     4.0259    -3.9534 H       
 266 H266         -31.4591     3.6367    -0.0550 H       
 267 H267         -32.4106     0.9238    -0.5672 H       
 268 H268         -32.0659     2.0227     2.2582 H       
 269 H269         -33.0021     0.5653     1.8482 H       
 270 H270         -30.9718    -0.4615     0.8622 H       
 271 H271         -30.0356     0.9958     1.2722 H       
 272 H272         -29.4507    -1.2630     4.1016 H       
 273 H273         -34.8256     0.8466     0.6263 H       
 274 H274         -36.0256     3.5080     0.6967 H       
 275 H275         -36.7352     1.4576    -1.4483 H       
 276 H276         -37.6892     2.9172    -1.0908 H       
 277 H277         -35.7158     4.3309    -1.5965 H       
 278 H278         -34.7618     2.8713    -1.9540 H       
 279 H279         -36.3415     2.2843    -3.7730 H       
 280 H280         -37.2955     3.7439    -3.4155 H       
 281 H281         -35.3220     5.1576    -3.9212 H       
 282 H282         -34.3681     3.6980    -4.2787 H       
 283 H283         -36.8310     4.4745    -5.6996 H       
 284 H284         -35.2845     4.6740    -6.2777 H       
 285 H285         -38.6695     3.0232     0.8904 H       
 286 H286         -39.1541     0.4720     2.2260 H       
 287 H287         -39.2735     3.1355     3.7094 H       
 288 H288         -39.9377     1.6041     4.3275 H       
 289 H289         -37.6864     0.5733     4.1927 H       
 290 H290         -37.0223     2.1047     3.5745 H       
 291 H291         -37.7183     3.2489     5.6614 H       
 292 H292         -38.3824     1.7175     6.2796 H       
 293 H293         -36.1312     0.6868     6.1448 H       
 294 H294         -35.4670     2.2181     5.5266 H       
 295 H295         -35.1610     2.0106     7.9040 H       
 296 H296         -36.2218     3.2529     7.5921 H       
 297 H297         -41.6439     0.7251     3.2258 H       
 298 H298         -43.2214     2.5737     1.6065 H       
 299 H299         -43.3932    -0.4524     1.2567 H       
 300 H300         -44.5830     0.7076     0.6186 H       
 301 H301         -41.1525    -0.5683     0.3343 H       
 302 H302         -39.7218    -0.1893    -1.6325 H       
 303 H303         -40.4554     0.8421    -4.3507 H       
 304 H304         -42.5789     2.5953    -3.1649 H       
 305 H305         -44.0083     2.2036    -1.1997 H       
 306 H306         -45.7801     1.7813     2.0816 H       
 307 H307         -46.0468     0.7672     4.7923 H       
 308 H308         -45.2724     3.1132     5.1638 H       
 309 H309         -46.6467     3.6997     4.1965 H       
 310 H310         -48.1937     2.5105     5.7998 H       
 311 H311         -45.5745     2.1171     7.3136 H       
 312 H312         -47.1905     1.8734     8.0190 H       
 313 H313         -46.6401     0.8411     6.6775 H       
 314 H314         -47.7031     4.9311     6.0201 H       
 315 H315         -47.9243     4.1762     7.6168 H       
 316 H316         -46.2867     4.5522     7.0294 H       
 317 H317         -48.4946     0.8330     5.4420 H       
 318 H318         -50.3086     1.4834     3.2479 H       
 319 H319         -49.9532    -1.3668     4.2769 H       
 320 H320         -51.3008    -0.8248     3.2480 H       
 321 H321         -50.7795    -0.4263     0.6896 H       
 322 H322         -48.7652    -0.8967    -0.7967 H       
 323 H323         -46.0036    -1.6204    -0.4683 H       
 324 H324         -44.3669    -2.1003     1.2965 H       
 325 H325         -45.0199    -2.0099     3.6645 H       
 326 H326         -47.3114    -1.4414     4.2970 H       
 327 H327         -52.7137     0.6375     4.1213 H       
 328 H328         -53.1762     2.0978     6.4942 H       
 329 H329         -53.0763     0.3698     6.9094 H       
 330 H330         -55.5649     1.2665     7.4245 H       
 331 H331         -57.2050     1.1986     5.0093 H       
 332 H332         -57.2948    -1.0199     7.1020 H       
 333 H333         -58.5210    -0.7759     5.8351 H       
 334 H334         -55.0570    -1.7730     6.5366 H       
 335 H335         -53.6543    -3.0161     4.9396 H       
 336 H336         -54.4224    -3.3458     2.6234 H       
 337 H337         -56.5934    -2.4331     1.9045 H       
 338 H338         -57.9998    -1.1972     3.5038 H       
 339 H339         -59.7302     1.0745     5.9425 H       
 340 H340         -59.9214     2.3377     8.5684 H       
 341 H341         -60.7559     3.8056     6.0256 H       
 342 H342         -60.9645     4.5717     8.9729 H       
 343 H343         -61.4006     5.6126     7.5964 H       
 344 H344         -62.3267     4.1268     7.9171 H       
 345 H345         -58.4280     3.9432     6.5429 H       
 346 H346         -63.5267     1.8057     8.1575 H       
 347 H347          23.9191    10.9631    -7.6245 H       
 348 H348          23.3331     9.3227    -7.2586 H       
 349 H349          23.2554     9.9445    -8.9246 H       
 350 H350          21.6890    11.0353    -6.5426 H       
 351 H351          21.6113    11.6571    -8.2086 H       
 352 H352          20.8079     9.4473    -8.9960 H       
 353 H353          20.8856     8.8255    -7.3300 H       
 354 H354          19.2416    10.5381    -6.6140 H       
 355 H355          19.1638    11.1599    -8.2800 H       
 356 H356          18.3604     8.9501    -9.0673 H       
 357 H357          18.4382     8.3283    -7.4013 H       
 358 H358          16.7941    10.0409    -6.6854 H       
 359 H359          16.7164    10.6627    -8.3514 H       
 360 H360          15.9130     8.4529    -9.1387 H       
 361 H361          15.9907     7.8311    -7.4727 H       
 362 H362          14.3466     9.5437    -6.7568 H       
 363 H363          14.2689    10.1655    -8.4227 H       
 364 H364          13.4655     7.9557    -9.2101 H       
 365 H365          13.5432     7.3339    -7.5441 H       
 366 H366          11.8992     9.0465    -6.8281 H       
 367 H367          11.8214     9.6684    -8.4941 H       
 368 H368          11.0180     7.4585    -9.2814 H       
 369 H369          11.0958     6.8367    -7.6154 H       
 370 H370           9.4517     8.5493    -6.8995 H       
 371 H371           9.3740     9.1712    -8.5655 H       
 372 H372           8.5705     6.9613    -9.3528 H       
 373 H373           8.6483     6.3395    -7.6868 H       
 374 H374           7.0042     8.0521    -6.9709 H       
 375 H375           6.9265     8.6740    -8.6369 H       
 376 H376           6.2008     5.8423    -7.7582 H       
 377 H377           6.1231     6.4642    -9.4242 H       
@<TRIPOS>BOND
   1    1    2 2
   2    1    4 1
   3    1   13 am
   4    3  169 am
   5    3    4 1
   6    3  186 1
   7    4    5 1
   8    4  187 1
   9    5    6 1
  10    5  188 1
  11    5  189 1
  12    6    7 2
  13    6   10 1
  14    7    8 1
  15    7  190 1
  16    8    9 1
  17    8  191 1
  18    9   10 2
  19    9  192 1
  20   11   12 2
  21   11   14 1
  22   11   19 am
  23   13   14 1
  24   13  193 1
  25   14   15 1
  26   14  194 1
  27   15   16 1
  28   15  195 1
  29   15  196 1
  30   16  197 1
  31   17   18 2
  32   17   20 1
  33   17   27 am
  34   19   20 1
  35   19  198 1
  36   20   21 1
  37   20  199 1
  38   21   22 1
  39   21  200 1
  40   21  201 1
  41   22   23 1
  42   22   24 1
  43   22  202 1
  44   23  203 1
  45   23  204 1
  46   23  205 1
  47   24  206 1
  48   24  207 1
  49   24  208 1
  50   25   26 2
  51   25   28 1
  52   25   35 am
  53   27   28 1
  54   27  209 1
  55   28   29 1
  56   28  210 1
  57   29   30 1
  58   29   32 1
  59   29  211 1
  60   30   31 1
  61   30  212 1
  62   30  213 1
  63   31  214 1
  64   31  215 1
  65   31  216 1
  66   32  217 1
  67   32  218 1
  68   32  219 1
  69   33   34 2
  70   33   36 1
  71   33   46 am
  72   35   36 1
  73   35  220 1
  74   36   37 1
  75   36  221 1
  76   37   38 1
  77   37  222 1
  78   37  223 1
  79   38   39 ar
  80   38   43 ar
  81   39   40 ar
  82   39  224 1
  83   40   41 ar
  84   40  225 1
  85   41   42 ar
  86   41  226 1
  87   42   43 ar
  88   42  227 1
  89   43  228 1
  90   44   45 2
  91   44   47 1
  92   44   54 am
  93   46   47 1
  94   46  229 1
  95   47   48 1
  96   47  230 1
  97   48   49 1
  98   48  231 1
  99   48  232 1
 100   49   50 1
 101   49  233 1
 102   49  234 1
 103   50   51 1
 104   51  235 1
 105   51  236 1
 106   51  237 1
 107   52   53 2
 108   52   55 1
 109   52   59 am
 110   54   55 1
 111   54  238 1
 112   55   56 1
 113   55  239 1
 114   56  240 1
 115   56  241 1
 116   56  242 1
 117   57   58 2
 118   57   60 1
 119   57   70 am
 120   59   60 1
 121   59  243 1
 122   60   61 1
 123   60  244 1
 124   61   62 1
 125   61  245 1
 126   61  246 1
 127   62   63 ar
 128   62   67 ar
 129   63   64 ar
 130   63  247 1
 131   64   65 ar
 132   64  248 1
 133   65   66 ar
 134   65  249 1
 135   66   67 ar
 136   66  250 1
 137   67  251 1
 138   68   69 2
 139   68   71 1
 140   68   81 am
 141   70   71 1
 142   70  252 1
 143   71   72 1
 144   71  253 1
 145   72   73 1
 146   72  254 1
 147   72  255 1
 148   73   74 ar
 149   73   78 ar
 150   74   75 ar
 151   74  256 1
 152   75   76 ar
 153   75  257 1
 154   76   77 ar
 155   76  258 1
 156   77   78 ar
 157   77  259 1
 158   78  260 1
 159   79   80 2
 160   79   82 1
 161   79   87 am
 162   81   82 1
 163   81  261 1
 164   82   83 1
 165   82  262 1
 166   83   84 1
 167   83  263 1
 168   83  264 1
 169   84  265 1
 170   85   86 2
 171   85   88 1
 172   85   96 am
 173   87   88 1
 174   87  266 1
 175   88   89 1
 176   88  267 1
 177   89   90 1
 178   89  268 1
 179   89  269 1
 180   90   91 1
 181   90  270 1
 182   90  271 1
 183   91   92 2
 184   91   93 1
 185   93  272 1
 186   94   95 2
 187   94   97 1
 188   94  105 am
 189   96   97 1
 190   96  273 1
 191   97   98 1
 192   97  274 1
 193   98   99 1
 194   98  275 1
 195   98  276 1
 196   99  100 1
 197   99  277 1
 198   99  278 1
 199  100  101 1
 200  100  279 1
 201  100  280 1
 202  101  102 1
 203  101  281 1
 204  101  282 1
 205  102  283 1
 206  102  284 1
 207  103  104 2
 208  103  106 1
 209  103  114 am
 210  105  106 1
 211  105  285 1
 212  106  107 1
 213  106  286 1
 214  107  108 1
 215  107  287 1
 216  107  288 1
 217  108  109 1
 218  108  289 1
 219  108  290 1
 220  109  110 1
 221  109  291 1
 222  109  292 1
 223  110  111 1
 224  110  293 1
 225  110  294 1
 226  111  295 1
 227  111  296 1
 228  112  113 2
 229  112  115 1
 230  112  126 am
 231  114  115 1
 232  114  297 1
 233  115  116 1
 234  115  298 1
 235  116  117 1
 236  116  299 1
 237  116  300 1
 238  117  118 ar
 239  117  123 ar
 240  118  119 ar
 241  118  301 1
 242  119  120 ar
 243  119  302 1
 244  120  121 1
 245  120  122 ar
 246  121  303 1
 247  122  123 ar
 248  122  304 1
 249  123  305 1
 250  124  125 2
 251  124  127 1
 252  124  134 am
 253  126  127 1
 254  126  306 1
 255  127  128 1
 256  127  307 1
 257  128  129 1
 258  128  308 1
 259  128  309 1
 260  129  130 1
 261  129  131 1
 262  129  310 1
 263  130  311 1
 264  130  312 1
 265  130  313 1
 266  131  314 1
 267  131  315 1
 268  131  316 1
 269  132  133 2
 270  132  135 1
 271  132  148 am
 272  134  135 1
 273  134  317 1
 274  135  136 1
 275  135  318 1
 276  136  137 1
 277  136  319 1
 278  136  320 1
 279  137  138 2
 280  137  145 1
 281  138  139 1
 282  138  321 1
 283  139  140 1
 284  139  322 1
 285  140  141 ar
 286  140  145 ar
 287  141  142 ar
 288  141  323 1
 289  142  143 ar
 290  142  324 1
 291  143  144 ar
 292  143  325 1
 293  144  145 ar
 294  144  326 1
 295  146  147 2
 296  146  149 1
 297  146  152 am
 298  148  149 1
 299  148  327 1
 300  149  328 1
 301  149  329 1
 302  150  151 2
 303  150  153 1
 304  150  163 am
 305  152  153 1
 306  152  330 1
 307  153  154 1
 308  153  331 1
 309  154  155 1
 310  154  332 1
 311  154  333 1
 312  155  156 ar
 313  155  160 ar
 314  156  157 ar
 315  156  334 1
 316  157  158 ar
 317  157  335 1
 318  158  159 ar
 319  158  336 1
 320  159  160 ar
 321  159  337 1
 322  160  338 1
 323  161  162 2
 324  161  164 1
 325  161  168 1
 326  163  164 1
 327  163  339 1
 328  164  165 1
 329  164  340 1
 330  165  166 1
 331  165  167 1
 332  165  341 1
 333  166  342 1
 334  166  343 1
 335  166  344 1
 336  167  345 1
 337  168  346 1
 338  169  170 2
 339  169  185 1
 340  171  172 1
 341  171  347 1
 342  171  348 1
 343  171  349 1
 344  172  173 1
 345  172  350 1
 346  172  351 1
 347  173  174 1
 348  173  352 1
 349  173  353 1
 350  174  175 1
 351  174  354 1
 352  174  355 1
 353  175  176 1
 354  175  356 1
 355  175  357 1
 356  176  177 1
 357  176  358 1
 358  176  359 1
 359  177  178 1
 360  177  360 1
 361  177  361 1
 362  178  179 1
 363  178  362 1
 364  178  363 1
 365  179  180 1
 366  179  364 1
 367  179  365 1
 368  180  181 1
 369  180  366 1
 370  180  367 1
 371  181  182 1
 372  181  368 1
 373  181  369 1
 374  182  183 1
 375  182  370 1
 376  182  371 1
 377  183  184 1
 378  183  372 1
 379  183  373 1
 380  184  185 1
 381  184  374 1
 382  184  375 1
 383  185  376 1
 384  185  377 1

#	End of record

