#	Name: ASD05430394
#	Creating user name:	WinNT
#	Creation time:	15. 06. 2019 21:00

#	Modifying user name:	WinNT
#	Modification time:	15. 06. 2019 21:00

#	Program:	/corina/corina34_cracker 3.40 0067  02.08.2006

@<TRIPOS>MOLECULE
ASD05430394
  70   73    0    0    0
SMALL
NO_CHARGES


@<TRIPOS>ATOM
   1 C1            -0.0168     1.3911     0.0097 C.ar    
   2 C2             0.0021    -0.0041     0.0020 C.ar    
   3 C3            -1.1897    -0.7190     0.0100 C.ar    
   4 C4            -2.3954    -0.0542     0.0256 C.ar    
   5 C5            -2.4227     1.3458     0.0333 C.ar    
   6 C6            -1.2220     2.0655     0.0306 C.ar    
   7 C7            -4.8671     1.3600     0.0577 C.2     
   8 C8            -3.7079     2.0574     0.0499 C.2     
   9 C9            -6.1051     2.0455     0.0736 C.2     
  10 O10            1.1512     2.0867     0.0023 O.3     
  11 C11            1.0572     3.5126     0.0108 C.3     
  12 C12            1.6004    -1.7059     0.8211 C.2     
  13 N13            1.2247    -0.6855    -0.0142 N.pl3   
  14 C14            2.8460    -2.0675     0.4592 C.2     
  15 N15            3.2254    -1.2928    -0.5680 N.2     
  16 C16            2.2633    -0.4611    -0.8610 C.2     
  17 C17            3.6713    -3.1544     1.0983 C.3     
  18 C18           -8.4810     1.9906    -0.4712 C.3     
  19 C19           -8.5979     3.3739     0.1833 C.3     
  20 C20           -7.2591     4.0620     0.1105 C.2     
  21 N21           -6.1286     3.3724     0.0754 N.2     
  22 C22           -8.3434     2.1414    -1.9643 C.ar    
  23 C23           -9.3408     2.7655    -2.6903 C.ar    
  24 C24           -8.0912     2.4177    -4.7044 C.ar    
  25 C25           -7.0900     1.7987    -3.9754 C.ar    
  26 C26           -7.2174     1.6606    -2.6063 C.ar    
  27 C27           -9.2159     2.9039    -4.0596 C.ar    
  28 N28           -7.2825     1.3368     0.0815 N.pl3   
  29 O29           -7.2155     5.2767     0.0867 O.2     
  30 F30           -7.9675     2.5536    -6.0428 F       
  31 C31           -7.3434    -0.0239     0.6211 C.3     
  32 C32           -7.6757     0.0338     2.1135 C.3     
  33 C33           -7.7394    -1.3872     2.6771 C.3     
  34 C34           -8.0717    -1.3295     4.1695 C.3     
  35 O35           -8.1311    -2.6567     4.6959 O.3     
  36 C36           -8.4368    -2.7156     6.0905 C.3     
  37 C37           -9.7212     1.1558    -0.1460 C.3     
  38 H38           -1.1701    -1.7988     0.0037 H       
  39 H39           -3.3199    -0.6125     0.0314 H       
  40 H40           -1.2380     3.1453     0.0366 H       
  41 H41           -4.8477     0.2802     0.0517 H       
  42 H42           -3.7272     3.1372     0.0559 H       
  43 H43            2.0587     3.9428     0.0036 H       
  44 H44            0.5121     3.8461    -0.8722 H       
  45 H45            0.5291     3.8365     0.9076 H       
  46 H46            1.0121    -2.1342     1.6191 H       
  47 H47            2.2884     0.2810    -1.6454 H       
  48 H48            3.4799    -4.1009     0.5925 H       
  49 H49            4.7289    -2.9047     1.0138 H       
  50 H50            3.4020    -3.2439     2.1507 H       
  51 H51           -9.3431     3.9667    -0.3471 H       
  52 H52           -8.8945     3.2603     1.2261 H       
  53 H53          -10.2180     3.1447    -2.1871 H       
  54 H54           -6.2099     1.4236    -4.4766 H       
  55 H55           -6.4369     1.1771    -2.0375 H       
  56 H56           -9.9955     3.3909    -4.6267 H       
  57 H57           -8.1160    -0.5878     0.0984 H       
  58 H58           -6.3795    -0.5133     0.4822 H       
  59 H59           -6.9032     0.5978     2.6362 H       
  60 H60           -8.6397     0.5233     2.2524 H       
  61 H61           -8.5119    -1.9511     2.1544 H       
  62 H62           -6.7754    -1.8767     2.5382 H       
  63 H63           -7.2991    -0.7656     4.6922 H       
  64 H64           -9.0356    -0.8400     4.3084 H       
  65 H65           -8.4635    -3.7565     6.4130 H       
  66 H66           -7.6719    -2.1805     6.6531 H       
  67 H67           -9.4084    -2.2549     6.2693 H       
  68 H68          -10.6091     1.6605    -0.5269 H       
  69 H69           -9.6320     0.1752    -0.6135 H       
  70 H70           -9.8062     1.0370     0.9342 H       
@<TRIPOS>BOND
   1    1    2 ar
   2    1   10 1
   3    1    6 ar
   4    2    3 ar
   5    2   13 1
   6    3    4 ar
   7    3   38 1
   8    4    5 ar
   9    4   39 1
  10    5    6 ar
  11    5    8 1
  12    6   40 1
  13    7    8 2
  14    7    9 1
  15    7   41 1
  16    8   42 1
  17    9   28 1
  18    9   21 2
  19   10   11 1
  20   11   43 1
  21   11   44 1
  22   11   45 1
  23   12   13 1
  24   12   14 2
  25   12   46 1
  26   13   16 1
  27   14   15 1
  28   14   17 1
  29   15   16 2
  30   16   47 1
  31   17   48 1
  32   17   49 1
  33   17   50 1
  34   18   19 1
  35   18   22 1
  36   18   37 1
  37   18   28 1
  38   19   20 1
  39   19   51 1
  40   19   52 1
  41   20   21 1
  42   20   29 2
  43   22   23 ar
  44   22   26 ar
  45   23   27 ar
  46   23   53 1
  47   24   25 ar
  48   24   30 1
  49   24   27 ar
  50   25   26 ar
  51   25   54 1
  52   26   55 1
  53   27   56 1
  54   28   31 1
  55   31   32 1
  56   31   57 1
  57   31   58 1
  58   32   33 1
  59   32   59 1
  60   32   60 1
  61   33   34 1
  62   33   61 1
  63   33   62 1
  64   34   35 1
  65   34   63 1
  66   34   64 1
  67   35   36 1
  68   36   65 1
  69   36   66 1
  70   36   67 1
  71   37   68 1
  72   37   69 1
  73   37   70 1

#	End of record

