#	Name: ASD01880028
#	Creating user name:	WinNT
#	Creation time:	15. 06. 2019 19:39

#	Modifying user name:	WinNT
#	Modification time:	15. 06. 2019 19:39

#	Program:	/corina/corina34_cracker 3.40 0067  02.08.2006

@<TRIPOS>MOLECULE
ASD01880028
  55   56    0    0    0
SMALL
NO_CHARGES


@<TRIPOS>ATOM
   1 C1            -0.0169     1.3931     0.0097 C.ar    
   2 C2             0.0021    -0.0041     0.0020 C.ar    
   3 C3            -1.1820    -0.7069     0.0095 C.ar    
   4 C4            -2.3950    -0.0284     0.0247 C.ar    
   5 C5            -2.4182     1.3614     0.0324 C.ar    
   6 C6            -1.2383     2.0715     0.0308 C.ar    
   7 C7           -10.8382    -0.9873     0.0979 C.ar    
   8 C8           -10.8131    -2.3794     0.0897 C.ar    
   9 C9           -11.9773    -3.0913     0.1017 C.ar    
  10 C10          -13.2087    -2.4227     0.1229 C.ar    
  11 C11          -13.2373    -1.0162     0.1317 C.ar    
  12 C12          -12.0483    -0.3082     0.1188 C.ar    
  13 O13          -14.4228    -0.3581     0.1517 O.3     
  14 C14          -14.4599    -3.1845     0.1353 C.2     
  15 C15          -14.4249    -4.6911     0.1254 C.3     
  16 O16          -15.5244    -2.6025     0.1537 O.2     
  17 O17           -3.5599    -0.7246     0.0316 O.3     
  18 C18           -4.7699     0.0354     0.0472 C.3     
  19 C19           -8.4637    -1.0513     0.0754 C.3     
  20 C20           -5.9690    -0.9148     0.0529 C.3     
  21 C21           -7.2646    -0.1011     0.0697 C.3     
  22 O22           -9.6737    -0.2913     0.0910 O.3     
  23 C23          -12.0675     1.1986     0.1285 C.3     
  24 C24          -12.0530     1.6995     1.5741 C.3     
  25 C25          -12.0725     3.2294     1.5840 C.3     
  26 C26            1.2501     2.1504     0.0017 C.2     
  27 N27            1.2297     3.4980     0.0091 N.am    
  28 O28            2.3120     1.5585    -0.0116 O.2     
  29 H29            0.9442    -0.5320    -0.0101 H       
  30 H30           -1.1682    -1.7868     0.0032 H       
  31 H31           -3.3627     1.8850     0.0438 H       
  32 H32           -1.2571     3.1513     0.0368 H       
  33 H33           -9.8665    -2.8991     0.0734 H       
  34 H34          -11.9496    -4.1709     0.0946 H       
  35 H35          -14.7547    -0.1725     1.0408 H       
  36 H36          -14.4023    -5.0608     1.1505 H       
  37 H37          -15.3131    -5.0718    -0.3787 H       
  38 H38          -13.5338    -5.0303    -0.4029 H       
  39 H39           -4.7960     0.6587     0.9410 H       
  40 H40           -4.8126     0.6689    -0.8388 H       
  41 H41           -8.4376    -1.6746    -0.8184 H       
  42 H42           -8.4210    -1.6848     0.9614 H       
  43 H43           -5.9430    -1.5381    -0.8409 H       
  44 H44           -5.9264    -1.5483     0.9390 H       
  45 H45           -7.3072     0.5324    -0.8164 H       
  46 H46           -7.2906     0.5222     0.9635 H       
  47 H47          -11.1898     1.5766    -0.3958 H       
  48 H48          -12.9695     1.5537    -0.3700 H       
  49 H49          -12.9307     1.3216     2.0985 H       
  50 H50          -11.1511     1.3444     2.0727 H       
  51 H51          -11.1948     3.6073     1.0597 H       
  52 H52          -12.9745     3.5844     1.0855 H       
  53 H53          -12.0622     3.5862     2.6139 H       
  54 H54            0.3825     3.9702     0.0197 H       
  55 H55            2.0623     3.9956     0.0038 H       
@<TRIPOS>BOND
   1    1    2 ar
   2    1   26 1
   3    1    6 ar
   4    2    3 ar
   5    2   29 1
   6    3    4 ar
   7    3   30 1
   8    4    5 ar
   9    4   17 1
  10    5    6 ar
  11    5   31 1
  12    6   32 1
  13    7    8 ar
  14    7   12 ar
  15    7   22 1
  16    8    9 ar
  17    8   33 1
  18    9   10 ar
  19    9   34 1
  20   10   11 ar
  21   10   14 1
  22   11   12 ar
  23   11   13 1
  24   12   23 1
  25   13   35 1
  26   14   15 1
  27   14   16 2
  28   15   36 1
  29   15   37 1
  30   15   38 1
  31   17   18 1
  32   18   20 1
  33   18   39 1
  34   18   40 1
  35   19   22 1
  36   19   21 1
  37   19   41 1
  38   19   42 1
  39   20   21 1
  40   20   43 1
  41   20   44 1
  42   21   45 1
  43   21   46 1
  44   23   24 1
  45   23   47 1
  46   23   48 1
  47   24   25 1
  48   24   49 1
  49   24   50 1
  50   25   51 1
  51   25   52 1
  52   25   53 1
  53   26   27 am
  54   26   28 2
  55   27   54 1
  56   27   55 1

#	End of record

