#	Name: ASD01148171
#	Creating user name:	WinNT
#	Creation time:	15. 06. 2019 19:02

#	Modifying user name:	WinNT
#	Modification time:	15. 06. 2019 19:02

#	Program:	/corina/corina34_cracker 3.40 0067  02.08.2006

@<TRIPOS>MOLECULE
ASD01148171
  44   46    0    0    0
SMALL
NO_CHARGES


@<TRIPOS>ATOM
   1 C1            -0.0167     1.3781     0.0096 C.ar    
   2 C2             0.0021    -0.0041     0.0020 C.ar    
   3 C3             1.2084    -0.6789    -0.0132 C.ar    
   4 C4             2.3960     0.0285    -0.0212 C.ar    
   5 C5             2.3773     1.4107    -0.0145 C.ar    
   6 C6             1.1710     2.0855     0.0021 C.ar    
   7 C7             3.6720     2.1819    -0.0228 C.3     
   8 O8             4.6967     1.4625    -0.7383 O.3     
   9 C9             3.5433     3.4713    -0.8686 C.3     
  10 C10            4.0468     3.0252    -2.2282 C.2     
  11 N11            4.6717     1.9053    -2.0808 N.2     
  12 C12            3.8551     3.7476    -3.5011 C.ar    
  13 C13            4.3736     3.2223    -4.6875 C.ar    
  14 C14            3.1502     4.9539    -3.5205 C.ar    
  15 C15            2.9715     5.6276    -4.7074 C.ar    
  16 C16            3.4946     5.1049    -5.8929 C.ar    
  17 C17            4.1949     3.8960    -5.8744 C.ar    
  18 C18            3.3024     5.8277    -7.1670 C.2     
  19 O19            2.6892     6.8771    -7.1838 O.2     
  20 N20            3.8069     5.3236    -8.3105 N.am    
  21 C21            4.1233     2.5042     1.4032 C.3     
  22 F22            4.2976     1.3140     2.1174 F       
  23 F23            5.3334     3.2050     1.3622 F       
  24 F24            3.1514     3.2884     2.0338 F       
  25 C25            3.6272     5.9996    -9.5020 C.2     
  26 N26            2.9759     7.1141    -9.5199 N.2     
  27 O27            2.7917     7.8069   -10.7410 O.3     
  28 C28            2.0537     9.0239   -10.6132 C.3     
  29 H29           -0.9592     1.9054     0.0170 H       
  30 H30           -0.9258    -0.5567     0.0083 H       
  31 H31            1.2231    -1.7588    -0.0184 H       
  32 H32            3.3386    -0.4987    -0.0324 H       
  33 H33            1.1563     3.1654     0.0069 H       
  34 H34            2.5035     3.7932    -0.9275 H       
  35 H35            4.1725     4.2639    -0.4639 H       
  36 H36            4.9149     2.2879    -4.6731 H       
  37 H37            2.7453     5.3575    -2.6042 H       
  38 H38            2.4267     6.5599    -4.7225 H       
  39 H39            4.5995     3.4922    -6.7907 H       
  40 H40            4.2963     4.4862    -8.2971 H       
  41 H41            4.0315     5.5956   -10.4183 H       
  42 H42            2.5792     9.6981    -9.9370 H       
  43 H43            1.9560     9.4940   -11.5917 H       
  44 H44            1.0629     8.8077   -10.2134 H       
@<TRIPOS>BOND
   1    1    2 ar
   2    1    6 ar
   3    1   29 1
   4    2    3 ar
   5    2   30 1
   6    3    4 ar
   7    3   31 1
   8    4    5 ar
   9    4   32 1
  10    5    6 ar
  11    5    7 1
  12    6   33 1
  13    7    8 1
  14    7    9 1
  15    7   21 1
  16    8   11 1
  17    9   10 1
  18    9   34 1
  19    9   35 1
  20   10   11 2
  21   10   12 1
  22   12   13 ar
  23   12   14 ar
  24   13   17 ar
  25   13   36 1
  26   14   15 ar
  27   14   37 1
  28   15   16 ar
  29   15   38 1
  30   16   17 ar
  31   16   18 1
  32   17   39 1
  33   18   19 2
  34   18   20 am
  35   20   25 1
  36   20   40 1
  37   21   22 1
  38   21   23 1
  39   21   24 1
  40   25   26 2
  41   25   41 1
  42   26   27 1
  43   27   28 1
  44   28   42 1
  45   28   43 1
  46   28   44 1

#	End of record

