#	Name: ASD03331185
#	Creating user name:	WinNT
#	Creation time:	15. 06. 2019 20:38

#	Modifying user name:	WinNT
#	Modification time:	15. 06. 2019 20:38

#	Program:	/corina/corina34_cracker 3.40 0067  02.08.2006

@<TRIPOS>MOLECULE
ASD03331185
  54   57    0    0    0
SMALL
NO_CHARGES


@<TRIPOS>ATOM
   1 N1            -0.3056     1.6540     0.4189 N.am    
   2 C2            -0.2556     0.3553     1.1075 C.3     
   3 C3             0.3579    -0.6771     0.1556 C.3     
   4 N4             1.6525    -0.1816    -0.3306 N.3     
   5 C5             1.4913     1.0505    -1.1142 C.3     
   6 C6             0.9243     2.1536    -0.2143 C.3     
   7 C7            -1.4494     2.3647     0.3649 C.2     
   8 O8            -2.4804     1.8916     0.8026 O.2     
   9 N9            -1.4505     3.5998    -0.1745 N.am    
  10 C10           -2.6594     4.2774    -0.3689 C.ar    
  11 C11           -2.7096     5.6598    -0.2472 C.ar    
  12 C12           -3.9042     6.3256    -0.4402 C.ar    
  13 C13           -5.0494     5.6171    -0.7542 C.ar    
  14 C14           -5.0028     4.2405    -0.8761 C.ar    
  15 C15           -3.8102     3.5693    -0.6895 C.ar    
  16 C16            2.3522    -1.2126    -1.1087 C.3     
  17 C17            3.5479    -0.6009    -1.7923 C.ar    
  18 C18            4.7733    -0.5800    -1.1526 C.ar    
  19 C19            5.8725    -0.0191    -1.7769 C.ar    
  20 C20            5.7485     0.5215    -3.0418 C.ar    
  21 C21            4.5197     0.5014    -3.6864 C.ar    
  22 C22            3.4198    -0.0666    -3.0599 C.ar    
  23 C23            5.7939     2.8267    -5.6263 C.ar    
  24 C24            5.5213     1.4683    -5.5543 C.ar    
  25 O25            4.3951     1.0325    -4.9309 O.3     
  26 C26            6.9390     3.2684    -6.2608 C.ar    
  27 C27            7.8141     2.3574    -6.8244 C.ar    
  28 C28            7.5443     1.0006    -6.7539 C.ar    
  29 C29            6.3997     0.5552    -6.1199 C.ar    
  30 Cl30           9.2522     2.9151    -7.6210 Cl      
  31 Cl31           8.6435    -0.1407    -7.4630 Cl      
  32 H32            0.3602     0.4390     2.0030 H       
  33 H33           -1.2646     0.0468     1.3812 H       
  34 H34            0.5044    -1.6184     0.6853 H       
  35 H35           -0.3117    -0.8354    -0.6898 H       
  36 H36            2.4598     1.3621    -1.5053 H       
  37 H37            0.8059     0.8681    -1.9419 H       
  38 H38            0.6954     3.0342    -0.8145 H       
  39 H39            1.6535     2.4103     0.5541 H       
  40 H40           -0.6133     4.0191    -0.4278 H       
  41 H41           -1.8156     6.2137    -0.0017 H       
  42 H42           -3.9440     7.4007    -0.3454 H       
  43 H43           -5.9824     6.1401    -0.9043 H       
  44 H44           -5.8989     3.6900    -1.1214 H       
  45 H45           -3.7734     2.4946    -0.7892 H       
  46 H46            2.6828    -2.0090    -0.4421 H       
  47 H47            1.6759    -1.6235    -1.8583 H       
  48 H48            4.8724    -1.0022    -0.1635 H       
  49 H49            6.8285    -0.0034    -1.2748 H       
  50 H50            6.6071     0.9598    -3.5288 H       
  51 H51            2.4623    -0.0836    -3.5593 H       
  52 H52            5.1089     3.5389    -5.1904 H       
  53 H53            7.1509     4.3259    -6.3170 H       
  54 H54            6.1893    -0.5027    -6.0646 H       
@<TRIPOS>BOND
   1    1    2 1
   2    1    6 1
   3    1    7 am
   4    2    3 1
   5    2   32 1
   6    2   33 1
   7    3    4 1
   8    3   34 1
   9    3   35 1
  10    4    5 1
  11    4   16 1
  12    5    6 1
  13    5   36 1
  14    5   37 1
  15    6   38 1
  16    6   39 1
  17    7    8 2
  18    7    9 am
  19    9   10 1
  20    9   40 1
  21   10   11 ar
  22   10   15 ar
  23   11   12 ar
  24   11   41 1
  25   12   13 ar
  26   12   42 1
  27   13   14 ar
  28   13   43 1
  29   14   15 ar
  30   14   44 1
  31   15   45 1
  32   16   17 1
  33   16   46 1
  34   16   47 1
  35   17   18 ar
  36   17   22 ar
  37   18   19 ar
  38   18   48 1
  39   19   20 ar
  40   19   49 1
  41   20   21 ar
  42   20   50 1
  43   21   22 ar
  44   21   25 1
  45   22   51 1
  46   23   24 ar
  47   23   26 ar
  48   23   52 1
  49   24   25 1
  50   24   29 ar
  51   26   27 ar
  52   26   53 1
  53   27   28 ar
  54   27   30 1
  55   28   29 ar
  56   28   31 1
  57   29   54 1

#	End of record

