#	Name: ASD01915710
#	Creating user name:	WinNT
#	Creation time:	15. 06. 2019 20:06

#	Modifying user name:	WinNT
#	Modification time:	15. 06. 2019 20:06

#	Program:	/corina/corina34_cracker 3.40 0067  02.08.2006

@<TRIPOS>MOLECULE
ASD01915710
  43   46    0    0    0
SMALL
NO_CHARGES


@<TRIPOS>ATOM
   1 C1            -0.0166     1.3727     0.0096 C.2     
   2 N2             0.0021    -0.0041     0.0020 N.pl3   
   3 C3            -1.2434    -0.7807    -0.0179 C.3     
   4 C4            -2.3411     0.0067     0.6954 C.3     
   5 N5            -2.4045     1.3987     0.2637 N.am    
   6 C6            -1.2813     2.1228     0.0393 C.2     
   7 C7             1.2844     1.7904    -0.0006 C.2     
   8 C8             2.0436     0.6124    -0.0024 C.2     
   9 N9             1.2133    -0.4043     0.0045 N.2     
  10 C10            3.5482     0.5278    -0.0114 C.3     
  11 O11            4.0995     1.8461    -0.0181 O.3     
  12 C12            5.4524     1.9481    -0.0266 C.ar    
  13 O13           -1.3172     3.3271    -0.1285 O.2     
  14 N14            6.1919     0.8514    -0.0285 N.ar    
  15 C15            6.0474     3.2028    -0.0391 C.ar    
  16 C16            7.4287     3.2931    -0.0478 C.ar    
  17 C17            8.1688     2.1191    -0.0436 C.ar    
  18 C18            7.5101     0.9054    -0.0367 C.ar    
  19 C19           -3.6550     2.0007     0.0769 C.ar    
  20 C20           -4.2876     1.9490    -1.1660 C.ar    
  21 C21           -4.2876     2.6535     1.1276 C.ar    
  22 C22           -5.5259     3.2349     0.8943 C.ar    
  23 C23           -6.0878     3.1483    -0.3635 C.ar    
  24 N24           -5.4674     2.5167    -1.3430 N.ar    
  25 O25           -3.6855     1.3107    -2.2017 O.3     
  26 C26           -4.3849     1.2933    -3.4477 C.3     
  27 H27           -1.5404    -0.9655    -1.0502 H       
  28 H28           -1.0875    -1.7314     0.4921 H       
  29 H29           -3.3017    -0.4681     0.4955 H       
  30 H30           -2.1536    -0.0209     1.7688 H       
  31 H31            1.6485     2.8071    -0.0066 H       
  32 H32            3.8876    -0.0035     0.8778 H       
  33 H33            3.8767    -0.0079    -0.9021 H       
  34 H34            5.4406     4.0962    -0.0424 H       
  35 H35            7.9192     4.2552    -0.0579 H       
  36 H36            9.2482     2.1543    -0.0505 H       
  37 H37            8.0813    -0.0112    -0.0335 H       
  38 H38           -3.8267     2.7070     2.1029 H       
  39 H39           -6.0451     3.7497     1.6892 H       
  40 H40           -7.0516     3.5996    -0.5479 H       
  41 H41           -5.3469     0.7976    -3.3176 H       
  42 H42           -4.5463     2.3161    -3.7881 H       
  43 H43           -3.7949     0.7528    -4.1880 H       
@<TRIPOS>BOND
   1    1    2 1
   2    1    7 2
   3    1    6 1
   4    2    3 1
   5    2    9 1
   6    3    4 1
   7    3   27 1
   8    3   28 1
   9    4    5 1
  10    4   29 1
  11    4   30 1
  12    5    6 am
  13    5   19 1
  14    6   13 2
  15    7    8 1
  16    7   31 1
  17    8    9 2
  18    8   10 1
  19   10   11 1
  20   10   32 1
  21   10   33 1
  22   11   12 1
  23   12   14 ar
  24   12   15 ar
  25   14   18 ar
  26   15   16 ar
  27   15   34 1
  28   16   17 ar
  29   16   35 1
  30   17   18 ar
  31   17   36 1
  32   18   37 1
  33   19   20 ar
  34   19   21 ar
  35   20   25 1
  36   20   24 ar
  37   21   22 ar
  38   21   38 1
  39   22   23 ar
  40   22   39 1
  41   23   24 ar
  42   23   40 1
  43   25   26 1
  44   26   41 1
  45   26   42 1
  46   26   43 1

#	End of record

