#	Name: ASD08150520
#	Creating user name:	WinNT
#	Creation time:	15. 06. 2019 21:16

#	Modifying user name:	WinNT
#	Modification time:	15. 06. 2019 21:16

#	Program:	/corina/corina34_cracker 3.40 0067  02.08.2006

@<TRIPOS>MOLECULE
ASD08150520
  43   47    0    0    0
SMALL
NO_CHARGES


@<TRIPOS>ATOM
   1 N1             0.0005     1.3321    -0.0229 N.am    
   2 C2             0.0774     0.0755     0.4566 C.2     
   3 C3             1.2967    -0.6317     0.4409 C.2     
   4 C4             2.4164    -0.0515    -0.0612 C.2     
   5 C5             2.3393     1.2701    -0.5670 C.ar    
   6 C6             3.4712     1.9179    -1.0984 C.ar    
   7 N7             3.3975     3.1373    -1.5634 N.ar    
   8 C8             2.2523     3.8371    -1.5631 C.ar    
   9 C9             1.0639     3.2642    -1.0482 C.ar    
  10 C10            1.1102     1.9465    -0.5366 C.ar    
  11 C11           -0.1239     5.2883    -1.5589 C.ar    
  12 C12            1.0510     5.8483    -2.0675 C.ar    
  13 C13            2.2165     5.1451    -2.0719 C.ar    
  14 O14           -0.9210    -0.4571     0.9108 O.2     
  15 C15           -1.2238     2.0116    -0.0009 C.ar    
  16 C16           -2.0914     1.9159    -1.0806 C.ar    
  17 C17           -3.2995     2.5870    -1.0565 C.ar    
  18 C18           -3.6440     3.3552     0.0443 C.ar    
  19 C19           -2.7794     3.4514     1.1217 C.ar    
  20 C20           -1.5741     2.7776     1.1035 C.ar    
  21 C21           -0.1238     4.0042    -1.0519 C.ar    
  22 N22           -1.3077     6.0324    -1.5657 N.pl3   
  23 F23           -4.8248     4.0114     0.0661 F       
  24 Cl24          -4.3852     2.4682    -2.4058 Cl      
  25 C25           -1.2657     7.4025    -1.3666 C.ar    
  26 N26           -2.3808     8.1081    -1.4872 N.ar    
  27 C27           -2.3752     9.4179    -1.3036 C.ar    
  28 C28           -1.1846    10.0506    -0.9818 C.ar    
  29 C29           -0.0369     9.2823    -0.8635 C.ar    
  30 N30           -0.1125     7.9757    -1.0548 N.ar    
  31 H31            1.3402    -1.6383     0.8298 H       
  32 H32            3.3529    -0.5893    -0.0747 H       
  33 H33            4.4175     1.3979    -1.1217 H       
  34 H34            1.0341     6.8531    -2.4631 H       
  35 H35            3.1156     5.5943    -2.4673 H       
  36 H36           -1.8225     1.3178    -1.9387 H       
  37 H37           -3.0496     4.0508     1.9784 H       
  38 H38           -0.9005     2.8528     1.9444 H       
  39 H39           -1.0340     3.5738    -0.6613 H       
  40 H40           -2.1584     5.5891    -1.7099 H       
  41 H41           -3.2872     9.9877    -1.4037 H       
  42 H42           -1.1518    11.1189    -0.8269 H       
  43 H43            0.9068     9.7444    -0.6139 H       
@<TRIPOS>BOND
   1    1    2 am
   2    1   10 1
   3    1   15 1
   4    2    3 1
   5    2   14 2
   6    3    4 2
   7    3   31 1
   8    4    5 1
   9    4   32 1
  10    5    6 ar
  11    5   10 ar
  12    6    7 ar
  13    6   33 1
  14    7    8 ar
  15    8    9 ar
  16    8   13 ar
  17    9   10 ar
  18    9   21 ar
  19   11   12 ar
  20   11   22 1
  21   11   21 ar
  22   12   13 ar
  23   12   34 1
  24   13   35 1
  25   15   16 ar
  26   15   20 ar
  27   16   17 ar
  28   16   36 1
  29   17   18 ar
  30   17   24 1
  31   18   19 ar
  32   18   23 1
  33   19   20 ar
  34   19   37 1
  35   20   38 1
  36   21   39 1
  37   22   25 1
  38   22   40 1
  39   25   26 ar
  40   25   30 ar
  41   26   27 ar
  42   27   28 ar
  43   27   41 1
  44   28   29 ar
  45   28   42 1
  46   29   30 ar
  47   29   43 1

#	End of record

