#	Name: ASD06340059
#	Creating user name:	WinNT
#	Creation time:	15. 06. 2019 21:06

#	Modifying user name:	WinNT
#	Modification time:	15. 06. 2019 21:06

#	Program:	/corina/corina34_cracker 3.40 0067  02.08.2006

@<TRIPOS>MOLECULE
ASD06340059
  35   37    0    0    0
SMALL
NO_CHARGES


@<TRIPOS>ATOM
   1 S1            -0.0210     1.6939     0.0114 S.3     
   2 N2             0.0021    -0.0041     0.0020 N.am    
   3 C3             1.2962    -0.3594    -0.0122 C.2     
   4 N4             2.1856     0.6226    -0.0155 N.am    
   5 C5             1.6912     1.8721    -0.0040 C.2     
   6 O6             1.6365    -1.5276    -0.0214 O.2     
   7 O7             2.3224     2.9128    -0.0052 O.2     
   8 C8             3.6269     0.3610    -0.0302 C.3     
   9 C9             4.1080     0.2785    -1.4559 C.ar    
  10 C10            4.5425     1.4187    -2.1057 C.ar    
  11 C11            4.9840     1.3429    -3.4144 C.ar    
  12 C12            4.9905     0.1256    -4.0724 C.ar    
  13 C13            4.5559    -1.0135    -3.4218 C.ar    
  14 C14            4.1200    -0.9381    -2.1118 C.ar    
  15 Cl15           5.5292     2.7744    -4.2313 Cl      
  16 C16           -1.1036    -0.8590     0.0084 C.ar    
  17 C17           -2.3257    -0.4205    -0.4857 C.ar    
  18 C18           -3.2923    -2.5519     0.0205 C.ar    
  19 C19           -0.9815    -2.1514     0.5036 C.ar    
  20 C20           -3.4159    -1.2680    -0.4784 C.ar    
  21 C21           -2.0758    -2.9936     0.5079 C.ar    
  22 C22           -4.4845    -3.4738     0.0274 C.3     
  23 H23            4.1482     1.1691     0.4830 H       
  24 H24            3.8302    -0.5822     0.4770 H       
  25 H25            4.5368     2.3686    -1.5918 H       
  26 H26            5.3348     0.0658    -5.0943 H       
  27 H27            4.5610    -1.9637    -3.9353 H       
  28 H28            3.7850    -1.8294    -1.6022 H       
  29 H29           -2.4231     0.5823    -0.8749 H       
  30 H30           -0.0318    -2.4970     0.8843 H       
  31 H31           -4.3663    -0.9277    -0.8623 H       
  32 H32           -1.9828    -3.9969     0.8969 H       
  33 H33           -4.5152    -4.0349    -0.9066 H       
  34 H34           -4.4032    -4.1665     0.8650 H       
  35 H35           -5.3972    -2.8866     0.1287 H       
@<TRIPOS>BOND
   1    1    2 1
   2    1    5 1
   3    2    3 am
   4    2   16 1
   5    3    4 am
   6    3    6 2
   7    4    5 am
   8    4    8 1
   9    5    7 2
  10    8    9 1
  11    8   23 1
  12    8   24 1
  13    9   10 ar
  14    9   14 ar
  15   10   11 ar
  16   10   25 1
  17   11   12 ar
  18   11   15 1
  19   12   13 ar
  20   12   26 1
  21   13   14 ar
  22   13   27 1
  23   14   28 1
  24   16   17 ar
  25   16   19 ar
  26   17   20 ar
  27   17   29 1
  28   18   20 ar
  29   18   21 ar
  30   18   22 1
  31   19   21 ar
  32   19   30 1
  33   20   31 1
  34   21   32 1
  35   22   33 1
  36   22   34 1
  37   22   35 1

#	End of record

