#	Name: ASD01916592
#	Creating user name:	WinNT
#	Creation time:	15. 06. 2019 20:07

#	Modifying user name:	WinNT
#	Modification time:	15. 06. 2019 20:07

#	Program:	/corina/corina34_cracker 3.40 0067  02.08.2006

@<TRIPOS>MOLECULE
ASD01916592
  18   18    0    0    0
SMALL
NO_CHARGES


@<TRIPOS>ATOM
   1 C1            -0.0180     1.4755     0.0102 C.2     
   2 C2             0.0021    -0.0041     0.0020 C.ar    
   3 C3             1.2196    -0.6893    -0.0133 C.ar    
   4 C4             1.2300    -2.0718    -0.0203 C.ar    
   5 C5             0.0390    -2.7744    -0.0127 C.ar    
   6 C6            -1.1692    -2.1004     0.0020 C.ar    
   7 C7            -1.1941    -0.7209     0.0154 C.ar    
   8 N8             1.0997     2.1413     0.0031 N.2     
   9 N9            -1.2264     2.1515     0.0196 N.pl3   
  10 O10            1.0805     3.5571     0.0108 O.3     
  11 F11            2.3833    -0.0030    -0.0216 F       
  12 H12            2.1698    -2.6038    -0.0322 H       
  13 H13            0.0521    -3.8543    -0.0186 H       
  14 H14           -2.0954    -2.6558     0.0071 H       
  15 H15           -2.1385    -0.1971     0.0315 H       
  16 H16           -2.0598     1.6551     0.0208 H       
  17 H17           -1.2396     3.1214     0.0249 H       
  18 H18            1.9585     3.9624     0.0046 H       
@<TRIPOS>BOND
   1    1    2 1
   2    1    8 2
   3    1    9 1
   4    2    3 ar
   5    2    7 ar
   6    3    4 ar
   7    3   11 1
   8    4    5 ar
   9    4   12 1
  10    5    6 ar
  11    5   13 1
  12    6    7 ar
  13    6   14 1
  14    7   15 1
  15    8   10 1
  16    9   16 1
  17    9   17 1
  18   10   18 1

#	End of record

