#	Name: ASD01810497
#	Creating user name:	WinNT
#	Creation time:	15. 06. 2019 19:24

#	Modifying user name:	WinNT
#	Modification time:	15. 06. 2019 19:24

#	Program:	/corina/corina34_cracker 3.40 0067  02.08.2006

@<TRIPOS>MOLECULE
ASD01810497
  40   41    0    0    0
SMALL
NO_CHARGES


@<TRIPOS>ATOM
   1 C1            -0.0169     1.3945     0.0097 C.ar    
   2 C2             0.0021    -0.0041     0.0020 C.ar    
   3 C3             1.2345    -0.6683    -0.0134 C.ar    
   4 C4             2.3894     0.0901    -0.0204 C.ar    
   5 C5             2.2899     1.4824    -0.0119 C.ar    
   6 N6             1.1030     2.0805     0.0027 N.ar    
   7 C7            -2.7972    -2.3155    -1.1748 C.3     
   8 C8            -1.5404    -1.5010    -1.0427 C.2     
   9 C9            -1.2605    -0.7696     0.0105 C.2     
  10 C10           -2.1374    -0.6599     1.2224 C.3     
  11 C11           -3.5639    -1.1061     0.8913 C.3     
  12 N12           -3.4808    -2.3618     0.1256 N.am    
  13 C13           -4.0105    -3.5074     0.5985 C.2     
  14 O14           -4.5705    -3.5181     1.6768 O.2     
  15 O15           -3.9191    -4.6399    -0.1239 O.3     
  16 C16            3.4816     2.2764    -0.0186 C.1     
  17 N17            4.4270     2.9062    -0.0239 N.1     
  18 C18           -4.5121    -5.8358     0.4473 C.3     
  19 C19           -6.0091    -5.6079     0.6669 C.3     
  20 C20           -4.3104    -7.0123    -0.5098 C.3     
  21 C21           -3.8419    -6.1475     1.7869 C.3     
  22 H22           -0.9627     1.9159     0.0170 H       
  23 H23            1.2812    -1.7472    -0.0193 H       
  24 H24            3.3574    -0.3886    -0.0319 H       
  25 H25           -3.4525    -1.8566    -1.9151 H       
  26 H26           -2.5438    -3.3279    -1.4891 H       
  27 H27           -0.8310    -1.5186    -1.8568 H       
  28 H28           -1.7371    -1.2915     2.0154 H       
  29 H29           -2.1535     0.3753     1.5633 H       
  30 H30           -4.1213    -1.2727     1.8130 H       
  31 H31           -4.0596    -0.3417     0.2929 H       
  32 H32           -6.4866    -5.3858    -0.2875 H       
  33 H33           -6.4542    -6.5057     1.0957 H       
  34 H34           -6.1528    -4.7698     1.3488 H       
  35 H35           -3.2439    -7.1746    -0.6662 H       
  36 H36           -4.7556    -7.9100    -0.0810 H       
  37 H37           -4.7879    -6.7902    -1.4642 H       
  38 H38           -3.9856    -5.3094     2.4688 H       
  39 H39           -4.2871    -7.0453     2.2158 H       
  40 H40           -2.7754    -6.3099     1.6305 H       
@<TRIPOS>BOND
   1    1    2 ar
   2    1    6 ar
   3    1   22 1
   4    2    3 ar
   5    2    9 1
   6    3    4 ar
   7    3   23 1
   8    4    5 ar
   9    4   24 1
  10    5    6 ar
  11    5   16 1
  12    7    8 1
  13    7   12 1
  14    7   25 1
  15    7   26 1
  16    8    9 2
  17    8   27 1
  18    9   10 1
  19   10   11 1
  20   10   28 1
  21   10   29 1
  22   11   12 1
  23   11   30 1
  24   11   31 1
  25   12   13 am
  26   13   14 2
  27   13   15 1
  28   15   18 1
  29   16   17 3
  30   18   19 1
  31   18   21 1
  32   18   20 1
  33   19   32 1
  34   19   33 1
  35   19   34 1
  36   20   35 1
  37   20   36 1
  38   20   37 1
  39   21   38 1
  40   21   39 1
  41   21   40 1

#	End of record

