#	Name: ASD01148483
#	Creating user name:	WinNT
#	Creation time:	15. 06. 2019 19:02

#	Modifying user name:	WinNT
#	Modification time:	15. 06. 2019 19:02

#	Program:	/corina/corina34_cracker 3.40 0067  02.08.2006

@<TRIPOS>MOLECULE
ASD01148483
  64   67    0    0    0
SMALL
NO_CHARGES


@<TRIPOS>ATOM
   1 C1            -0.0165     1.5740    -0.1083 C.ar    
   2 C2             0.0151     0.1913    -0.1461 C.ar    
   3 C3            -1.1672    -0.5273    -0.1479 C.ar    
   4 C4            -2.3790     0.1364    -0.1118 C.ar    
   5 C5            -2.4100     1.5179    -0.0741 C.ar    
   6 C6            -1.2289     2.2364    -0.0665 C.ar    
   7 C7            -3.7316     2.2409    -0.0353 C.3     
   8 O8            -4.7257     1.4622     0.6611 O.3     
   9 C9            -3.6449     3.5063     0.8510 C.3     
  10 C10           -4.1244     2.9990     2.1978 C.2     
  11 N11           -4.7092     1.8624     2.0171 N.2     
  12 C12           -3.9519     3.6867     3.4924 C.ar    
  13 C13           -4.4446     3.1051     4.6637 C.ar    
  14 C14           -3.2911     4.9164     3.5475 C.ar    
  15 C15           -3.1302     5.5578     4.7549 C.ar    
  16 C16           -3.6278     4.9791     5.9251 C.ar    
  17 C17           -4.2838     3.7463     5.8707 C.ar    
  18 C18           -3.4552     5.6673     7.2207 C.2     
  19 O19           -4.4268     6.0732     7.8272 O.2     
  20 N20           -2.2201     5.8449     7.7300 N.am    
  21 C21           -4.8209     3.1222     7.1329 C.3     
  22 C22           -4.2022     2.5921    -1.4481 C.3     
  23 F23           -4.3373     1.4198    -2.1996 F       
  24 F24           -5.4366     3.2468    -1.3793 F       
  25 F25           -3.2628     3.4309    -2.0575 F       
  26 Cl26           1.5376    -0.6415    -0.1920 Cl      
  27 C27           -2.0368     6.6413     8.9460 C.3     
  28 C28           -2.1315     5.7440    10.1531 C.ar    
  29 N29           -3.3138     5.4620    10.6642 N.ar    
  30 C30           -1.1537     5.2900     7.1208 C.2     
  31 C31           -3.4449     4.6818    11.7195 C.ar    
  32 C32           -2.3364     4.1284    12.3314 C.ar    
  33 C33           -1.0761     4.4023    11.8221 C.ar    
  34 C34           -0.9784     5.2217    10.7082 C.ar    
  35 O35           -1.2941     4.7016     6.0675 O.2     
  36 O36            0.0670     5.3879     7.6795 O.3     
  37 C37            1.1695     4.7664     6.9678 C.3     
  38 C38           -1.1336    -2.0333    -0.1895 C.3     
  39 F39           -2.4417    -2.5293    -0.1833 F       
  40 F40           -0.4813    -2.4532    -1.3537 F       
  41 F41           -0.4467    -2.5156     0.9297 F       
  42 C42            1.2708     2.3575    -0.1065 C.3     
  43 F43            0.9836     3.7261    -0.0652 F       
  44 F44            2.0290     2.0061     1.0155 F       
  45 F45            1.9947     2.0677    -1.2680 F       
  46 H46           -3.3020    -0.4245    -0.1135 H       
  47 H47           -1.2537     3.3157    -0.0370 H       
  48 H48           -2.6172     3.8637     0.9158 H       
  49 H49           -4.3047     4.2882     0.4749 H       
  50 H50           -4.9519     2.1525     4.6216 H       
  51 H51           -2.9062     5.3636     2.6430 H       
  52 H52           -2.6191     6.5082     4.7976 H       
  53 H53           -5.8126     3.5229     7.3429 H       
  54 H54           -4.8854     2.0416     7.0050 H       
  55 H55           -4.1534     3.3506     7.9637 H       
  56 H56           -1.0569     7.1181     8.9237 H       
  57 H57           -2.8119     7.4058     8.9999 H       
  58 H58           -4.4300     4.4733    12.1100 H       
  59 H59           -2.4502     3.4908    13.1957 H       
  60 H60           -0.1919     3.9841    12.2800 H       
  61 H61           -0.0129     5.4560    10.2846 H       
  62 H62            0.9793     3.6981     6.8648 H       
  63 H63            1.2630     5.2157     5.9792 H       
  64 H64            2.0937     4.9188     7.5252 H       
@<TRIPOS>BOND
   1    1    2 ar
   2    1   42 1
   3    1    6 ar
   4    2    3 ar
   5    2   26 1
   6    3    4 ar
   7    3   38 1
   8    4    5 ar
   9    4   46 1
  10    5    6 ar
  11    5    7 1
  12    6   47 1
  13    7    8 1
  14    7    9 1
  15    7   22 1
  16    8   11 1
  17    9   10 1
  18    9   48 1
  19    9   49 1
  20   10   11 2
  21   10   12 1
  22   12   13 ar
  23   12   14 ar
  24   13   17 ar
  25   13   50 1
  26   14   15 ar
  27   14   51 1
  28   15   16 ar
  29   15   52 1
  30   16   17 ar
  31   16   18 1
  32   17   21 1
  33   18   19 2
  34   18   20 am
  35   20   27 1
  36   20   30 am
  37   21   53 1
  38   21   54 1
  39   21   55 1
  40   22   23 1
  41   22   24 1
  42   22   25 1
  43   27   28 1
  44   27   56 1
  45   27   57 1
  46   28   29 ar
  47   28   34 ar
  48   29   31 ar
  49   30   35 2
  50   30   36 1
  51   31   32 ar
  52   31   58 1
  53   32   33 ar
  54   32   59 1
  55   33   34 ar
  56   33   60 1
  57   34   61 1
  58   36   37 1
  59   37   62 1
  60   37   63 1
  61   37   64 1
  62   38   39 1
  63   38   40 1
  64   38   41 1
  65   42   43 1
  66   42   44 1
  67   42   45 1

#	End of record

