#	Name: ASD08150698
#	Creating user name:	WinNT
#	Creation time:	15. 06. 2019 21:16

#	Modifying user name:	WinNT
#	Modification time:	15. 06. 2019 21:16

#	Program:	/corina/corina34_cracker 3.40 0067  02.08.2006

@<TRIPOS>MOLECULE
ASD08150698
  19   18    0    0    0
SMALL
NO_CHARGES


@<TRIPOS>ATOM
   1 C1            -0.0184     1.5028     0.0103 C.2     
   2 C2             0.0021    -0.0041     0.0020 C.3     
   3 C3             1.4295    -0.4870    -0.0142 C.2     
   4 C4             1.7249    -1.9647    -0.0250 C.3     
   5 C5             1.7154    -2.4972     1.4094 C.3     
   6 O6             1.0197     2.1211     0.0037 O.2     
   7 O7            -1.1898     2.1580     0.0194 O.3     
   8 O8             2.3366     0.3101    -0.0186 O.2     
   9 Cl9            0.4681    -2.8219    -0.9926 Cl      
  10 C10           -1.1335     3.6089     0.0270 C.3     
  11 H11           -0.4983    -0.3791     0.8948 H       
  12 H12           -0.5153    -0.3696    -0.8850 H       
  13 H13            2.7053    -2.1360    -0.4696 H       
  14 H14            0.7350    -2.3259     1.8540 H       
  15 H15            1.9290    -3.5660     1.4016 H       
  16 H16            2.4752    -1.9790     1.9944 H       
  17 H17           -0.6017     3.9472     0.9164 H       
  18 H18           -0.6102     3.9569    -0.8636 H       
  19 H19           -2.1463     4.0118     0.0340 H       
@<TRIPOS>BOND
   1    1    2 1
   2    1    6 2
   3    1    7 1
   4    2    3 1
   5    2   11 1
   6    2   12 1
   7    3    4 1
   8    3    8 2
   9    4    5 1
  10    4    9 1
  11    4   13 1
  12    5   14 1
  13    5   15 1
  14    5   16 1
  15    7   10 1
  16   10   17 1
  17   10   18 1
  18   10   19 1

#	End of record

