#	Name: ASD01910435
#	Creating user name:	WinNT
#	Creation time:	15. 06. 2019 19:55

#	Modifying user name:	WinNT
#	Modification time:	15. 06. 2019 19:55

#	Program:	/corina/corina34_cracker 3.40 0067  02.08.2006

@<TRIPOS>MOLECULE
ASD01910435
  44   47    0    0    0
SMALL
NO_CHARGES


@<TRIPOS>ATOM
   1 C1            -0.0167     1.3815     0.0096 C.ar    
   2 C2             0.0021    -0.0041     0.0020 C.ar    
   3 C3             1.2091    -0.6845    -0.0131 C.ar    
   4 C4             2.3978     0.0156    -0.0203 C.ar    
   5 C5             2.3835     1.4091    -0.0126 C.ar    
   6 C6             1.1673     2.0894     0.0021 C.ar    
   7 F7            -1.1597    -0.6935     0.0098 F       
   8 C8             3.6595     2.1663    -0.0197 C.2     
   9 N9             3.7946     3.5118    -0.0137 N.2     
  10 C10            5.0850     3.7358    -0.0230 C.2     
  11 O11            5.6913     2.5446    -0.0343 O.3     
  12 N12            4.8642     1.6574    -0.0273 N.2     
  13 C13            5.7596     5.0834    -0.0218 C.3     
  14 C14            6.6433     5.2112     1.2212 C.3     
  15 C15            7.3031     6.5919     1.2403 C.3     
  16 C16            8.1882     6.7476    -0.0003 C.3     
  17 N17            7.3768     6.4831    -1.1963 N.am    
  18 C18            6.6271     5.2221    -1.2767 C.3     
  19 C19            7.3213     7.3802    -2.2006 C.2     
  20 C20            8.0791     8.6412    -2.1054 C.ar    
  21 O21            6.6461     7.1495    -3.1853 O.2     
  22 C22            7.4899     9.7743    -1.5326 C.ar    
  23 C23            8.2063    10.9519    -1.4464 C.ar    
  24 C24            9.5054    11.0134    -1.9254 C.ar    
  25 C25           10.0953     9.8956    -2.4943 C.ar    
  26 C26            9.3934     8.7095    -2.5822 C.ar    
  27 F27            6.2236     9.7163    -1.0655 F       
  28 F28           10.2001    12.1688    -1.8377 F       
  29 F29            9.9700     7.6210    -3.1370 F       
  30 H30           -0.9597     1.9079     0.0170 H       
  31 H31            1.2193    -1.7644    -0.0190 H       
  32 H32            3.3381    -0.5155    -0.0313 H       
  33 H33            1.1518     3.1692     0.0077 H       
  34 H34            5.0036     5.8686    -0.0129 H       
  35 H35            6.0322     5.0883     2.1154 H       
  36 H36            7.4140     4.4406     1.1995 H       
  37 H37            6.5330     7.3632     1.2370 H       
  38 H38            7.9139     6.6908     2.1377 H       
  39 H39            8.5819     7.7631    -0.0431 H       
  40 H40            9.0123     6.0357     0.0470 H       
  41 H41            7.3239     4.3858    -1.3335 H       
  42 H42            5.9909     5.2310    -2.1616 H       
  43 H43            7.7529    11.8271    -1.0050 H       
  44 H44           11.1079     9.9512    -2.8658 H       
@<TRIPOS>BOND
   1    1    2 ar
   2    1    6 ar
   3    1   30 1
   4    2    3 ar
   5    2    7 1
   6    3    4 ar
   7    3   31 1
   8    4    5 ar
   9    4   32 1
  10    5    6 ar
  11    5    8 1
  12    6   33 1
  13    8    9 1
  14    8   12 2
  15    9   10 2
  16   10   11 1
  17   10   13 1
  18   11   12 1
  19   13   14 1
  20   13   18 1
  21   13   34 1
  22   14   15 1
  23   14   35 1
  24   14   36 1
  25   15   16 1
  26   15   37 1
  27   15   38 1
  28   16   17 1
  29   16   39 1
  30   16   40 1
  31   17   18 1
  32   17   19 am
  33   18   41 1
  34   18   42 1
  35   19   20 1
  36   19   21 2
  37   20   22 ar
  38   20   26 ar
  39   22   23 ar
  40   22   27 1
  41   23   24 ar
  42   23   43 1
  43   24   25 ar
  44   24   28 1
  45   25   26 ar
  46   25   44 1
  47   26   29 1

#	End of record

