#	Name: ASD01911726
#	Creating user name:	WinNT
#	Creation time:	15. 06. 2019 19:58

#	Modifying user name:	WinNT
#	Modification time:	15. 06. 2019 19:58

#	Program:	/corina/corina34_cracker 3.40 0067  02.08.2006

@<TRIPOS>MOLECULE
ASD01911726
  39   40    0    0    0
SMALL
NO_CHARGES


@<TRIPOS>ATOM
   1 N1            -0.0112     1.2602    -0.4647 N.am    
   2 C2             0.0021    -0.0041     0.0020 C.2     
   3 C3            -1.2512    -0.7546     0.1206 C.2     
   4 C4            -1.3893    -2.1141     0.0314 C.2     
   5 S5            -2.8483    -0.0696     0.4109 S.3     
   6 C6            -3.5384    -1.6330     0.3786 C.2     
   7 N7            -2.6172    -2.5347     0.1728 N.2     
   8 C8            -4.9309    -1.9146     0.5576 C.1     
   9 C9            -6.0726    -2.1455     0.7043 C.1     
  10 C10           -7.5041    -2.4350     0.8883 C.3     
  11 C11           -7.7354    -3.9445     0.7938 C.3     
  12 C12           -7.9529    -1.9354     2.2630 C.3     
  13 O13            1.0548    -0.5225     0.3250 O.2     
  14 C14            1.2125     2.0735    -0.4581 C.3     
  15 C15            1.4551     2.6108    -1.8720 C.3     
  16 C16            0.2074     3.3564    -2.3511 C.3     
  17 C17           -0.9792     2.3910    -2.3982 C.3     
  18 C18           -1.2481     1.8494    -0.9954 C.3     
  19 C19           -8.3118    -1.7261    -0.2007 C.3     
  20 H20           -0.5563    -2.7795    -0.1411 H       
  21 H21           -7.1599    -4.4495     1.5696 H       
  22 H22           -8.7954    -4.1588     0.9300 H       
  23 H23           -7.4157    -4.3004    -0.1856 H       
  24 H24           -7.7881    -0.8600     2.3303 H       
  25 H25           -9.0129    -2.1497     2.3992 H       
  26 H26           -7.3774    -2.4404     3.0388 H       
  27 H27            1.0935     2.9070     0.2341 H       
  28 H28            2.0583     1.4585    -0.1507 H       
  29 H29            2.3049     3.2932    -1.8610 H       
  30 H30            1.6637     1.7800    -2.5461 H       
  31 H31           -0.0150     4.1719    -1.6629 H       
  32 H32            0.3863     3.7608    -3.3474 H       
  33 H33           -1.8619     2.9171    -2.7618 H       
  34 H34           -0.7476     1.5623    -3.0673 H       
  35 H35           -2.0267     1.0880    -1.0408 H       
  36 H36           -1.5674     2.6632    -0.3445 H       
  37 H37           -7.9921    -2.0821    -1.1801 H       
  38 H38           -9.3718    -1.9405    -0.0645 H       
  39 H39           -8.1471    -0.6507    -0.1334 H       
@<TRIPOS>BOND
   1    1    2 am
   2    1   14 1
   3    1   18 1
   4    2    3 1
   5    2   13 2
   6    3    4 2
   7    3    5 1
   8    4    7 1
   9    4   20 1
  10    5    6 1
  11    6    7 2
  12    6    8 1
  13    8    9 3
  14    9   10 1
  15   10   11 1
  16   10   19 1
  17   10   12 1
  18   11   21 1
  19   11   22 1
  20   11   23 1
  21   12   24 1
  22   12   25 1
  23   12   26 1
  24   14   15 1
  25   14   27 1
  26   14   28 1
  27   15   16 1
  28   15   29 1
  29   15   30 1
  30   16   17 1
  31   16   31 1
  32   16   32 1
  33   17   18 1
  34   17   33 1
  35   17   34 1
  36   18   35 1
  37   18   36 1
  38   19   37 1
  39   19   38 1
  40   19   39 1

#	End of record

