#	Name: ASD00844654
#	Creating user name:	WinNT
#	Creation time:	15. 06. 2019 18:50

#	Modifying user name:	WinNT
#	Modification time:	15. 06. 2019 18:50

#	Program:	/corina/corina34_cracker 3.40 0067  02.08.2006

@<TRIPOS>MOLECULE
ASD00844654
  95  100    0    0    0
SMALL
NO_CHARGES


@<TRIPOS>ATOM
   1 C1             0.7226     1.1984    -0.4214 C.ar    
   2 C2             0.9741    -0.1423    -0.6728 C.ar    
   3 C3             0.8844    -1.0676     0.3572 C.ar    
   4 C4             0.5450    -0.6519     1.6299 C.ar    
   5 C5             0.2942     0.6852     1.8779 C.ar    
   6 C6             0.3834     1.6092     0.8534 C.ar    
   7 C7             1.1565    -2.5251     0.0874 C.3     
   8 C8             0.8606    -3.3564     1.3175 C.2     
   9 C9             0.3264    -3.0129    -1.1017 C.3     
  10 C10           -1.1304    -2.7195    -0.8512 C.2     
  11 N11           -2.0645    -3.1550    -1.7198 N.am    
  12 O12           -1.4623    -2.0916     0.1319 O.2     
  13 C13           -3.4752    -2.7802    -1.5522 C.3     
  14 C14           -4.3256    -4.0543    -1.5383 C.3     
  15 C15           -4.0375    -4.8689    -2.8015 C.3     
  16 C16           -2.5617    -5.2734    -2.8241 C.3     
  17 C17           -1.6905    -4.0085    -2.8557 C.3     
  18 C18           -4.9106    -6.1253    -2.8079 C.3     
  19 C19           -6.3876    -5.7222    -2.7870 C.3     
  20 C20           -7.2558    -6.9806    -2.8550 C.3     
  21 N21           -6.9497    -7.7221    -4.0850 N.3     
  22 C22           -5.5484    -8.1606    -4.1058 C.3     
  23 C23           -4.6292    -6.9375    -4.0751 C.3     
  24 C24           -7.8606    -8.8623    -4.2529 C.3     
  25 O25           -0.2129    -3.4669     1.8711 O.2     
  26 N26            2.0107    -3.9486     1.6810 N.am    
  27 C27            2.6298    -2.7511    -0.1635 C.ar    
  28 C28            3.0680    -3.6144     0.8331 C.ar    
  29 C29            3.4982    -2.2816    -1.1230 C.ar    
  30 C30            4.8273    -2.6700    -1.1017 C.ar    
  31 C31            5.2770    -3.5307    -0.1130 C.ar    
  32 C32            4.4057    -4.0022     0.8503 C.ar    
  33 Cl33           5.9262    -2.0812    -2.3097 Cl      
  34 F34            6.5733    -3.9105    -0.0908 F       
  35 C35            1.8347    -6.5949     2.4162 C.ar    
  36 C36            0.5745    -6.9298     1.9434 C.ar    
  37 C37            2.8388    -7.5438     2.4353 C.ar    
  38 C38            2.5884    -8.8260     1.9833 C.ar    
  39 C39            1.3328    -9.1625     1.5115 C.ar    
  40 C40            0.3255    -8.2176     1.4907 C.ar    
  41 H41            1.1396   -10.1649     1.1589 H       
  42 O42           -0.4149    -5.9984     1.9240 O.3     
  43 C43           -1.6874    -6.4139     1.4238 C.3     
  44 C44           -7.6805    -9.4575    -5.6508 C.3     
  45 C45           -8.6293   -10.6450    -5.8256 C.3     
  46 O46            1.3075    -0.5489    -1.9260 O.3     
  47 C47            1.3254     0.4491    -2.9486 C.3     
  48 C48            1.7962    -0.1761    -4.2633 C.3     
  49 F49            3.0465    -0.7744    -4.0737 F       
  50 F50            0.8740    -1.1438    -4.6760 F       
  51 S51            2.1569    -4.9587     2.9851 S.o2    
  52 O52            3.5259    -4.9281     3.3648 O.2     
  53 O53            1.0970    -4.6259     3.8712 O.2     
  54 H54            0.7961     1.9213    -1.2205 H       
  55 H55            0.4750    -1.3718     2.4319 H       
  56 H56            0.0283     1.0082     2.8735 H       
  57 H57            0.1871     2.6530     1.0497 H       
  58 H58            0.6503    -2.4984    -2.0064 H       
  59 H59            0.4647    -4.0870    -1.2251 H       
  60 H60           -3.6020    -2.2460    -0.6105 H       
  61 H61           -3.7850    -2.1431    -2.3806 H       
  62 H62           -4.0776    -4.6477    -0.6583 H       
  63 H63           -5.3819    -3.7864    -1.5111 H       
  64 H64           -4.2624    -4.2662    -3.6814 H       
  65 H65           -2.3303    -5.8553    -1.9320 H       
  66 H66           -2.3625    -5.8732    -3.7121 H       
  67 H67           -1.8560    -3.4741    -3.7912 H       
  68 H68           -0.6398    -4.2863    -2.7722 H       
  69 H69           -4.6855    -6.7298    -1.9292 H       
  70 H70           -6.6039    -5.1802    -1.8663 H       
  71 H71           -6.6030    -5.0847    -3.6444 H       
  72 H72           -7.0499    -7.6111    -1.9900 H       
  73 H73           -8.3081    -6.6963    -2.8547 H       
  74 H74           -5.3504    -8.7856    -3.2350 H       
  75 H75           -5.3605    -8.7334    -5.0139 H       
  76 H76           -4.8169    -6.3191    -4.9528 H       
  77 H77           -3.5892    -7.2637    -4.0748 H       
  78 H78           -7.6354    -9.6208    -3.5032 H       
  79 H79           -8.8902    -8.5257    -4.1312 H       
  80 H80            3.1432    -1.6113    -1.8918 H       
  81 H81            4.7628    -4.6725     1.6183 H       
  82 H82            3.8202    -7.2835     2.8033 H       
  83 H83            3.3747    -9.5662     1.9984 H       
  84 H84           -0.6551    -8.4810     1.1228 H       
  85 H85           -2.0680    -7.2328     2.0343 H       
  86 H86           -2.3844    -5.5768     1.4634 H       
  87 H87           -1.5805    -6.7491     0.3922 H       
  88 H88           -7.9057    -8.6990    -6.4004 H       
  89 H89           -6.6509    -9.7941    -5.7724 H       
  90 H90           -8.4040   -11.4035    -5.0760 H       
  91 H91           -9.6588   -10.3084    -5.7040 H       
  92 H92           -8.5009   -11.0690    -6.8215 H       
  93 H93            0.3220     0.8548    -3.0780 H       
  94 H94            2.0070     1.2501    -2.6626 H       
  95 H95            1.8759     0.5985    -5.0260 H       
@<TRIPOS>BOND
   1    1    2 ar
   2    1    6 ar
   3    1   54 1
   4    2    3 ar
   5    2   46 1
   6    3    4 ar
   7    3    7 1
   8    4    5 ar
   9    4   55 1
  10    5    6 ar
  11    5   56 1
  12    6   57 1
  13    7    8 1
  14    7    9 1
  15    7   27 1
  16    8   25 2
  17    8   26 am
  18    9   10 1
  19    9   58 1
  20    9   59 1
  21   10   11 am
  22   10   12 2
  23   11   13 1
  24   11   17 1
  25   13   14 1
  26   13   60 1
  27   13   61 1
  28   14   15 1
  29   14   62 1
  30   14   63 1
  31   15   16 1
  32   15   18 1
  33   15   64 1
  34   16   17 1
  35   16   65 1
  36   16   66 1
  37   17   67 1
  38   17   68 1
  39   18   19 1
  40   18   23 1
  41   18   69 1
  42   19   20 1
  43   19   70 1
  44   19   71 1
  45   20   21 1
  46   20   72 1
  47   20   73 1
  48   21   22 1
  49   21   24 1
  50   22   23 1
  51   22   74 1
  52   22   75 1
  53   23   76 1
  54   23   77 1
  55   24   44 1
  56   24   78 1
  57   24   79 1
  58   26   51 am
  59   26   28 1
  60   27   28 ar
  61   27   29 ar
  62   28   32 ar
  63   29   30 ar
  64   29   80 1
  65   30   31 ar
  66   30   33 1
  67   31   32 ar
  68   31   34 1
  69   32   81 1
  70   35   36 ar
  71   35   37 ar
  72   35   51 1
  73   36   42 1
  74   36   40 ar
  75   37   38 ar
  76   37   82 1
  77   38   39 ar
  78   38   83 1
  79   39   40 ar
  80   39   41 1
  81   40   84 1
  82   42   43 1
  83   43   85 1
  84   43   86 1
  85   43   87 1
  86   44   45 1
  87   44   88 1
  88   44   89 1
  89   45   90 1
  90   45   91 1
  91   45   92 1
  92   46   47 1
  93   47   48 1
  94   47   93 1
  95   47   94 1
  96   48   49 1
  97   48   50 1
  98   48   95 1
  99   51   52 2
 100   51   53 2

#	End of record

