#	Name: ASD05313189
#	Creating user name:	WinNT
#	Creation time:	15. 06. 2019 20:58

#	Modifying user name:	WinNT
#	Modification time:	15. 06. 2019 20:58

#	Program:	/corina/corina34_cracker 3.40 0067  02.08.2006

@<TRIPOS>MOLECULE
ASD05313189
  34   37    0    0    0
SMALL
NO_CHARGES


@<TRIPOS>ATOM
   1 C1            -0.0724     0.8195     1.0218 C.2     
   2 C2             0.1133    -0.6173     0.5953 C.3     
   3 N3             0.9303     1.7322     1.0479 N.pl3   
   4 N4             1.4567    -0.7176    -0.0059 N.am    
   5 C5             2.5710    -0.0360     0.6702 C.3     
   6 C6             2.3170     1.4762     0.6624 C.3     
   7 N7            -0.9057     2.6431     1.7050 N.2     
   8 N8            -1.1579     1.4109     1.4236 N.2     
   9 C9             0.3717     2.8935     1.4921 C.2     
  10 S10            2.7278     4.5311     1.4298 S.3     
  11 N11            2.6014     6.1567     1.9091 N.2     
  12 C12            1.3508     6.3342     2.2328 C.2     
  13 N13            0.5396     5.3132     2.1270 N.2     
  14 C14            1.0623     4.1797     1.6975 C.2     
  15 C15            1.6573    -1.4143    -1.1420 C.2     
  16 O16            2.7493    -1.4045    -1.6763 O.2     
  17 C17            0.5504    -2.1899    -1.7380 C.ar    
  18 C18            0.3192    -2.1376    -3.1152 C.ar    
  19 C19           -0.7184    -2.8666    -3.6660 C.ar    
  20 C20           -1.5273    -3.6467    -2.8538 C.ar    
  21 C21           -1.3011    -3.7003    -1.4885 C.ar    
  22 C22           -0.2655    -2.9826    -0.9284 C.ar    
  23 F23           -0.9448    -2.8185    -4.9970 F       
  24 Cl24          -2.8290    -4.5595    -3.5509 Cl      
  25 Cl25           1.3316    -1.1598    -4.1314 Cl      
  26 H26            0.0436    -1.2746     1.4620 H       
  27 H27           -0.6444    -0.8879    -0.1401 H       
  28 H28            2.6424    -0.3880     1.6993 H       
  29 H29            3.5017    -0.2516     0.1455 H       
  30 H30            2.4956     1.8705    -0.3380 H       
  31 H31            2.9877     1.9617     1.3713 H       
  32 H32            0.9957     7.2941     2.5777 H       
  33 H33           -1.9352    -4.3093    -0.8612 H       
  34 H34           -0.0886    -3.0297     0.1360 H       
@<TRIPOS>BOND
   1    1    2 1
   2    1    3 1
   3    1    8 2
   4    2    4 1
   5    2   26 1
   6    2   27 1
   7    3    6 1
   8    3    9 1
   9    4    5 1
  10    4   15 am
  11    5    6 1
  12    5   28 1
  13    5   29 1
  14    6   30 1
  15    6   31 1
  16    7    8 1
  17    7    9 2
  18    9   14 1
  19   10   11 1
  20   10   14 1
  21   11   12 2
  22   12   13 1
  23   12   32 1
  24   13   14 2
  25   15   16 2
  26   15   17 1
  27   17   18 ar
  28   17   22 ar
  29   18   19 ar
  30   18   25 1
  31   19   20 ar
  32   19   23 1
  33   20   21 ar
  34   20   24 1
  35   21   22 ar
  36   21   33 1
  37   22   34 1

#	End of record

