#	Name: ASD01810915
#	Creating user name:	WinNT
#	Creation time:	15. 06. 2019 19:25

#	Modifying user name:	WinNT
#	Modification time:	15. 06. 2019 19:25

#	Program:	/corina/corina34_cracker 3.40 0067  02.08.2006

@<TRIPOS>MOLECULE
ASD01810915
  24   24    0    0    0
SMALL
NO_CHARGES


@<TRIPOS>ATOM
   1 C1            -0.0245     1.4718    -0.0621 C.2     
   2 C2            -0.0011    -0.0044    -0.0331 C.ar    
   3 C3             1.2139    -0.6883    -0.1185 C.ar    
   4 C4             1.2292    -2.0665    -0.0904 C.ar    
   5 C5             0.0428    -2.7732     0.0219 C.ar    
   6 C6            -1.1651    -2.1008     0.1066 C.ar    
   7 C7            -1.1930    -0.7222     0.0858 C.ar    
   8 O8             1.0177     2.0959    -0.0617 O.2     
   9 O9            -1.2015     2.1263    -0.0947 O.3     
  10 C10            2.5052     0.0787    -0.2417 C.3     
  11 C11            2.9532     0.5490     1.1435 C.3     
  12 Cl12           0.0703    -4.5086     0.0561 Cl      
  13 C13           -1.1485     3.5771    -0.1220 C.3     
  14 H14            2.1679    -2.5965    -0.1564 H       
  15 H15           -2.0866    -2.6573     0.1933 H       
  16 H16           -2.1351    -0.1990     0.1564 H       
  17 H17            3.2714    -0.5663    -0.6718 H       
  18 H18            2.3538     0.9436    -0.8877 H       
  19 H19            3.8872     1.1038     1.0544 H       
  20 H20            2.1870     1.1941     1.5737 H       
  21 H21            3.1046    -0.3158     1.7895 H       
  22 H22           -0.6369     3.9388     0.7699 H       
  23 H23           -0.6068     3.9042    -1.0094 H       
  24 H24           -2.1621     3.9773    -0.1469 H       
@<TRIPOS>BOND
   1    1    2 1
   2    1    8 2
   3    1    9 1
   4    2    3 ar
   5    2    7 ar
   6    3    4 ar
   7    3   10 1
   8    4    5 ar
   9    4   14 1
  10    5    6 ar
  11    5   12 1
  12    6    7 ar
  13    6   15 1
  14    7   16 1
  15    9   13 1
  16   10   11 1
  17   10   17 1
  18   10   18 1
  19   11   19 1
  20   11   20 1
  21   11   21 1
  22   13   22 1
  23   13   23 1
  24   13   24 1

#	End of record

