#	Name: ASD01420093
#	Creating user name:	WinNT
#	Creation time:	15. 06. 2019 19:20

#	Modifying user name:	WinNT
#	Modification time:	15. 06. 2019 19:20

#	Program:	/corina/corina34_cracker 3.40 0067  02.08.2006

@<TRIPOS>MOLECULE
ASD01420093
  56   58    0    0    0
SMALL
NO_CHARGES


@<TRIPOS>ATOM
   1 C1             0.1253     1.3772     0.4779 C.2     
   2 O2             0.2721     0.1862     0.6752 O.2     
   3 C3             1.1791     3.5776    -0.1290 C.3     
   4 N4             1.1970     2.1566     0.2318 N.am    
   5 C5             2.6039     1.7457     0.2743 C.3     
   6 C6             3.4439     2.9499    -0.0693 C.ar    
   7 C7             4.8151     3.1048    -0.1700 C.ar    
   8 C8             5.3518     4.3375    -0.5082 C.ar    
   9 C9             4.5106     5.4152    -0.7453 C.ar    
  10 C10            3.1431     5.2562    -0.6437 C.ar    
  11 C11            2.6086     4.0241    -0.3058 C.ar    
  12 O12            6.6986     4.4902    -0.6067 O.3     
  13 C13            7.1802     5.7886    -0.9592 C.3     
  14 C14            8.7088     5.7660    -1.0212 C.3     
  15 N15            9.1414     4.8965    -2.1233 N.3     
  16 C16            8.9567     5.5598    -3.4209 C.3     
  17 C17           10.5362     4.4722    -1.9427 C.3     
  18 C18           -1.2243     1.9670     0.5019 C.ar    
  19 C19           -2.0897     1.7026     1.5745 C.ar    
  20 C20           -3.3559     2.2612     1.5894 C.ar    
  21 C21           -3.7663     3.0789     0.5465 C.ar    
  22 C22           -2.9094     3.3419    -0.5176 C.ar    
  23 C23           -1.6461     2.7972    -0.5410 C.ar    
  24 C24           -3.3644     4.2314    -1.6458 C.3     
  25 C25           -2.4345     5.4421    -1.7476 C.3     
  26 C26           -3.3274     3.4481    -2.9596 C.3     
  27 O27           -5.0090     3.6241     0.5641 O.3     
  28 O28           -1.6868     0.9021     2.5929 O.3     
  29 H29            0.6312     3.7152    -1.0612 H       
  30 H30            0.7075     4.1548     0.6663 H       
  31 H31            2.8557     1.3928     1.2743 H       
  32 H32            2.7794     0.9531    -0.4532 H       
  33 H33            5.4680     2.2647     0.0153 H       
  34 H34            4.9251     6.3771    -1.0086 H       
  35 H35            2.4882     6.0950    -0.8282 H       
  36 H36            6.7813     6.0721    -1.9331 H       
  37 H37            6.8576     6.5116    -0.2100 H       
  38 H38            9.0806     6.7769    -1.1885 H       
  39 H39            9.1050     5.3843    -0.0802 H       
  40 H40            9.5456     6.4767    -3.4473 H       
  41 H41            9.2848     4.8942    -4.2192 H       
  42 H42            7.9027     5.8009    -3.5589 H       
  43 H43           10.6141     3.8494    -1.0516 H       
  44 H44           10.8581     3.9018    -2.8139 H       
  45 H45           11.1713     5.3507    -1.8286 H       
  46 H46           -4.0249     2.0601     2.4130 H       
  47 H47           -0.9823     3.0074    -1.3666 H       
  48 H48           -4.3823     4.5703    -1.4534 H       
  49 H49           -2.7636     6.0855    -2.5636 H       
  50 H50           -2.4608     6.0002    -0.8116 H       
  51 H51           -1.4165     5.1032    -1.9400 H       
  52 H52           -3.9899     2.5856    -2.8871 H       
  53 H53           -3.6565     4.0915    -3.7756 H       
  54 H54           -2.3095     3.1092    -3.1520 H       
  55 H55           -5.0537     4.4872     0.9979 H       
  56 H56           -1.2538     1.3746     3.3170 H       
@<TRIPOS>BOND
   1    1    2 2
   2    1    4 am
   3    1   18 1
   4    3    4 1
   5    3   11 1
   6    3   29 1
   7    3   30 1
   8    4    5 1
   9    5    6 1
  10    5   31 1
  11    5   32 1
  12    6    7 ar
  13    6   11 ar
  14    7    8 ar
  15    7   33 1
  16    8    9 ar
  17    8   12 1
  18    9   10 ar
  19    9   34 1
  20   10   11 ar
  21   10   35 1
  22   12   13 1
  23   13   14 1
  24   13   36 1
  25   13   37 1
  26   14   15 1
  27   14   38 1
  28   14   39 1
  29   15   16 1
  30   15   17 1
  31   16   40 1
  32   16   41 1
  33   16   42 1
  34   17   43 1
  35   17   44 1
  36   17   45 1
  37   18   19 ar
  38   18   23 ar
  39   19   20 ar
  40   19   28 1
  41   20   21 ar
  42   20   46 1
  43   21   22 ar
  44   21   27 1
  45   22   23 ar
  46   22   24 1
  47   23   47 1
  48   24   25 1
  49   24   26 1
  50   24   48 1
  51   25   49 1
  52   25   50 1
  53   25   51 1
  54   26   52 1
  55   26   53 1
  56   26   54 1
  57   27   55 1
  58   28   56 1

#	End of record

