#	Name: ASD01882337
#	Creating user name:	WinNT
#	Creation time:	15. 06. 2019 19:44

#	Modifying user name:	WinNT
#	Modification time:	15. 06. 2019 19:44

#	Program:	/corina/corina34_cracker 3.40 0067  02.08.2006

@<TRIPOS>MOLECULE
ASD01882337
  52   55    0    0    0
SMALL
NO_CHARGES


@<TRIPOS>ATOM
   1 C1             0.7325     1.4200     1.0811 C.2     
   2 C2             0.7681     0.0147     1.0979 C.2     
   3 C3             1.2066    -0.6546    -0.0130 C.2     
   4 C4             1.6135     0.0753    -1.1506 C.2     
   5 C5             1.5712     1.4222    -1.1448 C.2     
   6 N6             1.1358     2.0991    -0.0428 N.pl3   
   7 N7             0.5215     3.5067     1.4678 N.2     
   8 N8             0.3653     2.3319     1.9687 N.2     
   9 C9             0.9860     3.4230     0.2489 C.2     
  10 C10            1.2967     4.5782    -0.6677 C.3     
  11 O11            0.1348     4.9054    -1.4325 O.3     
  12 C12            0.3230     5.9942    -2.3386 C.3     
  13 C13           -0.5876     5.8094    -3.5541 C.3     
  14 C14           -0.0244     7.3082    -1.6362 C.3     
  15 N15            1.2514    -2.0467    -0.0204 N.pl3   
  16 C16            2.5331    -2.7538    -0.1467 C.3     
  17 C17            2.4377    -3.7432    -1.3123 C.3     
  18 C18            1.2317    -4.6611    -1.0996 C.3     
  19 C19           -0.0494    -3.8245    -1.0701 C.3     
  20 C20            0.0184    -2.8360     0.1039 C.3     
  21 C21            1.1545    -5.6580    -2.2271 C.ar    
  22 C22            0.3513    -6.7766    -2.1069 C.ar    
  23 C23            0.2804    -7.6911    -3.1411 C.ar    
  24 C24            1.0125    -7.4867    -4.2958 C.ar    
  25 C25            1.8150    -6.3676    -4.4164 C.ar    
  26 C26            1.8825    -5.4509    -3.3838 C.ar    
  27 F27            1.3722    -5.3414     0.1148 F       
  28 Cl28           0.2630    -0.8607     2.5093 Cl      
  29 H29            1.9606    -0.4479    -2.0294 H       
  30 H30            1.8851     1.9710    -2.0203 H       
  31 H31            1.5964     5.4422    -0.0745 H       
  32 H32            2.1081     4.3002    -1.3404 H       
  33 H33            1.3629     6.0202    -2.6643 H       
  34 H34           -1.6275     5.7833    -3.2284 H       
  35 H35           -0.4441     6.6399    -4.2453 H       
  36 H36           -0.3401     4.8732    -4.0546 H       
  37 H37            0.1191     8.1388    -2.3274 H       
  38 H38           -1.0643     7.2822    -1.3105 H       
  39 H39            0.6243     7.4399    -0.7702 H       
  40 H40            3.3292    -2.0352    -0.3416 H       
  41 H41            2.7442    -3.2950     0.7756 H       
  42 H42            2.3169    -3.1945    -2.2463 H       
  43 H43            3.3473    -4.3421    -1.3566 H       
  44 H44           -0.1467    -3.2750    -2.0064 H       
  45 H45           -0.9099    -4.4812    -0.9419 H       
  46 H46            0.0286    -3.3837     1.0463 H       
  47 H47           -0.8453    -2.1717     0.0744 H       
  48 H48           -0.2207    -6.9363    -1.2048 H       
  49 H49           -0.3465    -8.5654    -3.0469 H       
  50 H50            0.9577    -8.2015    -5.1035 H       
  51 H51            2.3872    -6.2080    -5.3183 H       
  52 H52            2.5066    -4.5747    -3.4795 H       
@<TRIPOS>BOND
   1    1    2 1
   2    1    6 1
   3    1    8 2
   4    2    3 2
   5    2   28 1
   6    3    4 1
   7    3   15 1
   8    4    5 2
   9    4   29 1
  10    5    6 1
  11    5   30 1
  12    6    9 1
  13    7    8 1
  14    7    9 2
  15    9   10 1
  16   10   11 1
  17   10   31 1
  18   10   32 1
  19   11   12 1
  20   12   13 1
  21   12   14 1
  22   12   33 1
  23   13   34 1
  24   13   35 1
  25   13   36 1
  26   14   37 1
  27   14   38 1
  28   14   39 1
  29   15   16 1
  30   15   20 1
  31   16   17 1
  32   16   40 1
  33   16   41 1
  34   17   18 1
  35   17   42 1
  36   17   43 1
  37   18   19 1
  38   18   21 1
  39   18   27 1
  40   19   20 1
  41   19   44 1
  42   19   45 1
  43   20   46 1
  44   20   47 1
  45   21   22 ar
  46   21   26 ar
  47   22   23 ar
  48   22   48 1
  49   23   24 ar
  50   23   49 1
  51   24   25 ar
  52   24   50 1
  53   25   26 ar
  54   25   51 1
  55   26   52 1

#	End of record

