#	Name: ASD07130005
#	Creating user name:	WinNT
#	Creation time:	15. 06. 2019 21:09

#	Modifying user name:	WinNT
#	Modification time:	15. 06. 2019 21:09

#	Program:	/corina/corina34_cracker 3.40 0067  02.08.2006

@<TRIPOS>MOLECULE
ASD07130005
  45   47    0    0    0
SMALL
NO_CHARGES


@<TRIPOS>ATOM
   1 C1            -0.0168     1.3870     0.0097 C.ar    
   2 C2             0.0021    -0.0041     0.0020 C.ar    
   3 C3            -1.1697    -0.7174     0.0089 C.ar    
   4 C4            -2.4134    -0.0516     0.0243 C.ar    
   5 C5            -2.4207     1.3466     0.0323 C.ar    
   6 C6            -1.2239     2.0586     0.0306 C.ar    
   7 N7            -3.6536    -0.5818     0.0335 N.2     
   8 C8            -4.6548     0.2274     0.0481 C.2     
   9 S9            -4.0954     1.8940     0.0521 S.3     
  10 N10           -5.9843    -0.1602     0.0583 N.am    
  11 C11           -6.3046    -1.4693     0.0538 C.2     
  12 C12           -7.7211    -1.8823     0.0647 C.ar    
  13 O13           -5.4264    -2.3100     0.0406 O.2     
  14 C14           -8.0554    -3.2393     0.0600 C.ar    
  15 C15           -9.3785    -3.6204     0.0702 C.ar    
  16 C16          -10.3811    -2.6577     0.0852 C.ar    
  17 C17          -10.0528    -1.3070     0.0899 C.ar    
  18 C18           -8.7321    -0.9175     0.0856 C.ar    
  19 O19          -11.6839    -3.0375     0.0947 O.3     
  20 C20          -12.6630    -1.9967     0.1099 C.3     
  21 C21          -14.0630    -2.6137     0.1189 C.3     
  22 C22          -15.1113    -1.4993     0.1352 C.3     
  23 O23            1.1507     2.0842     0.0023 O.3     
  24 C24            2.3604     1.3237    -0.0134 C.3     
  25 C25            3.5599     2.2735    -0.0197 C.3     
  26 H26            0.9471    -0.5267    -0.0098 H       
  27 H27           -1.1398    -1.7969     0.0021 H       
  28 H28           -1.2395     3.1385     0.0372 H       
  29 H29           -6.6849     0.5105     0.0688 H       
  30 H30           -7.2771    -3.9879     0.0480 H       
  31 H31           -9.6377    -4.6689     0.0662 H       
  32 H32          -10.8347    -0.5621     0.1012 H       
  33 H33           -8.4779     0.1322     0.0896 H       
  34 H34          -12.5295    -1.3854     1.0025 H       
  35 H35          -12.5457    -1.3746    -0.7774 H       
  36 H36          -14.1964    -3.2250    -0.7736 H       
  37 H37          -14.1802    -3.2358     1.0063 H       
  38 H38          -14.9779    -0.8880     1.0278 H       
  39 H39          -14.9941    -0.8772    -0.7521 H       
  40 H40          -16.1087    -1.9388     0.1417 H       
  41 H41            2.4030     0.6905     0.8729 H       
  42 H42            2.3860     0.7001    -0.9070 H       
  43 H43            3.5173     2.9066    -0.9059 H       
  44 H44            3.5342     2.8971     0.8739 H       
  45 H45            4.4826     1.6934    -0.0316 H       
@<TRIPOS>BOND
   1    1    2 ar
   2    1   23 1
   3    1    6 ar
   4    2    3 ar
   5    2   26 1
   6    3    4 ar
   7    3   27 1
   8    4    5 ar
   9    4    7 1
  10    5    6 ar
  11    5    9 1
  12    6   28 1
  13    7    8 2
  14    8    9 1
  15    8   10 1
  16   10   11 am
  17   10   29 1
  18   11   12 1
  19   11   13 2
  20   12   14 ar
  21   12   18 ar
  22   14   15 ar
  23   14   30 1
  24   15   16 ar
  25   15   31 1
  26   16   17 ar
  27   16   19 1
  28   17   18 ar
  29   17   32 1
  30   18   33 1
  31   19   20 1
  32   20   21 1
  33   20   34 1
  34   20   35 1
  35   21   22 1
  36   21   36 1
  37   21   37 1
  38   22   38 1
  39   22   39 1
  40   22   40 1
  41   23   24 1
  42   24   25 1
  43   24   41 1
  44   24   42 1
  45   25   43 1
  46   25   44 1
  47   25   45 1

#	End of record

