#	Name: ASD03090792
#	Creating user name:	WinNT
#	Creation time:	15. 06. 2019 20:29

#	Modifying user name:	WinNT
#	Modification time:	15. 06. 2019 20:29

#	Program:	/corina/corina34_cracker 3.40 0067  02.08.2006

@<TRIPOS>MOLECULE
ASD03090792
  45   47    0    0    0
SMALL
NO_CHARGES


@<TRIPOS>ATOM
   1 N1             0.0083     1.5589    -0.1479 N.pl3   
   2 N2             0.1170     0.1589    -0.1525 N.2     
   3 C3             1.2481     2.0365     0.1001 C.2     
   4 N4             2.0596     1.0074     0.2380 N.2     
   5 C5             1.3766    -0.1278     0.0854 C.2     
   6 C6            -1.2067     2.3458    -0.3736 C.3     
   7 C7            -1.9325     2.5561     0.9568 C.3     
   8 C8            -3.1324     3.4809     0.7425 C.3     
   9 O9            -2.3854     1.2963     1.4567 O.3     
  10 C10           -3.7843     3.7913     2.0914 C.3     
  11 N11            1.9139    -1.4140     0.1656 N.pl3   
  12 C12            3.2946    -1.5876     0.3063 C.ar    
  13 C13            3.7936    -2.7394     0.9014 C.ar    
  14 C14            4.1684    -0.6115    -0.1538 C.ar    
  15 C15            5.5334    -0.7858    -0.0139 C.ar    
  16 C16            6.0280    -1.9344     0.5854 C.ar    
  17 C17            5.1573    -2.9100     1.0394 C.ar    
  18 F18            7.3614    -2.1039     0.7212 F       
  19 C19            1.6276     3.4638     0.1987 C.ar    
  20 C20            2.9622     3.8633     0.0688 C.ar    
  21 C21            3.2724     5.2040     0.1674 C.ar    
  22 N22            2.3314     6.1035     0.3813 N.ar    
  23 C23            1.0605     5.7700     0.5099 C.ar    
  24 C24            0.6613     4.4507     0.4185 C.ar    
  25 C25            4.7062     5.6471     0.0292 C.3     
  26 Cl26          -0.1253     7.0064     0.7908 Cl      
  27 F27            6.3848     0.1628    -0.4614 F       
  28 H28           -0.9393     3.3133    -0.7985 H       
  29 H29           -1.8610     1.8139    -1.0643 H       
  30 H30           -1.2493     3.0079     1.6760 H       
  31 H31           -2.7977     4.4087     0.2786 H       
  32 H32           -3.8575     2.9908     0.0928 H       
  33 H33           -2.9983     0.8364     0.8668 H       
  34 H34           -4.6391     4.4502     1.9388 H       
  35 H35           -4.1190     2.8635     2.5553 H       
  36 H36           -3.0592     4.2815     2.7412 H       
  37 H37            1.3296    -2.1872     0.1238 H       
  38 H38            3.1153    -3.5012     1.2563 H       
  39 H39            3.7826     0.2827    -0.6207 H       
  40 H40            5.5445    -3.8037     1.5061 H       
  41 H41            3.7383     3.1328    -0.1058 H       
  42 H42           -0.3800     4.1844     0.5246 H       
  43 H43            4.9218     5.8586    -1.0181 H       
  44 H44            4.8670     6.5474     0.6223 H       
  45 H45            5.3668     4.8558     0.3836 H       
@<TRIPOS>BOND
   1    1    2 1
   2    1    3 1
   3    1    6 1
   4    2    5 2
   5    3    4 2
   6    3   19 1
   7    4    5 1
   8    5   11 1
   9    6    7 1
  10    6   28 1
  11    6   29 1
  12    7    8 1
  13    7    9 1
  14    7   30 1
  15    8   10 1
  16    8   31 1
  17    8   32 1
  18    9   33 1
  19   10   34 1
  20   10   35 1
  21   10   36 1
  22   11   12 1
  23   11   37 1
  24   12   13 ar
  25   12   14 ar
  26   13   17 ar
  27   13   38 1
  28   14   15 ar
  29   14   39 1
  30   15   16 ar
  31   15   27 1
  32   16   17 ar
  33   16   18 1
  34   17   40 1
  35   19   20 ar
  36   19   24 ar
  37   20   21 ar
  38   20   41 1
  39   21   22 ar
  40   21   25 1
  41   22   23 ar
  42   23   24 ar
  43   23   26 1
  44   24   42 1
  45   25   43 1
  46   25   44 1
  47   25   45 1

#	End of record

