#	Name: ASD09740514
#	Creating user name:	WinNT
#	Creation time:	15. 06. 2019 21:23

#	Modifying user name:	WinNT
#	Modification time:	15. 06. 2019 21:23

#	Program:	/corina/corina34_cracker 3.40 0067  02.08.2006

@<TRIPOS>MOLECULE
ASD09740514
  63   66    0    0    0
SMALL
NO_CHARGES


@<TRIPOS>ATOM
   1 N1             0.1194     1.2365    -0.0031 N.2     
   2 N2             0.1381    -0.0243     0.0054 N.2     
   3 C3             1.2648     1.8601     0.0709 C.2     
   4 S4             2.5386     0.6424     0.1641 S.3     
   5 C5             1.3007    -0.6128     0.0875 C.2     
   6 C6             1.4594     3.3253     0.0756 C.ar    
   7 C7             0.3583     4.1742    -0.0032 C.ar    
   8 C8             2.7483     3.8589     0.1651 C.ar    
   9 C9             2.9357     5.2244     0.1699 C.ar    
  10 C10            1.8464     6.0796     0.0860 C.ar    
  11 C11            0.5477     5.5552     0.0016 C.ar    
  12 O12            2.0365     7.4228     0.0916 O.3     
  13 C13            3.3700     7.8884     0.3089 C.3     
  14 C14            4.1270     7.9061    -1.0206 C.3     
  15 C15            3.3279     9.3029     0.8906 C.3     
  16 C16           -0.5785     6.4354    -0.0855 C.1     
  17 N17           -1.4719     7.1336    -0.1547 N.1     
  18 C18            1.5379    -2.0717     0.1123 C.ar    
  19 C19            0.4587    -2.9573     0.0443 C.ar    
  20 C20            0.6868    -4.3179     0.0675 C.ar    
  21 C21            1.9831    -4.8005     0.1582 C.ar    
  22 C22            3.0539    -3.9285     0.2260 C.ar    
  23 C23            2.8394    -2.5663     0.1979 C.ar    
  24 C24           -1.0271    -2.6876    -0.0578 C.3     
  25 C25           -1.6471    -4.0189    -0.5328 C.3     
  26 C26           -0.6305    -5.0594    -0.0171 C.3     
  27 N27           -1.0269    -5.5443     1.3073 N.am    
  28 S28           -1.4594    -7.1294     1.5133 S.o2    
  29 O29           -1.7998    -7.2237     2.8897 O.2     
  30 O30           -2.4293    -7.3624     0.5012 O.2     
  31 C31            0.0580    -8.0613     1.1675 C.3     
  32 C32           -0.2383    -9.5382     1.2124 C.2     
  33 N33            0.7459   -10.4302     0.9842 N.am    
  34 O34           -1.3624    -9.9242     1.4539 O.2     
  35 C35            0.4579   -11.8660     1.0278 C.3     
  36 C36            2.1038    -9.9641     0.6925 C.3     
  37 H37           -0.6387     3.7641    -0.0683 H       
  38 H38            3.6005     3.1987     0.2310 H       
  39 H39            3.9341     5.6302     0.2396 H       
  40 H40            3.8778     7.2233     1.0073 H       
  41 H41            5.1441     8.2612    -0.8550 H       
  42 H42            4.1569     6.8984    -1.4351 H       
  43 H43            3.6191     8.5712    -1.7191 H       
  44 H44            2.7886     9.2903     1.8377 H       
  45 H45            4.3450     9.6580     1.0563 H       
  46 H46            2.8201     9.9680     0.1921 H       
  47 H47            2.1580    -5.8661     0.1763 H       
  48 H48            4.0600    -4.3146     0.2965 H       
  49 H49            3.6756    -1.8848     0.2509 H       
  50 H50           -1.4289    -2.4095     0.9165 H       
  51 H51           -1.2193    -1.8996    -0.7860 H       
  52 H52           -2.6256    -4.1747    -0.0784 H       
  53 H53           -1.7145    -4.0488    -1.6204 H       
  54 H54           -0.5521    -5.8910    -0.7174 H       
  55 H55           -1.0359    -4.9368     2.0635 H       
  56 H56            0.4302    -7.7953     0.1782 H       
  57 H57            0.8118    -7.8191     1.9166 H       
  58 H58            0.1662   -12.2084     0.0349 H       
  59 H59            1.3481   -12.4055     1.3511 H       
  60 H60           -0.3549   -12.0524     1.7297 H       
  61 H61            2.6609    -9.8622     1.6238 H       
  62 H62            2.6046   -10.6853     0.0466 H       
  63 H63            2.0562    -8.9980     0.1900 H       
@<TRIPOS>BOND
   1    1    2 1
   2    1    3 2
   3    2    5 2
   4    3    4 1
   5    3    6 1
   6    4    5 1
   7    5   18 1
   8    6    7 ar
   9    6    8 ar
  10    7   11 ar
  11    7   37 1
  12    8    9 ar
  13    8   38 1
  14    9   10 ar
  15    9   39 1
  16   10   11 ar
  17   10   12 1
  18   11   16 1
  19   12   13 1
  20   13   14 1
  21   13   15 1
  22   13   40 1
  23   14   41 1
  24   14   42 1
  25   14   43 1
  26   15   44 1
  27   15   45 1
  28   15   46 1
  29   16   17 3
  30   18   19 ar
  31   18   23 ar
  32   19   20 ar
  33   19   24 1
  34   20   21 ar
  35   20   26 1
  36   21   22 ar
  37   21   47 1
  38   22   23 ar
  39   22   48 1
  40   23   49 1
  41   24   25 1
  42   24   50 1
  43   24   51 1
  44   25   26 1
  45   25   52 1
  46   25   53 1
  47   26   27 1
  48   26   54 1
  49   27   28 am
  50   27   55 1
  51   28   29 2
  52   28   30 2
  53   28   31 1
  54   31   32 1
  55   31   56 1
  56   31   57 1
  57   32   33 am
  58   32   34 2
  59   33   35 1
  60   33   36 1
  61   35   58 1
  62   35   59 1
  63   35   60 1
  64   36   61 1
  65   36   62 1
  66   36   63 1

#	End of record

