#	Name: ASD01903186
#	Creating user name:	WinNT
#	Creation time:	15. 06. 2019 19:54

#	Modifying user name:	WinNT
#	Modification time:	15. 06. 2019 19:54

#	Program:	/corina/corina34_cracker 3.40 0067  02.08.2006

@<TRIPOS>MOLECULE
ASD01903186
  34   36    0    0    0
SMALL
NO_CHARGES


@<TRIPOS>ATOM
   1 S1            -0.0207     1.7559     0.0123 S.3     
   2 C2             0.0025    -0.0046     0.0088 C.2     
   3 N3             1.2286    -0.4225     0.0068 N.2     
   4 C4             2.1840     0.5092     0.0077 C.2     
   5 C5             1.7410     1.7836     0.0106 C.2     
   6 N6            -1.1223    -0.8207     0.0091 N.pl3   
   7 C7            -0.9809    -2.1999    -0.1048 C.ar    
   8 N8             0.2181    -2.7216    -0.3136 N.ar    
   9 C9             0.3957    -4.0242    -0.4271 C.ar    
  10 C10           -0.6710    -4.8951    -0.3316 C.ar    
  11 C11           -1.9455    -4.3884    -0.1128 C.ar    
  12 C12           -2.0998    -3.0193     0.0076 C.ar    
  13 C13            3.6290     0.1683     0.0061 C.2     
  14 C14            4.6520     0.8850    -0.6445 C.2     
  15 N15            5.7857     0.2761    -0.4143 N.2     
  16 N16            5.5343    -0.8449     0.3861 N.pl3   
  17 C17            4.2073    -0.8925     0.6393 C.2     
  18 N18            2.5419     2.9290     0.0120 N.3     
  19 C19            1.7197     4.1464     0.0152 C.3     
  20 C20            3.4725     2.9193     1.1487 C.3     
  21 H21           -2.0059    -0.4287     0.0886 H       
  22 H22            1.3885    -4.4139    -0.5972 H       
  23 H23           -0.5162    -5.9597    -0.4265 H       
  24 H24           -2.7964    -5.0489    -0.0347 H       
  25 H25           -3.0766    -2.5914     0.1785 H       
  26 H26            4.5224     1.7819    -1.2320 H       
  27 H27            6.1978    -1.4756     0.7067 H       
  28 H28            3.6967    -1.6390     1.2295 H       
  29 H29            1.0914     4.1581     0.9058 H       
  30 H30            2.3680     5.0227     0.0163 H       
  31 H31            1.0897     4.1616    -0.8741 H       
  32 H32            4.1166     2.0424     1.0834 H       
  33 H33            4.0835     3.8216     1.1257 H       
  34 H34            2.9077     2.8866     2.0804 H       
@<TRIPOS>BOND
   1    1    2 1
   2    1    5 1
   3    2    3 2
   4    2    6 1
   5    3    4 1
   6    4    5 2
   7    4   13 1
   8    5   18 1
   9    6    7 1
  10    6   21 1
  11    7    8 ar
  12    7   12 ar
  13    8    9 ar
  14    9   10 ar
  15    9   22 1
  16   10   11 ar
  17   10   23 1
  18   11   12 ar
  19   11   24 1
  20   12   25 1
  21   13   14 1
  22   13   17 2
  23   14   15 2
  24   14   26 1
  25   15   16 1
  26   16   17 1
  27   16   27 1
  28   17   28 1
  29   18   19 1
  30   18   20 1
  31   19   29 1
  32   19   30 1
  33   19   31 1
  34   20   32 1
  35   20   33 1
  36   20   34 1

#	End of record

