#	Name: ASD03091352
#	Creating user name:	WinNT
#	Creation time:	15. 06. 2019 20:30

#	Modifying user name:	WinNT
#	Modification time:	15. 06. 2019 20:30

#	Program:	/corina/corina34_cracker 3.40 0067  02.08.2006

@<TRIPOS>MOLECULE
ASD03091352
  43   46    0    0    0
SMALL
NO_CHARGES


@<TRIPOS>ATOM
   1 N1             0.0503     1.3634    -0.4138 N.pl3   
   2 N2             0.1232    -0.0389    -0.3935 N.2     
   3 C3             1.2745    -0.3553     0.1601 C.2     
   4 N4             1.9260     0.7658     0.4874 N.2     
   5 C5             1.2051     1.8143     0.1498 C.2     
   6 C6             1.7702    -1.7356     0.3857 C.ar    
   7 C7             3.0114    -1.9436     0.9839 C.ar    
   8 C8             3.4679    -3.2292     1.1914 C.ar    
   9 C9             2.6954    -4.3111     0.8060 C.ar    
  10 C10            1.4620    -4.1098     0.2110 C.ar    
  11 C11            0.9935    -2.8282     0.0051 C.ar    
  12 C12            1.5826     3.2309     0.3471 C.ar    
  13 C13            0.5986     4.1923     0.5797 C.ar    
  14 C14            0.9573     5.5119     0.7635 C.ar    
  15 C15            2.2894     5.8826     0.7171 C.ar    
  16 C16            3.2699     4.9342     0.4864 C.ar    
  17 C17            2.9247     3.6104     0.3072 C.ar    
  18 C18           -0.9980     2.1426    -0.9183 C.ar    
  19 C19           -0.7232     3.2512    -1.7085 C.ar    
  20 C20           -1.7594     4.0177    -2.2045 C.ar    
  21 C21           -3.0694     3.6824    -1.9152 C.ar    
  22 C22           -3.3464     2.5792    -1.1287 C.ar    
  23 C23           -2.3149     1.8053    -0.6343 C.ar    
  24 S24           -4.3885     4.6633    -2.5495 S.o2    
  25 O25           -5.4981     4.4492    -1.6879 O.2     
  26 O26           -3.8431     5.9495    -2.8094 O.2     
  27 N27           -4.8088     4.0278    -4.0199 N.am    
  28 Br28           3.3275    -6.0701     1.0928 Br      
  29 H29            3.6152    -1.1000     1.2843 H       
  30 H30            4.4298    -3.3914     1.6550 H       
  31 H31            0.8633    -4.9573    -0.0886 H       
  32 H32            0.0289    -2.6722    -0.4549 H       
  33 H33           -0.4417     3.9043     0.6155 H       
  34 H34            0.1966     6.2570     0.9436 H       
  35 H35            2.5650     6.9168     0.8612 H       
  36 H36            4.3079     5.2300     0.4506 H       
  37 H37            3.6914     2.8701     0.1320 H       
  38 H38            0.2998     3.5137    -1.9345 H       
  39 H39           -1.5463     4.8801    -2.8188 H       
  40 H40           -4.3706     2.3200    -0.9045 H       
  41 H41           -2.5320     0.9412    -0.0238 H       
  42 H42           -4.3396     3.2522    -4.3650 H       
  43 H43           -5.5242     4.4312    -4.5360 H       
@<TRIPOS>BOND
   1    1    2 1
   2    1    5 1
   3    1   18 1
   4    2    3 2
   5    3    4 1
   6    3    6 1
   7    4    5 2
   8    5   12 1
   9    6    7 ar
  10    6   11 ar
  11    7    8 ar
  12    7   29 1
  13    8    9 ar
  14    8   30 1
  15    9   10 ar
  16    9   28 1
  17   10   11 ar
  18   10   31 1
  19   11   32 1
  20   12   13 ar
  21   12   17 ar
  22   13   14 ar
  23   13   33 1
  24   14   15 ar
  25   14   34 1
  26   15   16 ar
  27   15   35 1
  28   16   17 ar
  29   16   36 1
  30   17   37 1
  31   18   19 ar
  32   18   23 ar
  33   19   20 ar
  34   19   38 1
  35   20   21 ar
  36   20   39 1
  37   21   22 ar
  38   21   24 1
  39   22   23 ar
  40   22   40 1
  41   23   41 1
  42   24   25 2
  43   24   26 2
  44   24   27 am
  45   27   42 1
  46   27   43 1

#	End of record

