#	Name: ASD01914787
#	Creating user name:	WinNT
#	Creation time:	15. 06. 2019 20:04

#	Modifying user name:	WinNT
#	Modification time:	15. 06. 2019 20:04

#	Program:	/corina/corina34_cracker 3.40 0067  02.08.2006

@<TRIPOS>MOLECULE
ASD01914787
  57   61    0    0    0
SMALL
NO_CHARGES


@<TRIPOS>ATOM
   1 N1             0.0268     1.3905    -0.1029 N.2     
   2 C2            -0.0386     0.0588     0.0787 C.2     
   3 C3             1.2323    -0.4203     0.1481 C.2     
   4 N4             2.0697     0.6511     0.0044 N.pl3   
   5 C5             1.2866     1.7584    -0.1492 C.2     
   6 C6            -1.2805    -0.7464     0.1851 C.ar    
   7 C7            -2.5252    -0.1261     0.0964 C.ar    
   8 C8            -1.2054    -2.1258     0.3682 C.ar    
   9 C9            -2.3628    -2.8707     0.4662 C.ar    
  10 C10           -3.5981    -2.2492     0.3823 C.ar    
  11 C11           -3.6774    -0.8788     0.1955 C.ar    
  12 F12           -4.7288    -2.9824     0.4783 F       
  13 C13            1.7753     3.1416    -0.3365 C.ar    
  14 C14            3.0838     3.4756     0.0156 C.ar    
  15 C15            3.5345     4.7670    -0.1610 C.ar    
  16 C16            2.6904     5.7323    -0.6867 C.ar    
  17 C17            1.3901     5.4058    -1.0380 C.ar    
  18 C18            0.9314     4.1159    -0.8712 C.ar    
  19 C19            3.5342     0.6170     0.0142 C.3     
  20 C20            4.0328     0.8496     1.4171 C.2     
  21 O21            3.2426     1.0265     2.3200 O.2     
  22 N22            5.3569     0.8610     1.6685 N.am    
  23 C23            5.8648     1.0862     3.0304 C.3     
  24 C24            6.3321     0.6425     0.5894 C.3     
  25 C25            7.3076    -0.4543     1.0295 C.3     
  26 N26            7.8897    -0.0946     2.3294 N.3     
  27 C27            6.8596    -0.0290     3.3695 C.3     
  28 C28            8.8989    -0.9827     2.6831 C.ar    
  29 N29            8.8297    -1.6288     3.8369 N.ar    
  30 C30            9.9695    -1.1889     1.8194 C.ar    
  31 C31           10.9669    -2.0756     2.1840 C.ar    
  32 C32           10.8595    -2.7284     3.4046 C.ar    
  33 C33            9.7661    -2.4800     4.2104 C.ar    
  34 F34            3.1365     6.9961    -0.8569 F       
  35 H35            1.5245    -1.4503     0.2899 H       
  36 H36           -2.5879     0.9422    -0.0492 H       
  37 H37           -0.2428    -2.6112     0.4330 H       
  38 H38           -2.3056    -3.9398     0.6081 H       
  39 H39           -4.6425    -0.3983     0.1310 H       
  40 H40            3.7421     2.7242     0.4261 H       
  41 H41            4.5469     5.0265     0.1112 H       
  42 H42            0.7363     6.1618    -1.4473 H       
  43 H43           -0.0820     3.8625    -1.1456 H       
  44 H44            3.8773    -0.3564    -0.3367 H       
  45 H45            3.9202     1.3966    -0.6425 H       
  46 H46            6.3672     2.0523     3.0787 H       
  47 H47            5.0362     1.0654     3.7383 H       
  48 H48            5.8123     0.3286    -0.3158 H       
  49 H49            6.8802     1.5652     0.3989 H       
  50 H50            6.7743    -1.4007     1.1192 H       
  51 H51            8.1021    -0.5526     0.2898 H       
  52 H52            7.3269     0.1812     4.3315 H       
  53 H53            6.3333    -0.9821     3.4208 H       
  54 H54           10.0213    -0.6643     0.8768 H       
  55 H55           11.8100    -2.2561     1.5336 H       
  56 H56           11.6210    -3.4269     3.7185 H       
  57 H57            9.6786    -2.9857     5.1607 H       
@<TRIPOS>BOND
   1    1    2 1
   2    1    5 2
   3    2    3 2
   4    2    6 1
   5    3    4 1
   6    3   35 1
   7    4    5 1
   8    4   19 1
   9    5   13 1
  10    6    7 ar
  11    6    8 ar
  12    7   11 ar
  13    7   36 1
  14    8    9 ar
  15    8   37 1
  16    9   10 ar
  17    9   38 1
  18   10   11 ar
  19   10   12 1
  20   11   39 1
  21   13   14 ar
  22   13   18 ar
  23   14   15 ar
  24   14   40 1
  25   15   16 ar
  26   15   41 1
  27   16   17 ar
  28   16   34 1
  29   17   18 ar
  30   17   42 1
  31   18   43 1
  32   19   20 1
  33   19   44 1
  34   19   45 1
  35   20   21 2
  36   20   22 am
  37   22   23 1
  38   22   24 1
  39   23   27 1
  40   23   46 1
  41   23   47 1
  42   24   25 1
  43   24   48 1
  44   24   49 1
  45   25   26 1
  46   25   50 1
  47   25   51 1
  48   26   27 1
  49   26   28 1
  50   27   52 1
  51   27   53 1
  52   28   29 ar
  53   28   30 ar
  54   29   33 ar
  55   30   31 ar
  56   30   54 1
  57   31   32 ar
  58   31   55 1
  59   32   33 ar
  60   32   56 1
  61   33   57 1

#	End of record

