#	Name: ASD01411033
#	Creating user name:	WinNT
#	Creation time:	15. 06. 2019 19:19

#	Modifying user name:	WinNT
#	Modification time:	15. 06. 2019 19:19

#	Program:	/corina/corina34_cracker 3.40 0067  02.08.2006

@<TRIPOS>MOLECULE
ASD01411033
  31   32    0    0    0
SMALL
NO_CHARGES


@<TRIPOS>ATOM
   1 C1            -0.0133     1.7489     0.2914 C.2     
   2 S2            -0.0036     0.0059    -0.0292 S.3     
   3 C3            -1.7605    -0.1792     0.1410 C.2     
   4 C4            -2.2344     1.1771     0.4446 C.2     
   5 N5            -1.2865     2.0974     0.5091 N.am    
   6 O6            -3.4097     1.4342     0.6278 O.2     
   7 S7             1.3476     2.7871     0.3235 S.2     
   8 C8            -2.4963    -1.3126     0.0184 C.2     
   9 C9            -1.8257    -2.6138    -0.1058 C.ar    
  10 C10           -1.6298     3.4905     0.8050 C.3     
  11 C11           -1.5921     3.7148     2.3180 C.3     
  12 C12           -0.4910    -2.7579     0.2896 C.ar    
  13 C13            0.1312    -3.9819     0.1705 C.ar    
  14 C14           -0.5607    -5.0689    -0.3392 C.ar    
  15 C15           -1.8819    -4.9354    -0.7335 C.ar    
  16 C16           -2.5208    -3.7184    -0.6153 C.ar    
  17 Cl17          -4.1766    -3.5526    -1.1100 Cl      
  18 Cl18           0.2327    -6.6061    -0.4849 Cl      
  19 S19           -2.0172     5.4398     2.6843 S.o2    
  20 O20           -0.9924     6.3131     2.2299 O.2     
  21 O21           -3.3824     5.6921     2.3814 O.2     
  22 O22           -1.9456     5.5346     4.2017 O.3     
  23 H23           -3.5749    -1.2581     0.0122 H       
  24 H24           -0.9111     4.1523     0.3216 H       
  25 H25           -2.6307     3.7055     0.4306 H       
  26 H26           -2.3108     3.0530     2.8014 H       
  27 H27           -0.5913     3.4998     2.6923 H       
  28 H28            0.0502    -1.9120     0.6868 H       
  29 H29            1.1613    -4.0941     0.4751 H       
  30 H30           -2.4144    -5.7870    -1.1305 H       
  31 H31           -2.1515     6.4124     4.5511 H       
@<TRIPOS>BOND
   1    1    2 1
   2    1    7 2
   3    1    5 am
   4    2    3 1
   5    3    4 1
   6    3    8 2
   7    4    5 am
   8    4    6 2
   9    5   10 1
  10    8    9 1
  11    8   23 1
  12    9   12 ar
  13    9   16 ar
  14   10   11 1
  15   10   24 1
  16   10   25 1
  17   11   19 1
  18   11   26 1
  19   11   27 1
  20   12   13 ar
  21   12   28 1
  22   13   14 ar
  23   13   29 1
  24   14   15 ar
  25   14   18 1
  26   15   16 ar
  27   15   30 1
  28   16   17 1
  29   19   20 2
  30   19   21 2
  31   19   22 1
  32   22   31 1

#	End of record

