#	Name: ASD00311067
#	Creating user name:	WinNT
#	Creation time:	15. 06. 2019 18:34

#	Modifying user name:	WinNT
#	Modification time:	15. 06. 2019 18:34

#	Program:	/corina/corina34_cracker 3.40 0067  02.08.2006

@<TRIPOS>MOLECULE
ASD00311067
  42   46    0    0    0
SMALL
NO_CHARGES


@<TRIPOS>ATOM
   1 C1            -0.0167     1.3774     0.0096 C.2     
   2 C2             0.0021    -0.0041     0.0020 C.2     
   3 C3             1.2585    -0.6767    -0.0136 C.2     
   4 C4             2.4315     0.0671    -0.0208 C.2     
   5 C5             2.3575     1.4749    -0.0125 C.2     
   6 N6             1.1650     2.0900     0.0022 N.am    
   7 C7            -1.3436    -0.5756     0.0118 C.2     
   8 C8            -2.3236     0.3270     0.0260 C.2     
   9 S9            -1.6790     1.9567     0.0358 S.3     
  10 O10            3.3824     2.1370    -0.0187 O.2     
  11 C11            3.7475    -0.6124    -0.0365 C.ar    
  12 C12            4.5933    -0.4751    -1.1370 C.ar    
  13 C13            5.8183    -1.1102    -1.1455 C.ar    
  14 C14            6.2081    -1.8818    -0.0654 C.ar    
  15 C15            5.3734    -2.0222     1.0289 C.ar    
  16 C16            4.1484    -1.3874     1.0516 C.ar    
  17 C17           -2.2030    -2.6308     1.0975 C.ar    
  18 C18           -1.5961    -2.0350     0.0059 C.ar    
  19 C19           -1.2180    -2.8031    -1.1082 C.ar    
  20 C20           -1.4391    -4.1425    -1.1381 C.ar    
  21 C21           -2.0535    -4.7785    -0.0444 C.ar    
  22 C22           -2.2934    -6.1629    -0.0518 C.ar    
  23 C23           -2.8903    -6.7500     1.0216 C.ar    
  24 C24           -3.2692    -5.9986     2.1326 C.ar    
  25 C25           -3.0533    -4.6557     2.1762 C.ar    
  26 C26           -2.4390    -4.0137     1.0859 C.ar    
  27 O27            1.3082    -2.0293    -0.0209 O.3     
  28 Cl28          -4.0158    -0.0602     0.0401 Cl      
  29 H29            1.1328     3.0594     0.0073 H       
  30 H30            4.2899     0.1267    -1.9809 H       
  31 H31            6.4740    -1.0049    -1.9972 H       
  32 H32            7.1679    -2.3769    -0.0767 H       
  33 H33            5.6831    -2.6262     1.8689 H       
  34 H34            3.4995    -1.4941     1.9083 H       
  35 H35           -2.4881    -2.0370     1.9533 H       
  36 H36           -0.7458    -2.3219    -1.9518 H       
  37 H37           -1.1435    -4.7195    -2.0019 H       
  38 H38           -2.0059    -6.7586    -0.9055 H       
  39 H39           -3.0733    -7.8143     1.0120 H       
  40 H40           -3.7414    -6.4892     2.9709 H       
  41 H41           -3.3524    -4.0858     3.0435 H       
  42 H42            2.2054    -2.3898    -0.0314 H       
@<TRIPOS>BOND
   1    1    2 2
   2    1    6 1
   3    1    9 1
   4    2    3 1
   5    2    7 1
   6    3    4 2
   7    3   27 1
   8    4    5 1
   9    4   11 1
  10    5    6 am
  11    5   10 2
  12    6   29 1
  13    7    8 2
  14    7   18 1
  15    8    9 1
  16    8   28 1
  17   11   12 ar
  18   11   16 ar
  19   12   13 ar
  20   12   30 1
  21   13   14 ar
  22   13   31 1
  23   14   15 ar
  24   14   32 1
  25   15   16 ar
  26   15   33 1
  27   16   34 1
  28   17   18 ar
  29   17   26 ar
  30   17   35 1
  31   18   19 ar
  32   19   20 ar
  33   19   36 1
  34   20   21 ar
  35   20   37 1
  36   21   22 ar
  37   21   26 ar
  38   22   23 ar
  39   22   38 1
  40   23   24 ar
  41   23   39 1
  42   24   25 ar
  43   24   40 1
  44   25   26 ar
  45   25   41 1
  46   27   42 1

#	End of record

