#	Name: ASD02408415
#	Creating user name:	WinNT
#	Creation time:	15. 06. 2019 20:21

#	Modifying user name:	WinNT
#	Modification time:	15. 06. 2019 20:21

#	Program:	/corina/corina34_cracker 3.40 0067  02.08.2006

@<TRIPOS>MOLECULE
ASD02408415
  46   49    0    0    0
SMALL
NO_CHARGES


@<TRIPOS>ATOM
   1 N1             0.5029     1.7744    -0.5260 N.am    
   2 C2             0.3760     0.4328    -0.3662 C.2     
   3 N3             1.3950    -0.3735    -0.3028 N.2     
   4 C4             2.6576     0.0716    -0.3925 C.2     
   5 C5             2.8887     1.4464    -0.5598 C.2     
   6 C6             1.7300     2.3365    -0.6283 C.2     
   7 N7             3.8800    -0.5262    -0.3595 N.pl3   
   8 N8             4.8579     0.4660    -0.5045 N.2     
   9 C9             4.2826     1.6312    -0.6231 C.2     
  10 C10           -1.0094    -0.1500    -0.2567 C.3     
  11 C11           -0.9123    -1.6670    -0.0833 C.3     
  12 C12            4.1189    -1.8977    -0.2063 C.ar    
  13 C13            3.4175    -2.8163    -0.9759 C.ar    
  14 C14            3.6553    -4.1683    -0.8224 C.ar    
  15 C15            4.5907    -4.6072     0.0963 C.ar    
  16 C16            5.2907    -3.6948     0.8647 C.ar    
  17 C17            5.0620    -2.3416     0.7116 C.ar    
  18 O18            1.8644     3.5387    -0.7729 O.2     
  19 C19            5.8255    -1.3481     1.5488 C.3     
  20 C20           -2.3096    -2.2439     0.1525 C.3     
  21 C21           -2.2125    -3.7609     0.3259 C.3     
  22 C22           -1.6111    -4.3811    -0.9369 C.3     
  23 C23           -0.2138    -3.8043    -1.1726 C.3     
  24 C24           -0.3109    -2.2872    -1.3461 C.3     
  25 H25           -0.2893     2.3324    -0.5711 H       
  26 H26            4.7897     2.5765    -0.7485 H       
  27 H27           -1.5184     0.2824     0.6047 H       
  28 H28           -1.5716     0.0769    -1.1625 H       
  29 H29           -0.2760    -1.8950     0.7719 H       
  30 H30            2.6864    -2.4741    -1.6934 H       
  31 H31            3.1098    -4.8833    -1.4204 H       
  32 H32            4.7749    -5.6648     0.2144 H       
  33 H33            6.0202    -4.0408     1.5819 H       
  34 H34            6.6922    -0.9932     0.9913 H       
  35 H35            5.1791    -0.5045     1.7912 H       
  36 H36            6.1573    -1.8279     2.4696 H       
  37 H37           -2.7380    -1.8020     1.0521 H       
  38 H38           -2.9458    -2.0159    -0.7027 H       
  39 H39           -1.5762    -3.9888     1.1811 H       
  40 H40           -3.2080    -4.1719     0.4939 H       
  41 H41           -1.5419    -5.4619    -0.8133 H       
  42 H42           -2.2473    -4.1532    -1.7920 H       
  43 H43            0.4225    -4.0322    -0.3175 H       
  44 H44            0.2147    -4.2461    -2.0723 H       
  45 H45           -0.9471    -2.0593    -2.2013 H       
  46 H46            0.6846    -1.8763    -1.5141 H       
@<TRIPOS>BOND
   1    1    2 1
   2    1    6 am
   3    1   25 1
   4    2    3 2
   5    2   10 1
   6    3    4 1
   7    4    5 2
   8    4    7 1
   9    5    6 1
  10    5    9 1
  11    6   18 2
  12    7    8 1
  13    7   12 1
  14    8    9 2
  15    9   26 1
  16   10   11 1
  17   10   27 1
  18   10   28 1
  19   11   20 1
  20   11   24 1
  21   11   29 1
  22   12   13 ar
  23   12   17 ar
  24   13   14 ar
  25   13   30 1
  26   14   15 ar
  27   14   31 1
  28   15   16 ar
  29   15   32 1
  30   16   17 ar
  31   16   33 1
  32   17   19 1
  33   19   34 1
  34   19   35 1
  35   19   36 1
  36   20   21 1
  37   20   37 1
  38   20   38 1
  39   21   22 1
  40   21   39 1
  41   21   40 1
  42   22   23 1
  43   22   41 1
  44   22   42 1
  45   23   24 1
  46   23   43 1
  47   23   44 1
  48   24   45 1
  49   24   46 1

#	End of record

