#	Name: ASD01152218
#	Creating user name:	WinNT
#	Creation time:	15. 06. 2019 19:05

#	Modifying user name:	WinNT
#	Modification time:	15. 06. 2019 19:05

#	Program:	/corina/corina34_cracker 3.40 0067  02.08.2006

@<TRIPOS>MOLECULE
ASD01152218
  27   28    0    0    0
SMALL
NO_CHARGES


@<TRIPOS>ATOM
   1 N1            -0.0169     1.3957     0.0097 N.2     
   2 N2             0.0021    -0.0041     0.0020 N.am    
   3 C3             1.1656    -0.6784    -0.0127 C.2     
   4 N4             2.3440    -0.0276    -0.0205 N.am    
   5 C5             2.3705     1.3213    -0.0130 C.2     
   6 C6             1.1049     2.0605     0.0026 C.2     
   7 O7             1.1530    -1.8942    -0.0187 O.2     
   8 O8             3.4319     1.9168    -0.0192 O.2     
   9 C9             1.1002     3.5675     0.0102 C.3     
  10 C10            3.5983    -0.7844    -0.0365 C.3     
  11 C11            4.0148    -1.0362    -1.4627 C.ar    
  12 C12            4.8244    -0.1265    -2.1170 C.ar    
  13 C13            5.2067    -0.3570    -3.4251 C.ar    
  14 C14            4.7791    -1.4984    -4.0796 C.ar    
  15 C15            3.9689    -2.4085    -3.4243 C.ar    
  16 C16            3.5919    -2.1797    -2.1144 C.ar    
  17 Cl17           5.2584    -1.7882    -5.7228 Cl      
  18 H18           -0.8350    -0.4941     0.0077 H       
  19 H19            0.0715     3.9276     0.0217 H       
  20 H20            1.6212     3.9280     0.8972 H       
  21 H21            1.6046     3.9369    -0.8827 H       
  22 H22            4.3741    -0.2128     0.4730 H       
  23 H23            3.4545    -1.7368     0.4736 H       
  24 H24            5.1579     0.7646    -1.6061 H       
  25 H25            5.8389     0.3540    -3.9363 H       
  26 H26            3.6348    -3.2997    -3.9347 H       
  27 H27            2.9630    -2.8922    -1.6013 H       
@<TRIPOS>BOND
   1    1    2 1
   2    1    6 2
   3    2    3 am
   4    2   18 1
   5    3    4 am
   6    3    7 2
   7    4    5 am
   8    4   10 1
   9    5    6 1
  10    5    8 2
  11    6    9 1
  12    9   19 1
  13    9   20 1
  14    9   21 1
  15   10   11 1
  16   10   22 1
  17   10   23 1
  18   11   12 ar
  19   11   16 ar
  20   12   13 ar
  21   12   24 1
  22   13   14 ar
  23   13   25 1
  24   14   15 ar
  25   14   17 1
  26   15   16 ar
  27   15   26 1
  28   16   27 1

#	End of record

