#	Name: ASD01418007
#	Creating user name:	WinNT
#	Creation time:	15. 06. 2019 19:20

#	Modifying user name:	WinNT
#	Modification time:	15. 06. 2019 19:20

#	Program:	/corina/corina34_cracker 3.40 0067  02.08.2006

@<TRIPOS>MOLECULE
ASD01418007
  35   37    0    0    0
SMALL
NO_CHARGES


@<TRIPOS>ATOM
   1 S1            -0.0220     1.7686     0.0118 S.3     
   2 C2             0.0021    -0.0041     0.0020 C.2     
   3 N3             1.2791    -0.3919    -0.0123 N.am    
   4 C4             2.2642     0.4903    -0.0169 C.2     
   5 C5             1.7956     1.9289    -0.0047 C.3     
   6 S6            -1.3662    -1.0330     0.0096 S.2     
   7 O7             3.4350     0.1754    -0.0292 O.2     
   8 N8             1.5816    -1.7598    -0.0220 N.am    
   9 S9             1.7472    -2.5610    -1.4619 S.o2    
  10 O10            2.1967    -3.8707    -1.1429 O.2     
  11 O11            0.5616    -2.3049    -2.2022 O.2     
  12 C12            3.0612    -1.7847    -2.3425 C.2     
  13 C13            4.3476    -2.1288    -2.2650 C.2     
  14 C14            5.2016    -1.3743    -3.0508 C.2     
  15 C15            4.6087    -0.4175    -3.7665 C.2     
  16 S16            2.8762    -0.4426    -3.4642 S.3     
  17 C17            2.2628     2.6608    -1.2645 C.3     
  18 C18            1.7825     4.0886    -1.2231 C.ar    
  19 C19            2.5699     5.0658    -0.6431 C.ar    
  20 C20            2.1297     6.3764    -0.6054 C.ar    
  21 C21            0.9001     6.7089    -1.1488 C.ar    
  22 C22            0.1137     5.7301    -1.7287 C.ar    
  23 C23            0.5576     4.4215    -1.7702 C.ar    
  24 Cl24           0.3459     8.3534    -1.1017 Cl      
  25 Cl25           3.1178     7.6037     0.1234 Cl      
  26 H26            2.1456     2.4407     0.8918 H       
  27 H27            1.6942    -2.2377     0.8146 H       
  28 H28            4.6965    -2.9348    -1.6364 H       
  29 H29            6.2672    -1.5470    -3.0818 H       
  30 H30            5.1146     0.2657    -4.4326 H       
  31 H31            3.3517     2.6449    -1.3112 H       
  32 H32            1.8541     2.1653    -2.1452 H       
  33 H33            3.5285     4.8057    -0.2192 H       
  34 H34           -0.8453     5.9888    -2.1527 H       
  35 H35           -0.0549     3.6580    -2.2268 H       
@<TRIPOS>BOND
   1    1    2 1
   2    1    5 1
   3    2    3 am
   4    2    6 2
   5    3    4 am
   6    3    8 1
   7    4    5 1
   8    4    7 2
   9    5   17 1
  10    5   26 1
  11    8    9 am
  12    8   27 1
  13    9   10 2
  14    9   11 2
  15    9   12 1
  16   12   13 2
  17   12   16 1
  18   13   14 1
  19   13   28 1
  20   14   15 2
  21   14   29 1
  22   15   16 1
  23   15   30 1
  24   17   18 1
  25   17   31 1
  26   17   32 1
  27   18   19 ar
  28   18   23 ar
  29   19   20 ar
  30   19   33 1
  31   20   21 ar
  32   20   25 1
  33   21   22 ar
  34   21   24 1
  35   22   23 ar
  36   22   34 1
  37   23   35 1

#	End of record

