#	Name: ASD06600051
#	Creating user name:	WinNT
#	Creation time:	15. 06. 2019 21:07

#	Modifying user name:	WinNT
#	Modification time:	15. 06. 2019 21:07

#	Program:	/corina/corina34_cracker 3.40 0067  02.08.2006

@<TRIPOS>MOLECULE
ASD06600051
 282  284    0    0    0
SMALL
NO_CHARGES


@<TRIPOS>ATOM
   1 C1            -0.2055     0.8722     0.7089 C.2     
   2 O2            -0.2740    -0.3359     0.7907 O.2     
   3 N3             2.1924     0.5497     0.8964 N.am    
   4 C4             1.1371     1.5554     0.7521 C.3     
   5 C5             1.3527     2.3385    -0.5446 C.3     
   6 C6             2.6380     3.1198    -0.4517 C.2     
   7 C7             3.6637     3.0623    -1.3225 C.2     
   8 N8             4.6213     3.9262    -0.8640 N.pl3   
   9 C9             4.1472     4.4819     0.2718 C.2     
  10 N10            2.9584     3.9987     0.5095 N.2     
  11 C11           -3.6160     1.8117    -0.2124 C.2     
  12 O12           -3.2608     2.8836    -0.6550 O.2     
  13 N13           -1.3296     1.6033     0.5739 N.am    
  14 C14           -2.6343     0.9387     0.5260 C.3     
  15 C15           -3.1369     0.6983     1.9509 C.3     
  16 C16           -7.2436     1.9221    -0.6497 C.2     
  17 O17           -7.4856     0.8390    -0.1605 O.2     
  18 N18           -4.8886     1.4014    -0.3809 N.am    
  19 C19           -5.8429     2.2502    -1.0987 C.3     
  20 C20           -5.7177     1.9993    -2.6028 C.3     
  21 C21           -4.3422     2.4651    -3.0847 C.3     
  22 C22           -5.8778     0.5042    -2.8856 C.3     
  23 C23          -10.5587     3.3538    -1.2185 C.2     
  24 O24          -10.1282     4.1869    -1.9877 O.2     
  25 N25           -8.2274     2.8323    -0.7917 N.am    
  26 C26           -9.6061     2.4813    -0.4423 C.3     
  27 C27           -9.8231     2.6970     1.0567 C.3     
  28 C28           -8.9585     1.7371     1.8327 C.2     
  29 C29           -8.0657     2.0686     2.7849 C.2     
  30 N30           -7.5055     0.9003     3.2265 N.pl3   
  31 C31           -8.0759    -0.1051     2.5283 C.2     
  32 N32           -8.9475     0.4025     1.7002 N.2     
  33 C33          -14.1207     4.1613    -1.0674 C.2     
  34 O34          -14.2638     3.5842    -0.0103 O.2     
  35 N35          -11.8889     3.2084    -1.0578 N.am    
  36 C36          -12.8149     4.0566    -1.8123 C.3     
  37 C37          -13.0622     3.4411    -3.1910 C.3     
  38 C38          -17.5082     5.3088    -1.8233 C.2     
  39 O39          -17.2625     5.4331    -3.0045 O.2     
  40 N40          -15.1296     4.8962    -1.5758 N.am    
  41 C41          -16.3990     4.9980    -0.8516 C.3     
  42 C42          -16.3044     6.1157     0.1889 C.3     
  43 C43          -15.2796     5.7470     1.2305 C.ar    
  44 C44          -13.9572     6.1114     1.0570 C.ar    
  45 C45          -13.0158     5.7742     2.0101 C.ar    
  46 C46          -13.3984     5.0696     3.1423 C.ar    
  47 O47          -12.4743     4.7371     4.0816 O.3     
  48 C48          -14.7260     4.7055     3.3143 C.ar    
  49 C49          -15.6644     5.0497     2.3607 C.ar    
  50 C50          -20.9760     6.4430    -1.5983 C.2     
  51 O51          -20.8858     6.6623    -0.4089 O.2     
  52 N52          -18.7731     5.4487    -1.3798 N.am    
  53 C53          -19.8514     5.7509    -2.3244 C.3     
  54 C54          -20.3676     4.4499    -2.9423 C.3     
  55 C55          -19.2607     3.8101    -3.7827 C.3     
  56 C56          -19.7769     2.5091    -4.4007 C.3     
  57 N57          -18.7170     1.8964    -5.2054 N.pl3   
  58 C58          -18.9503     0.7112    -5.8618 C.2     
  59 N59          -18.0073     0.1661    -6.5777 N.2     
  60 N60          -20.1782     0.1008    -5.7630 N.pl3   
  61 C61          -24.4677     7.2622    -2.3057 C.2     
  62 O62          -24.4747     6.6020    -3.3230 O.2     
  63 N63          -22.0821     6.8183    -2.2708 N.am    
  64 C64          -23.1754     7.4912    -1.5649 C.3     
  65 C65          -22.8882     8.9922    -1.4924 C.3     
  66 C66          -21.6442     9.2326    -0.6347 C.3     
  67 C67          -21.3570    10.7336    -0.5622 C.3     
  68 N68          -20.1659    10.9638     0.2590 N.pl3   
  69 C69          -19.7122    12.2446     0.4682 C.2     
  70 N70          -18.6524    12.4494     1.1989 N.2     
  71 N71          -20.3763    13.3095    -0.0932 N.pl3   
  72 C72          -27.8343     8.6853    -2.2458 C.2     
  73 O73          -27.5035     9.5792    -1.4959 O.2     
  74 N74          -25.6156     7.7911    -1.8376 N.am    
  75 C75          -26.8718     7.5685    -2.5577 C.3     
  76 C76          -27.4802     6.2342    -2.1214 C.3     
  77 C77          -26.5598     5.0896    -2.5498 C.3     
  78 C78          -27.1682     3.7553    -2.1135 C.3     
  79 N79          -26.2869     2.6593    -2.5237 N.pl3   
  80 C80          -26.6288     1.3586    -2.2382 C.2     
  81 N81          -27.7371     1.1006    -1.6025 N.2     
  82 N82          -25.8017     0.3301    -2.6232 N.pl3   
  83 C83          -31.4116     9.2910    -2.6921 C.2     
  84 O84          -31.6170     8.1503    -3.0492 O.2     
  85 N85          -29.0627     8.6908    -2.8003 N.am    
  86 C86          -29.9984     9.7766    -2.4971 C.3     
  87 C87          -29.7308    10.9567    -3.4334 C.3     
  88 C88          -28.3408    11.5289    -3.1483 C.3     
  89 C89          -28.0732    12.7090    -4.0846 C.3     
  90 N90          -26.7422    13.2569    -3.8117 N.pl3   
  91 C91          -26.2793    14.3306    -4.5349 C.2     
  92 N92          -27.0246    14.8611    -5.4633 N.2     
  93 N93          -25.0302    14.8448    -4.2788 N.pl3   
  94 C94          -34.7189    10.8255    -2.9565 C.2     
  95 O95          -34.2567    11.9458    -3.0051 O.2     
  96 N96          -32.4472    10.1243    -2.4697 N.am    
  97 C97          -33.8211     9.6522    -2.6593 C.3     
  98 C98          -34.3004     8.9530    -1.3857 C.3     
  99 C99          -33.4674     7.6910    -1.1524 C.3     
 100 C100         -33.8616     7.0596     0.1843 C.3     
 101 C101         -33.7252     6.6934    -2.2834 C.3     
 102 C102         -38.3218    11.4358    -3.0559 C.2     
 103 O103         -38.5752    10.3512    -2.5759 O.2     
 104 N104         -36.0355    10.6300    -3.1682 N.am    
 105 C105         -36.9083    11.7706    -3.4571 C.3     
 106 C106         -36.8631    12.0809    -4.9546 C.3     
 107 C107         -35.4553    12.5413    -5.3378 C.3     
 108 C108         -35.3760    12.7319    -6.8538 C.3     
 109 C109         -35.1447    13.8671    -4.6402 C.3     
 110 C110         -41.6404    12.8503    -3.6466 C.2     
 111 O111         -41.2212    13.6360    -4.4632 O.2     
 112 N112         -39.3044    12.3416    -3.2305 N.am    
 113 C113         -40.6785    12.0162    -2.8404 C.3     
 114 C114         -40.8699    12.3128    -1.3517 C.3     
 115 O115         -40.7350    13.7172    -1.1247 O.3     
 116 O116         -42.9630    12.7204    -3.4575 O.3     
 117 C117           3.3744     0.8876     1.4489 C.2     
 118 O118           3.5643     2.0243     1.8266 O.2     
 119 C119          20.7725    -3.0250     7.2094 C.3     
 120 C120          19.6703    -1.9745     7.0587 C.3     
 121 C121          18.4422    -2.6138     6.4077 C.3     
 122 C122          17.3400    -1.5634     6.2570 C.3     
 123 C123          16.1118    -2.2027     5.6060 C.3     
 124 C124          15.0096    -1.1523     5.4553 C.3     
 125 C125          13.7815    -1.7916     4.8042 C.3     
 126 C126          12.6793    -0.7412     4.6535 C.3     
 127 C127          11.4511    -1.3804     4.0025 C.3     
 128 C128          10.3489    -0.3300     3.8518 C.3     
 129 C129           9.1207    -0.9693     3.2008 C.3     
 130 C130           8.0185     0.0811     3.0501 C.3     
 131 C131           6.7904    -0.5582     2.3990 C.3     
 132 C132           5.6882     0.4922     2.2483 C.3     
 133 C133           4.4600    -0.1470     1.5973 C.3     
 134 H134           2.0406    -0.3595     0.5942 H       
 135 H135           1.1693     2.2401     1.5996 H       
 136 H136           1.4091     1.6444    -1.3831 H       
 137 H137           0.5201     3.0254    -0.6969 H       
 138 H138           3.7200     2.4517    -2.2115 H       
 139 H139           5.4802     4.1057    -1.2776 H       
 140 H140           4.6643     5.2089     0.8804 H       
 141 H141          -1.2749     2.5696     0.5086 H       
 142 H142          -2.5369    -0.0161     0.0092 H       
 143 H143          -4.1077     0.2038     1.9152 H       
 144 H144          -2.4269     0.0668     2.4850 H       
 145 H145          -3.2343     1.6531     2.4677 H       
 146 H146          -5.1728     0.5442    -0.0270 H       
 147 H147          -5.6292     3.2976    -0.8860 H       
 148 H148          -6.4942     2.5539    -3.1295 H       
 149 H149          -3.5705     1.8306    -2.6489 H       
 150 H150          -4.2964     2.3985    -4.1717 H       
 151 H151          -4.1800     3.4981    -2.7768 H       
 152 H152          -6.8576     0.1724    -2.5423 H       
 153 H153          -5.7885     0.3255    -3.9571 H       
 154 H154          -5.1012    -0.0504    -2.3588 H       
 155 H155          -8.0225     3.7199    -1.1252 H       
 156 H156          -9.7884     1.4353    -0.6890 H       
 157 H157          -9.5554     3.7206     1.3190 H       
 158 H158         -10.8707     2.5214     1.3012 H       
 159 H159          -7.8356     3.0648     3.1329 H       
 160 H160          -6.8258     0.8113     3.9127 H       
 161 H161          -7.8511    -1.1555     2.6398 H       
 162 H162         -12.2332     2.5422    -0.4426 H       
 163 H163         -12.3832     5.0505    -1.9303 H       
 164 H164         -13.4939     2.4472    -3.0731 H       
 165 H165         -13.7512     4.0722    -3.7524 H       
 166 H166         -12.1177     3.3654    -3.7298 H       
 167 H167         -15.0152     5.3578    -2.4213 H       
 168 H168         -16.6086     4.0526    -0.3513 H       
 169 H169         -16.0076     7.0434    -0.3004 H       
 170 H170         -17.2750     6.2510     0.6660 H       
 171 H171         -13.6599     6.6599     0.1754 H       
 172 H172         -11.9829     6.0585     1.8738 H       
 173 H173         -12.3613     5.4018     4.7748 H       
 174 H174         -15.0262     4.1567     4.1946 H       
 175 H175         -16.6988     4.7703     2.4962 H       
 176 H176         -18.9696     5.3493    -0.4351 H       
 177 H177         -19.4724     6.4020    -3.1122 H       
 178 H178         -20.6643     3.7636    -2.1492 H       
 179 H179         -21.2272     4.6651    -3.5770 H       
 180 H180         -18.9640     4.4963    -4.5759 H       
 181 H181         -18.4010     3.5948    -3.1481 H       
 182 H182         -20.0735     1.8228    -3.6075 H       
 183 H183         -20.6365     2.7243    -5.0353 H       
 184 H184         -17.8506     2.3271    -5.2751 H       
 185 H185         -18.1719    -0.6702    -7.0408 H       
 186 H186         -20.8800     0.5064    -5.2301 H       
 187 H187         -20.3428    -0.7355    -6.2261 H       
 188 H188         -22.1543     6.6429    -3.2220 H       
 189 H189         -23.2588     7.0880    -0.5556 H       
 190 H190         -22.7169     9.3783    -2.4972 H       
 191 H191         -23.7412     9.5042    -1.0469 H       
 192 H192         -21.8155     8.8465     0.3701 H       
 193 H193         -20.7913     8.7206    -1.0802 H       
 194 H194         -21.1857    11.1198    -1.5671 H       
 195 H195         -22.2100    11.2457    -0.1167 H       
 196 H196         -19.6973    10.2125     0.6551 H       
 197 H197         -18.3323    13.3531     1.3465 H       
 198 H198         -21.1650    13.1571    -0.6370 H       
 199 H199         -20.0562    14.2131     0.0544 H       
 200 H200         -25.6100     8.3191    -1.0239 H       
 201 H201         -26.6769     7.5456    -3.6299 H       
 202 H202         -27.5929     6.2234    -1.0372 H       
 203 H203         -28.4568     6.1098    -2.5894 H       
 204 H204         -26.4471     5.1003    -3.6339 H       
 205 H205         -25.5833     5.2139    -2.0818 H       
 206 H206         -27.2809     3.7445    -1.0294 H       
 207 H207         -28.1447     3.6309    -2.5815 H       
 208 H208         -25.4621     2.8513    -2.9968 H       
 209 H209         -27.9783     0.1829    -1.4010 H       
 210 H210         -24.9770     0.5221    -3.0962 H       
 211 H211         -26.0429    -0.5876    -2.4217 H       
 212 H212         -29.3273     7.9759    -3.4001 H       
 213 H213         -29.8630    10.0949    -1.4634 H       
 214 H214         -29.7790    10.6177    -4.4682 H       
 215 H215         -30.4824    11.7288    -3.2686 H       
 216 H216         -28.2926    11.8679    -2.1135 H       
 217 H217         -27.5893    10.7568    -3.3131 H       
 218 H218         -28.1214    12.3700    -5.1194 H       
 219 H219         -28.8247    13.4812    -3.9199 H       
 220 H220         -26.1875    12.8621    -3.1208 H       
 221 H221         -26.6980    15.6187    -5.9735 H       
 222 H222         -24.4755    14.4500    -3.5878 H       
 223 H223         -24.7036    15.6023    -4.7890 H       
 224 H224         -32.2830    11.0366    -2.1841 H       
 225 H225         -33.8524     8.9505    -3.4929 H       
 226 H226         -34.1856     9.6263    -0.5363 H       
 227 H227         -35.3502     8.6804    -1.4940 H       
 228 H228         -32.4094     7.9525    -1.1327 H       
 229 H229         -34.9195     6.7981     0.1647 H       
 230 H230         -33.2681     6.1606     0.3506 H       
 231 H231         -33.6779     7.7704     0.9901 H       
 232 H232         -34.7832     6.4319    -2.3030 H       
 233 H233         -33.4444     7.1432    -3.2357 H       
 234 H234         -33.1317     5.7944    -2.1172 H       
 235 H235         -36.4052     9.7340    -3.1294 H       
 236 H236         -36.5675    12.6403    -2.8954 H       
 237 H237         -37.1185    11.1843    -5.5194 H       
 238 H238         -37.5786    12.8707    -5.1838 H       
 239 H239         -34.7300    11.7890    -5.0278 H       
 240 H240         -36.1012    13.4843    -7.1639 H       
 241 H241         -34.3730    13.0599    -7.1268 H       
 242 H242         -35.5973    11.7874    -7.3509 H       
 243 H243         -35.8699    14.6194    -4.9502 H       
 244 H244         -35.2011    13.7313    -3.5602 H       
 245 H245         -34.1417    14.1951    -4.9132 H       
 246 H246         -39.1017    13.2091    -3.6143 H       
 247 H247         -40.8687    10.9594    -3.0277 H       
 248 H248         -41.8631    11.9883    -1.0413 H       
 249 H249         -40.1159    11.7775    -0.7747 H       
 250 H250         -40.8446    13.9785    -0.2001 H       
 251 H251         -43.5405    13.2767    -3.9979 H       
 252 H252          20.4131    -3.8416     7.8356 H       
 253 H253          21.0423    -3.4121     6.2269 H       
 254 H254          21.6475    -2.5695     7.6732 H       
 255 H255          19.4006    -1.5874     8.0413 H       
 256 H256          20.0298    -1.1579     6.4326 H       
 257 H257          18.7119    -3.0010     5.4251 H       
 258 H258          18.0827    -3.4304     7.0338 H       
 259 H259          17.0702    -1.1763     7.2396 H       
 260 H260          17.6995    -0.7468     5.6309 H       
 261 H261          16.3816    -2.5898     4.6234 H       
 262 H262          15.7523    -3.0193     6.2321 H       
 263 H263          14.7399    -0.7651     6.4378 H       
 264 H264          15.3691    -0.3357     4.8291 H       
 265 H265          14.0512    -2.1787     3.8217 H       
 266 H266          13.4220    -2.6082     5.4304 H       
 267 H267          12.4095    -0.3540     5.6361 H       
 268 H268          13.0387     0.0755     4.0274 H       
 269 H269          11.7208    -1.7676     3.0199 H       
 270 H270          11.0916    -2.1970     4.6286 H       
 271 H271          10.0792     0.0571     4.8344 H       
 272 H272          10.7084     0.4866     3.2257 H       
 273 H273           9.3905    -1.3564     2.2182 H       
 274 H274           8.7613    -1.7859     3.8269 H       
 275 H275           7.7488     0.4683     4.0326 H       
 276 H276           8.3780     0.8977     2.4239 H       
 277 H277           7.0601    -0.9453     1.4165 H       
 278 H278           6.4309    -1.3748     3.0252 H       
 279 H279           5.4184     0.8794     3.2309 H       
 280 H280           6.0477     1.3088     1.6222 H       
 281 H281           4.1005    -0.9636     2.2234 H       
 282 H282           4.7297    -0.5342     0.6147 H       
@<TRIPOS>BOND
   1    1    2 2
   2    1    4 1
   3    1   13 am
   4    3  117 am
   5    3    4 1
   6    3  134 1
   7    4    5 1
   8    4  135 1
   9    5    6 1
  10    5  136 1
  11    5  137 1
  12    6    7 2
  13    6   10 1
  14    7    8 1
  15    7  138 1
  16    8    9 1
  17    8  139 1
  18    9   10 2
  19    9  140 1
  20   11   12 2
  21   11   14 1
  22   11   18 am
  23   13   14 1
  24   13  141 1
  25   14   15 1
  26   14  142 1
  27   15  143 1
  28   15  144 1
  29   15  145 1
  30   16   17 2
  31   16   19 1
  32   16   25 am
  33   18   19 1
  34   18  146 1
  35   19   20 1
  36   19  147 1
  37   20   21 1
  38   20   22 1
  39   20  148 1
  40   21  149 1
  41   21  150 1
  42   21  151 1
  43   22  152 1
  44   22  153 1
  45   22  154 1
  46   23   24 2
  47   23   26 1
  48   23   35 am
  49   25   26 1
  50   25  155 1
  51   26   27 1
  52   26  156 1
  53   27   28 1
  54   27  157 1
  55   27  158 1
  56   28   29 2
  57   28   32 1
  58   29   30 1
  59   29  159 1
  60   30   31 1
  61   30  160 1
  62   31   32 2
  63   31  161 1
  64   33   34 2
  65   33   36 1
  66   33   40 am
  67   35   36 1
  68   35  162 1
  69   36   37 1
  70   36  163 1
  71   37  164 1
  72   37  165 1
  73   37  166 1
  74   38   39 2
  75   38   41 1
  76   38   52 am
  77   40   41 1
  78   40  167 1
  79   41   42 1
  80   41  168 1
  81   42   43 1
  82   42  169 1
  83   42  170 1
  84   43   44 ar
  85   43   49 ar
  86   44   45 ar
  87   44  171 1
  88   45   46 ar
  89   45  172 1
  90   46   47 1
  91   46   48 ar
  92   47  173 1
  93   48   49 ar
  94   48  174 1
  95   49  175 1
  96   50   51 2
  97   50   53 1
  98   50   63 am
  99   52   53 1
 100   52  176 1
 101   53   54 1
 102   53  177 1
 103   54   55 1
 104   54  178 1
 105   54  179 1
 106   55   56 1
 107   55  180 1
 108   55  181 1
 109   56   57 1
 110   56  182 1
 111   56  183 1
 112   57   58 1
 113   57  184 1
 114   58   59 2
 115   58   60 1
 116   59  185 1
 117   60  186 1
 118   60  187 1
 119   61   62 2
 120   61   64 1
 121   61   74 am
 122   63   64 1
 123   63  188 1
 124   64   65 1
 125   64  189 1
 126   65   66 1
 127   65  190 1
 128   65  191 1
 129   66   67 1
 130   66  192 1
 131   66  193 1
 132   67   68 1
 133   67  194 1
 134   67  195 1
 135   68   69 1
 136   68  196 1
 137   69   70 2
 138   69   71 1
 139   70  197 1
 140   71  198 1
 141   71  199 1
 142   72   73 2
 143   72   75 1
 144   72   85 am
 145   74   75 1
 146   74  200 1
 147   75   76 1
 148   75  201 1
 149   76   77 1
 150   76  202 1
 151   76  203 1
 152   77   78 1
 153   77  204 1
 154   77  205 1
 155   78   79 1
 156   78  206 1
 157   78  207 1
 158   79   80 1
 159   79  208 1
 160   80   81 2
 161   80   82 1
 162   81  209 1
 163   82  210 1
 164   82  211 1
 165   83   84 2
 166   83   86 1
 167   83   96 am
 168   85   86 1
 169   85  212 1
 170   86   87 1
 171   86  213 1
 172   87   88 1
 173   87  214 1
 174   87  215 1
 175   88   89 1
 176   88  216 1
 177   88  217 1
 178   89   90 1
 179   89  218 1
 180   89  219 1
 181   90   91 1
 182   90  220 1
 183   91   92 2
 184   91   93 1
 185   92  221 1
 186   93  222 1
 187   93  223 1
 188   94   95 2
 189   94   97 1
 190   94  104 am
 191   96   97 1
 192   96  224 1
 193   97   98 1
 194   97  225 1
 195   98   99 1
 196   98  226 1
 197   98  227 1
 198   99  100 1
 199   99  101 1
 200   99  228 1
 201  100  229 1
 202  100  230 1
 203  100  231 1
 204  101  232 1
 205  101  233 1
 206  101  234 1
 207  102  103 2
 208  102  105 1
 209  102  112 am
 210  104  105 1
 211  104  235 1
 212  105  106 1
 213  105  236 1
 214  106  107 1
 215  106  237 1
 216  106  238 1
 217  107  108 1
 218  107  109 1
 219  107  239 1
 220  108  240 1
 221  108  241 1
 222  108  242 1
 223  109  243 1
 224  109  244 1
 225  109  245 1
 226  110  111 2
 227  110  113 1
 228  110  116 1
 229  112  113 1
 230  112  246 1
 231  113  114 1
 232  113  247 1
 233  114  115 1
 234  114  248 1
 235  114  249 1
 236  115  250 1
 237  116  251 1
 238  117  118 2
 239  117  133 1
 240  119  120 1
 241  119  252 1
 242  119  253 1
 243  119  254 1
 244  120  121 1
 245  120  255 1
 246  120  256 1
 247  121  122 1
 248  121  257 1
 249  121  258 1
 250  122  123 1
 251  122  259 1
 252  122  260 1
 253  123  124 1
 254  123  261 1
 255  123  262 1
 256  124  125 1
 257  124  263 1
 258  124  264 1
 259  125  126 1
 260  125  265 1
 261  125  266 1
 262  126  127 1
 263  126  267 1
 264  126  268 1
 265  127  128 1
 266  127  269 1
 267  127  270 1
 268  128  129 1
 269  128  271 1
 270  128  272 1
 271  129  130 1
 272  129  273 1
 273  129  274 1
 274  130  131 1
 275  130  275 1
 276  130  276 1
 277  131  132 1
 278  131  277 1
 279  131  278 1
 280  132  133 1
 281  132  279 1
 282  132  280 1
 283  133  281 1
 284  133  282 1

#	End of record

