#	Name: ASD01940016
#	Creating user name:	WinNT
#	Creation time:	15. 06. 2019 20:11

#	Modifying user name:	WinNT
#	Modification time:	15. 06. 2019 20:11

#	Program:	/corina/corina34_cracker 3.40 0067  02.08.2006

@<TRIPOS>MOLECULE
ASD01940016
  50   52    0    0    0
SMALL
NO_CHARGES


@<TRIPOS>ATOM
   1 C1            -0.1653     1.1874    -0.0599 C.ar    
   2 C2            -0.1620    -0.0648    -0.6608 C.ar    
   3 C3            -1.2720    -0.8801    -0.5626 C.ar    
   4 C4            -2.3907    -0.4486     0.1357 C.ar    
   5 C5            -2.3947     0.8022     0.7361 C.ar    
   6 C6            -1.2831     1.6162     0.6442 C.ar    
   7 N7             0.9593     2.0144    -0.1590 N.pl3   
   8 C8             0.8034     3.3857    -0.2528 C.2     
   9 C9             1.8018     4.3491    -0.2307 C.2     
  10 C10            1.3215     5.6545    -0.3469 C.2     
  11 N11            0.0359     5.7986    -0.4580 N.2     
  12 S12           -0.6685     4.2577    -0.4293 S.3     
  13 O13            2.1594     6.7236    -0.3434 O.3     
  14 C14            3.2314     4.0253    -0.0968 C.2     
  15 N15            3.8061     3.9448     1.1545 N.pl3   
  16 N16            3.9562     3.8140    -1.1636 N.2     
  17 C17            5.2290     3.6225     1.2877 C.3     
  18 C18            6.0567     4.9020     1.1510 C.3     
  19 C19            5.4834     2.9947     2.6596 C.3     
  20 O20            5.2167     3.9577     3.6811 O.3     
  21 O21           -3.4836    -1.2516     0.2311 O.3     
  22 C22           -3.3715    -2.3988     0.9511 C.ar    
  23 C23           -4.4164    -3.3129     0.9702 C.ar    
  24 C24           -4.2993    -4.4789     1.7036 C.ar    
  25 C25           -3.1433    -4.7344     2.4176 C.ar    
  26 C26           -2.1016    -3.8251     2.4003 C.ar    
  27 C27           -2.2105    -2.6614     1.6638 C.ar    
  28 Cl28          -5.8685    -2.9918     0.0746 Cl      
  29 C29           -5.4326    -5.4720     1.7252 C.3     
  30 F30           -5.0821    -6.5622     2.5288 F       
  31 F31           -6.5790    -4.8601     2.2435 F       
  32 F32           -5.6889    -5.9155     0.4234 F       
  33 H33            0.7083    -0.4006    -1.2049 H       
  34 H34           -1.2697    -1.8539    -1.0297 H       
  35 H35           -3.2659     1.1375     1.2792 H       
  36 H36           -1.2863     2.5896     1.1119 H       
  37 H37            1.8482     1.6260    -0.1619 H       
  38 H38            2.4724     6.9808    -1.2214 H       
  39 H39            3.2681     4.1016     1.9463 H       
  40 H40            4.8984     3.6006    -1.0754 H       
  41 H41            5.5167     2.9184     0.5070 H       
  42 H42            5.7690     5.6060     1.9317 H       
  43 H43            7.1154     4.6622     1.2501 H       
  44 H44            5.8754     5.3492     0.1736 H       
  45 H45            4.8285     2.1335     2.7922 H       
  46 H46            6.5231     2.6739     2.7252 H       
  47 H47            5.3574     3.6278     4.5791 H       
  48 H48           -3.0538    -5.6457     2.9902 H       
  49 H49           -1.2001    -4.0270     2.9596 H       
  50 H50           -1.3963    -1.9520     1.6507 H       
@<TRIPOS>BOND
   1    1    2 ar
   2    1    7 1
   3    1    6 ar
   4    2    3 ar
   5    2   33 1
   6    3    4 ar
   7    3   34 1
   8    4    5 ar
   9    4   21 1
  10    5    6 ar
  11    5   35 1
  12    6   36 1
  13    7    8 1
  14    7   37 1
  15    8    9 2
  16    8   12 1
  17    9   10 1
  18    9   14 1
  19   10   11 2
  20   10   13 1
  21   11   12 1
  22   13   38 1
  23   14   15 1
  24   14   16 2
  25   15   17 1
  26   15   39 1
  27   16   40 1
  28   17   18 1
  29   17   19 1
  30   17   41 1
  31   18   42 1
  32   18   43 1
  33   18   44 1
  34   19   20 1
  35   19   45 1
  36   19   46 1
  37   20   47 1
  38   21   22 1
  39   22   23 ar
  40   22   27 ar
  41   23   24 ar
  42   23   28 1
  43   24   25 ar
  44   24   29 1
  45   25   26 ar
  46   25   48 1
  47   26   27 ar
  48   26   49 1
  49   27   50 1
  50   29   30 1
  51   29   31 1
  52   29   32 1

#	End of record

