#	Name: ASD01231321
#	Creating user name:	WinNT
#	Creation time:	15. 06. 2019 19:15

#	Modifying user name:	WinNT
#	Modification time:	15. 06. 2019 19:15

#	Program:	/corina/corina34_cracker 3.40 0067  02.08.2006

@<TRIPOS>MOLECULE
ASD01231321
  50   52    0    0    0
SMALL
NO_CHARGES


@<TRIPOS>ATOM
   1 C1            -0.6936    -0.5133    -0.6832 C.3     
   2 C2             0.2347    -1.6677    -1.0662 C.3     
   3 C3            -0.5817    -2.7815    -1.7248 C.3     
   4 S4             1.4928    -1.0716    -2.2291 S.o2    
   5 O5             2.4938    -2.0599    -2.4305 O.2     
   6 O6             0.8821    -0.4125    -3.3299 O.2     
   7 N7             2.2725     0.1383    -1.4100 N.am    
   8 C8             3.0498    -0.1737    -0.2081 C.3     
   9 C9             4.5385    -0.3649    -0.5677 C.3     
  10 C10            5.1150     1.0511    -0.3554 C.3     
  11 C11            4.2080     1.6985     0.6690 C.ar    
  12 C12            4.4055     2.8151     1.4643 C.ar    
  13 C13            3.4209     3.2270     2.3408 C.ar    
  14 C14            2.2340     2.5231     2.4255 C.ar    
  15 C15            2.0353     1.4094     1.6333 C.ar    
  16 C16            3.0214     0.9948     0.7537 C.ar    
  17 C17            3.6404     4.4423     3.2045 C.3     
  18 C18            3.1540     5.6696     2.4776 C.ar    
  19 C19            1.8450     6.0861     2.6256 C.ar    
  20 C20            1.3980     7.2158     1.9563 C.ar    
  21 C21            2.2672     7.9249     1.1396 C.ar    
  22 C22            3.5749     7.5044     0.9950 C.ar    
  23 C23            4.0196     6.3810     1.6678 C.ar    
  24 O24            0.1107     7.6273     2.0999 O.3     
  25 C25           -0.2800     8.7987     1.3808 C.3     
  26 H26           -0.1120     0.2803    -0.2140 H       
  27 H27           -1.1804    -0.1262    -1.5784 H       
  28 H28           -1.4496    -0.8714     0.0155 H       
  29 H29            0.7215    -2.0547    -0.1711 H       
  30 H30           -1.0685    -2.3945    -2.6199 H       
  31 H31            0.0796    -3.6039    -1.9976 H       
  32 H32           -1.3377    -3.1397    -1.0260 H       
  33 H33            2.2145     1.0535    -1.7261 H       
  34 H34            2.6586    -1.0705     0.2724 H       
  35 H35            5.0109    -1.0804     0.1053 H       
  36 H36            4.6493    -0.6766    -1.6063 H       
  37 H37            6.1343     0.9912     0.0260 H       
  38 H38            5.0921     1.6127    -1.2894 H       
  39 H39            5.3325     3.3653     1.3989 H       
  40 H40            1.4632     2.8436     3.1106 H       
  41 H41            1.1079     0.8601     1.7000 H       
  42 H42            3.0878     4.3297     4.1373 H       
  43 H43            4.7033     4.5463     3.4221 H       
  44 H44            1.1702     5.5323     3.2616 H       
  45 H45            1.9214     8.8046     0.6172 H       
  46 H46            4.2517     8.0557     0.3592 H       
  47 H47            5.0438     6.0566     1.5572 H       
  48 H48           -0.1433     8.6316     0.3124 H       
  49 H49           -1.3286     9.0165     1.5833 H       
  50 H50            0.3340     9.6415     1.6982 H       
@<TRIPOS>BOND
   1    1    2 1
   2    1   26 1
   3    1   27 1
   4    1   28 1
   5    2    3 1
   6    2    4 1
   7    2   29 1
   8    3   30 1
   9    3   31 1
  10    3   32 1
  11    4    5 2
  12    4    6 2
  13    4    7 am
  14    7    8 1
  15    7   33 1
  16    8    9 1
  17    8   16 1
  18    8   34 1
  19    9   10 1
  20    9   35 1
  21    9   36 1
  22   10   11 1
  23   10   37 1
  24   10   38 1
  25   11   12 ar
  26   11   16 ar
  27   12   13 ar
  28   12   39 1
  29   13   14 ar
  30   13   17 1
  31   14   15 ar
  32   14   40 1
  33   15   16 ar
  34   15   41 1
  35   17   18 1
  36   17   42 1
  37   17   43 1
  38   18   19 ar
  39   18   23 ar
  40   19   20 ar
  41   19   44 1
  42   20   21 ar
  43   20   24 1
  44   21   22 ar
  45   21   45 1
  46   22   23 ar
  47   22   46 1
  48   23   47 1
  49   24   25 1
  50   25   48 1
  51   25   49 1
  52   25   50 1

#	End of record

