#	Name: ASD01530067
#	Creating user name:	WinNT
#	Creation time:	15. 06. 2019 19:22

#	Modifying user name:	WinNT
#	Modification time:	15. 06. 2019 19:22

#	Program:	/corina/corina34_cracker 3.40 0067  02.08.2006

@<TRIPOS>MOLECULE
ASD01530067
  44   46    0    0    0
SMALL
NO_CHARGES


@<TRIPOS>ATOM
   1 C1             0.1764     0.8811     0.0290 C.ar    
   2 C2             0.3970    -0.4825     0.1045 C.ar    
   3 C3             1.6884    -0.9734     0.1451 C.ar    
   4 C4             2.7621    -0.1017     0.1104 C.ar    
   5 C5             1.2468     1.7502    -0.0056 C.ar    
   6 C6             1.3417     3.2559    -0.0846 C.3     
   7 C7             2.5422     1.2578     0.0352 C.ar    
   8 C8             3.4751     2.4450    -0.0175 C.3     
   9 O9             2.6777     3.5908     0.3338 O.3     
  10 C10            4.6132     2.2662     0.9893 C.3     
  11 C11            5.5476     3.4760     0.9229 C.3     
  12 C12            6.6857     3.2972     1.9297 C.3     
  13 N13            7.5828     4.4587     1.8660 N.3     
  14 C14            8.5482     4.4396     2.9731 C.3     
  15 C15            8.2701     4.5226     0.5693 C.3     
  16 C16            4.0318     2.6066    -1.4085 C.ar    
  17 C17            3.8759     3.8046    -2.0801 C.ar    
  18 C18            4.3865     3.9534    -3.3575 C.ar    
  19 C19            5.0534     2.9032    -3.9622 C.ar    
  20 C20            5.2095     1.7046    -3.2893 C.ar    
  21 C21            4.7031     1.5587    -2.0100 C.ar    
  22 Cl22           6.0464     0.3860    -4.0474 Cl      
  23 Cl23           4.1896     5.4577    -4.2013 Cl      
  24 H24           -0.8326     1.2644    -0.0072 H       
  25 H25           -0.4405    -1.1639     0.1320 H       
  26 H26            1.8594    -2.0381     0.2043 H       
  27 H27            3.7711    -0.4853     0.1424 H       
  28 H28            1.1742     3.5896    -1.1087 H       
  29 H29            0.6129     3.7138     0.5842 H       
  30 H30            4.1995     2.1814     1.9941 H       
  31 H31            5.1722     1.3618     0.7489 H       
  32 H32            5.9613     3.5609    -0.0819 H       
  33 H33            4.9886     4.3804     1.1633 H       
  34 H34            6.2720     3.2123     2.9345 H       
  35 H35            7.2447     2.3928     1.6893 H       
  36 H36            9.1480     3.5313     2.9165 H       
  37 H37            9.1999     5.3104     2.9019 H       
  38 H38            8.0129     4.4630     3.9223 H       
  39 H39            7.5327     4.6063    -0.2290 H       
  40 H40            8.9277     5.3916     0.5490 H       
  41 H41            8.8598     3.6172     0.4256 H       
  42 H42            3.3552     4.6245    -1.6079 H       
  43 H43            5.4518     3.0187    -4.9593 H       
  44 H44            4.8284     0.6244    -1.4830 H       
@<TRIPOS>BOND
   1    1    2 ar
   2    1    5 ar
   3    1   24 1
   4    2    3 ar
   5    2   25 1
   6    3    4 ar
   7    3   26 1
   8    4    7 ar
   9    4   27 1
  10    5    7 ar
  11    5    6 1
  12    6    9 1
  13    6   28 1
  14    6   29 1
  15    7    8 1
  16    8    9 1
  17    8   10 1
  18    8   16 1
  19   10   11 1
  20   10   30 1
  21   10   31 1
  22   11   12 1
  23   11   32 1
  24   11   33 1
  25   12   13 1
  26   12   34 1
  27   12   35 1
  28   13   14 1
  29   13   15 1
  30   14   36 1
  31   14   37 1
  32   14   38 1
  33   15   39 1
  34   15   40 1
  35   15   41 1
  36   16   17 ar
  37   16   21 ar
  38   17   18 ar
  39   17   42 1
  40   18   19 ar
  41   18   23 1
  42   19   20 ar
  43   19   43 1
  44   20   21 ar
  45   20   22 1
  46   21   44 1

#	End of record

