#	Name: ASD08170153
#	Creating user name:	WinNT
#	Creation time:	15. 06. 2019 21:17

#	Modifying user name:	WinNT
#	Modification time:	15. 06. 2019 21:17

#	Program:	/corina/corina34_cracker 3.40 0067  02.08.2006

@<TRIPOS>MOLECULE
ASD08170153
  66   67    0    0    0
SMALL
NO_CHARGES


@<TRIPOS>ATOM
   1 Cl1            0.0000     0.0000     0.0000 Cl      
   2 H2             0.0000     1.3700     0.0000 H       
   3 Cl3            5.0000     6.3700     5.0000 Cl      
   4 H4             5.0000     7.7400     5.0000 H       
   5 C5            12.0003    24.1574    11.7951 C.3     
   6 C6            13.4149    26.2168    11.7926 C.3     
   7 C7            14.8503    26.7464    11.7818 C.3     
   8 C8            14.8299    28.2533    11.7901 C.2     
   9 C9            12.0207    22.6506    11.7868 C.2     
  10 S10           14.8022    29.3012    10.3714 S.3     
  11 C11           14.7927    30.6675    11.4048 C.2     
  12 N12           14.8098    30.2574    12.6372 N.2     
  13 N13           14.8238    29.0114    12.8402 N.2     
  14 S14           12.0212    21.6179    10.3567 S.3     
  15 N15           12.0467    21.8812    12.8284 N.2     
  16 N16           12.0609    20.6375    12.6118 N.2     
  17 C17           12.0503    20.2407    11.3750 C.2     
  18 N18           12.0625    18.9171    10.9483 N.am    
  19 C19           12.0880    17.9177    11.8523 C.2     
  20 O20           12.1004    18.1728    13.0379 O.2     
  21 N21           14.7708    31.9955    10.9926 N.am    
  22 C22           14.7654    32.9851    11.9076 C.2     
  23 C23           14.7417    34.4242    11.4609 C.3     
  24 O24           14.7797    32.7175    13.0904 O.2     
  25 C25           12.1013    16.4835    11.3898 C.3     
  26 C26           12.1296    15.5697    12.5878 C.ar    
  27 C27           13.4357    24.6870    11.7842 C.3     
  28 C28           14.7402    35.3252    12.6690 C.ar    
  29 C29           10.9443    15.1352    13.1521 C.ar    
  30 C30           15.9378    35.7540    13.2112 C.ar    
  31 C31           15.9400    36.5797    14.3182 C.ar    
  32 C32           14.7374    36.9794    14.8870 C.ar    
  33 C33           13.5362    36.5468    14.3398 C.ar    
  34 C34           13.5411    35.7257    13.2293 C.ar    
  35 C35           10.9666    14.2977    14.2500 C.ar    
  36 C36           12.1815    13.8918    14.7874 C.ar    
  37 C37           13.3703    14.3302    14.2180 C.ar    
  38 C38           13.3408    15.1630    13.1168 C.ar    
  39 N39           12.2077    13.0452    15.8980 N.pl3   
  40 N40           14.7360    37.8141    16.0069 N.pl3   
  41 H41           11.4731    24.5185    10.9120 H       
  42 H42           11.4901    24.5089    12.6919 H       
  43 H43           12.9047    26.5684    12.6894 H       
  44 H44           12.8877    26.5779    10.9096 H       
  45 H45           15.3775    26.3853    12.6648 H       
  46 H46           15.3605    26.3949    10.8850 H       
  47 H47           12.0527    18.7131    10.0000 H       
  48 H48           14.7594    32.2096    10.0466 H       
  49 H49           15.6236    34.6310    10.8546 H       
  50 H50           13.8438    34.6066    10.8705 H       
  51 H51           11.2060    16.2833    10.8012 H       
  52 H52           12.9857    16.3074    10.7775 H       
  53 H53           13.9629    24.3259    12.6673 H       
  54 H54           13.9459    24.3355    10.8874 H       
  55 H55           10.0000    15.4514    12.7340 H       
  56 H56           16.8725    35.4426    12.7687 H       
  57 H57           16.8757    36.9140    14.7415 H       
  58 H58           12.5994    36.8557    14.7795 H       
  59 H59           12.6075    35.3893    12.8031 H       
  60 H60           10.0405    13.9590    14.6905 H       
  61 H61           14.3166    14.0165    14.6334 H       
  62 H62           14.2647    15.5040    12.6734 H       
  63 H63           11.3770    12.7400    16.2949 H       
  64 H64           13.0567    12.7625    16.2724 H       
  65 H65           15.5754    38.1153    16.3884 H       
  66 H66           13.8956    38.0926    16.4032 H       
@<TRIPOS>BOND
   1    1    2 1
   2    3    4 1
   3    5    9 1
   4    5   27 1
   5    5   41 1
   6    5   42 1
   7    6    7 1
   8    6   27 1
   9    6   43 1
  10    6   44 1
  11    7    8 1
  12    7   45 1
  13    7   46 1
  14    8   10 1
  15    8   13 2
  16    9   14 1
  17    9   15 2
  18   10   11 1
  19   11   12 2
  20   11   21 1
  21   12   13 1
  22   14   17 1
  23   15   16 1
  24   16   17 2
  25   17   18 1
  26   18   19 am
  27   18   47 1
  28   19   20 2
  29   19   25 1
  30   21   22 am
  31   21   48 1
  32   22   23 1
  33   22   24 2
  34   23   28 1
  35   23   49 1
  36   23   50 1
  37   25   26 1
  38   25   51 1
  39   25   52 1
  40   26   29 ar
  41   26   38 ar
  42   27   53 1
  43   27   54 1
  44   28   30 ar
  45   28   34 ar
  46   29   35 ar
  47   29   55 1
  48   30   31 ar
  49   30   56 1
  50   31   32 ar
  51   31   57 1
  52   32   33 ar
  53   32   40 1
  54   33   34 ar
  55   33   58 1
  56   34   59 1
  57   35   36 ar
  58   35   60 1
  59   36   37 ar
  60   36   39 1
  61   37   38 ar
  62   37   61 1
  63   38   62 1
  64   39   63 1
  65   39   64 1
  66   40   65 1
  67   40   66 1

#	End of record

