#	Name: ASD02408026
#	Creating user name:	WinNT
#	Creation time:	15. 06. 2019 20:21

#	Modifying user name:	WinNT
#	Modification time:	15. 06. 2019 20:21

#	Program:	/corina/corina34_cracker 3.40 0067  02.08.2006

@<TRIPOS>MOLECULE
ASD02408026
  38   40    0    0    0
SMALL
NO_CHARGES


@<TRIPOS>ATOM
   1 C1             0.4981     0.6708    -0.0687 C.ar    
   2 C2             0.7502    -0.6709    -0.2835 C.ar    
   3 C3             1.6364     1.6583    -0.0539 C.3     
   4 C4             1.8645     2.1829    -1.4480 C.2     
   5 N5             2.8447     3.0841    -1.6523 N.am    
   6 N6             1.1091     1.7451    -2.4184 N.2     
   7 C7             1.2664     2.1753    -3.6768 C.2     
   8 C8             2.2670     3.1196    -3.9600 C.2     
   9 C9             3.0770     3.5748    -2.8880 C.2     
  10 N10            0.4585     1.6982    -4.6796 N.pl3   
  11 O11            3.9598     4.3936    -3.0777 O.2     
  12 C12            1.0002     1.4132    -6.0177 C.3     
  13 C13           -0.2951    -1.5774    -0.2976 C.ar    
  14 C14           -1.5919    -1.1401    -0.0967 C.ar    
  15 C15           -1.8429     0.2023     0.1181 C.ar    
  16 C16           -0.7989     1.1081     0.1268 C.ar    
  17 Cl17           0.0208    -3.2629    -0.5678 Cl      
  18 C18            0.5685    -0.0008    -6.4230 C.3     
  19 O19           -0.8481    -0.1217    -6.2725 O.3     
  20 C20           -1.3099     0.0403    -4.9293 C.3     
  21 C21           -0.9731     1.4510    -4.4459 C.3     
  22 C22            2.4671     3.6046    -5.2925 C.1     
  23 N23            2.6257     3.9893    -6.3495 N.1     
  24 H24            1.7629    -1.0117    -0.4406 H       
  25 H25            1.3900     2.4867     0.6103 H       
  26 H26            2.5410     1.1646     0.3011 H       
  27 H27            3.3873     3.3828    -0.9059 H       
  28 H28            0.6089     2.1359    -6.7337 H       
  29 H29            2.0884     1.4719    -5.9935 H       
  30 H30           -2.4082    -1.8471    -0.1079 H       
  31 H31           -2.8554     0.5439     0.2749 H       
  32 H32           -0.9954     2.1566     0.2949 H       
  33 H33            0.8407    -0.1806    -7.4630 H       
  34 H34            1.0660    -0.7305    -5.7842 H       
  35 H35           -2.3889    -0.1099    -4.8946 H       
  36 H36           -0.8191    -0.6893    -4.2851 H       
  37 H37           -1.1931     1.5368    -3.3818 H       
  38 H38           -1.5616     2.1802    -5.0028 H       
@<TRIPOS>BOND
   1    1    2 ar
   2    1    3 1
   3    1   16 ar
   4    2   13 ar
   5    2   24 1
   6    3    4 1
   7    3   25 1
   8    3   26 1
   9    4    5 1
  10    4    6 2
  11    5    9 am
  12    5   27 1
  13    6    7 1
  14    7    8 2
  15    7   10 1
  16    8    9 1
  17    8   22 1
  18    9   11 2
  19   10   12 1
  20   10   21 1
  21   12   18 1
  22   12   28 1
  23   12   29 1
  24   13   14 ar
  25   13   17 1
  26   14   15 ar
  27   14   30 1
  28   15   16 ar
  29   15   31 1
  30   16   32 1
  31   18   19 1
  32   18   33 1
  33   18   34 1
  34   19   20 1
  35   20   21 1
  36   20   35 1
  37   20   36 1
  38   21   37 1
  39   21   38 1
  40   22   23 3

#	End of record

