#	Name: ASD01885018
#	Creating user name:	WinNT
#	Creation time:	15. 06. 2019 19:49

#	Modifying user name:	WinNT
#	Modification time:	15. 06. 2019 19:49

#	Program:	/corina/corina34_cracker 3.40 0067  02.08.2006

@<TRIPOS>MOLECULE
ASD01885018
  47   51    0    0    0
SMALL
NO_CHARGES


@<TRIPOS>ATOM
   1 C1            -0.4386     1.2693     0.2465 C.3     
   2 C2            -0.1569    -0.2332     0.1831 C.3     
   3 H3            -1.0905    -0.7837     0.2986 H       
   4 C4             0.4750    -0.5774    -1.1653 C.3     
   5 N5             1.0553    -1.9158    -1.1867 N.am    
   6 C6             1.7423    -2.4099    -0.1286 C.2     
   7 O7             2.3944    -3.4336    -0.2083 O.2     
   8 C8             1.6565    -1.6393     1.1222 C.2     
   9 C9             2.3514    -1.7445     2.3076 C.2     
  10 C10            1.8653    -0.7310     3.1597 C.2     
  11 N11            0.9319    -0.0615     2.5260 N.2     
  12 N12            0.7654    -0.6035     1.2588 N.pl3   
  13 C13            3.4045    -2.7300     2.6251 C.2     
  14 N14            4.0668    -2.8347     3.7623 N.2     
  15 C15            4.9175    -3.8674     3.5905 C.2     
  16 N16            4.7325    -4.3291     2.3806 N.2     
  17 O17            3.8676    -3.6947     1.8148 O.3     
  18 C18            5.8858    -4.3849     4.5907 C.ar    
  19 C19            5.9856    -3.8067     5.8584 C.ar    
  20 C20            6.8991    -4.3185     6.7580 C.ar    
  21 N21            7.6700    -5.3383     6.4336 N.ar    
  22 C22            7.6071    -5.9125     5.2479 C.ar    
  23 C23            6.7173    -5.4667     4.2912 C.ar    
  24 C24            0.8981    -2.7085    -2.3276 C.ar    
  25 C25            0.1164    -3.8556    -2.2758 C.ar    
  26 C26           -0.0372    -4.6362    -3.4046 C.ar    
  27 C27            0.5862    -4.2771    -4.5856 C.ar    
  28 C28            1.3651    -3.1357    -4.6406 C.ar    
  29 C29            1.5186    -2.3478    -3.5168 C.ar    
  30 C30            0.4168    -5.1316    -5.8153 C.3     
  31 F31           -0.6952    -4.6900    -6.5404 F       
  32 F32            1.5622    -5.0338    -6.6126 F       
  33 F33            0.2260    -6.4642    -5.4344 F       
  34 H34            0.4953     1.8193     0.1310 H       
  35 H35           -1.1240     1.5446    -0.5551 H       
  36 H36           -0.8880     1.5144     1.2089 H       
  37 H37           -0.2894    -0.5124    -1.9396 H       
  38 H38            1.2575     0.1494    -1.3836 H       
  39 H39            2.2048    -0.5385     4.1667 H       
  40 H40            5.3577    -2.9712     6.1305 H       
  41 H41            6.9837    -3.8779     7.7403 H       
  42 H42            8.2574    -6.7451     5.0240 H       
  43 H43            6.6679    -5.9445     3.3239 H       
  44 H44           -0.3704    -4.1368    -1.3537 H       
  45 H45           -0.6445    -5.5284    -3.3649 H       
  46 H46            1.8509    -2.8582    -5.5644 H       
  47 H47            2.1237    -1.4543    -3.5615 H       
@<TRIPOS>BOND
   1    1    2 1
   2    1   34 1
   3    1   35 1
   4    1   36 1
   5    2    3 1
   6    2   12 1
   7    2    4 1
   8    4    5 1
   9    4   37 1
  10    4   38 1
  11    5    6 am
  12    5   24 1
  13    6    7 2
  14    6    8 1
  15    8   12 1
  16    8    9 2
  17    9   10 1
  18    9   13 1
  19   10   11 2
  20   10   39 1
  21   11   12 1
  22   13   17 1
  23   13   14 2
  24   14   15 1
  25   15   16 2
  26   15   18 1
  27   16   17 1
  28   18   23 ar
  29   18   19 ar
  30   19   20 ar
  31   19   40 1
  32   20   21 ar
  33   20   41 1
  34   21   22 ar
  35   22   23 ar
  36   22   42 1
  37   23   43 1
  38   24   29 ar
  39   24   25 ar
  40   25   26 ar
  41   25   44 1
  42   26   27 ar
  43   26   45 1
  44   27   28 ar
  45   27   30 1
  46   28   29 ar
  47   28   46 1
  48   29   47 1
  49   30   31 1
  50   30   32 1
  51   30   33 1

#	End of record

