#	Name: ASD02039399
#	Creating user name:	WinNT
#	Creation time:	15. 06. 2019 20:18

#	Modifying user name:	WinNT
#	Modification time:	15. 06. 2019 20:18

#	Program:	/corina/corina34_cracker 3.40 0067  02.08.2006

@<TRIPOS>MOLECULE
ASD02039399
  47   49    0    0    0
SMALL
NO_CHARGES


@<TRIPOS>ATOM
   1 C1            -0.0424     1.2296     0.5153 C.ar    
   2 C2             0.2084    -0.1248     0.6819 C.ar    
   3 C3            -0.8517    -1.0124     0.7100 C.ar    
   4 C4            -2.3753     0.6991     0.4302 C.ar    
   5 C5            -1.3559     1.6476     0.3875 C.ar    
   6 C6            -3.7878     1.1307     0.2943 C.ar    
   7 C7             1.0893     2.2241     0.4806 C.3     
   8 N8             1.5805     2.3572    -0.8932 N.am    
   9 C9             0.9050     3.2603    -1.8283 C.3     
  10 C10            2.6538     1.6489    -1.2967 C.2     
  11 C11            3.2599     0.6528    -0.3963 C.2     
  12 C12            4.2681    -0.2108    -0.7109 C.2     
  13 N13            2.9209     0.4309     0.8994 N.2     
  14 C14            3.6698    -0.5226     1.3731 C.2     
  15 N15            4.5179    -0.9442     0.3992 N.pl3   
  16 O16            3.1219     1.8321    -2.4042 O.2     
  17 C17            5.5222    -2.0031     0.5271 C.3     
  18 C18           -4.2592     2.2207     1.0233 C.ar    
  19 N19           -2.0923    -0.5886     0.5805 N.ar    
  20 C20            1.8510     4.4008    -2.2092 C.3     
  21 C21            0.5065     2.4865    -3.0866 C.3     
  22 C22           -4.6474     0.4507    -0.5679 C.ar    
  23 C23           -5.9622     0.8569    -0.6914 C.ar    
  24 C24           -6.4267     1.9359     0.0374 C.ar    
  25 C25           -5.5762     2.6187     0.8922 C.ar    
  26 Cl26          -4.0662    -0.9038    -1.4851 Cl      
  27 F27           -6.0363     3.6720     1.6021 F       
  28 H28            1.2219    -0.4825     0.7882 H       
  29 H29           -0.6599    -2.0673     0.8395 H       
  30 H30           -1.5877     2.6954     0.2655 H       
  31 H31            0.7337     3.1917     0.8347 H       
  32 H32            1.8981     1.8768     1.1236 H       
  33 H33            0.0124     3.6708    -1.3563 H       
  34 H34            4.7704    -0.2937    -1.6634 H       
  35 H35            3.6261    -0.9134     2.3790 H       
  36 H36            5.0773    -2.9605     0.2557 H       
  37 H37            6.3605    -1.7909    -0.1365 H       
  38 H38            5.8760    -2.0458     1.5572 H       
  39 H39           -3.5968     2.7533     1.6897 H       
  40 H40            2.7526     3.9890    -2.6627 H       
  41 H41            1.3556     5.0615    -2.9206 H       
  42 H42            2.1188     4.9645    -1.3155 H       
  43 H43           -0.2125     1.7106    -2.8236 H       
  44 H44            0.0562     3.1702    -3.8063 H       
  45 H45            1.3918     2.0273    -3.5265 H       
  46 H46           -6.6284     0.3307    -1.3590 H       
  47 H47           -7.4550     2.2503    -0.0628 H       
@<TRIPOS>BOND
   1    1    2 ar
   2    1    7 1
   3    1    5 ar
   4    2    3 ar
   5    2   28 1
   6    3   19 ar
   7    3   29 1
   8    4    5 ar
   9    4    6 1
  10    4   19 ar
  11    5   30 1
  12    6   18 ar
  13    6   22 ar
  14    7    8 1
  15    7   31 1
  16    7   32 1
  17    8    9 1
  18    8   10 am
  19    9   20 1
  20    9   21 1
  21    9   33 1
  22   10   11 1
  23   10   16 2
  24   11   12 2
  25   11   13 1
  26   12   15 1
  27   12   34 1
  28   13   14 2
  29   14   15 1
  30   14   35 1
  31   15   17 1
  32   17   36 1
  33   17   37 1
  34   17   38 1
  35   18   25 ar
  36   18   39 1
  37   20   40 1
  38   20   41 1
  39   20   42 1
  40   21   43 1
  41   21   44 1
  42   21   45 1
  43   22   23 ar
  44   22   26 1
  45   23   24 ar
  46   23   46 1
  47   24   25 ar
  48   24   47 1
  49   25   27 1

#	End of record

