#	Name: ASD03430349
#	Creating user name:	WinNT
#	Creation time:	15. 06. 2019 20:40

#	Modifying user name:	WinNT
#	Modification time:	15. 06. 2019 20:40

#	Program:	/corina/corina34_cracker 3.40 0067  02.08.2006

@<TRIPOS>MOLECULE
ASD03430349
  57   62    0    0    0
SMALL
NO_CHARGES


@<TRIPOS>ATOM
   1 C1            -0.0167     1.3821     0.0096 C.ar    
   2 C2             0.0021    -0.0041     0.0020 C.ar    
   3 C3             1.2028    -0.6818    -0.0162 C.ar    
   4 C4             2.4087     0.0129    -0.0162 C.ar    
   5 C5             2.3861     1.4039    -0.0119 C.ar    
   6 C6             1.1815     2.0867     0.0020 C.ar    
   7 O7             3.4713    -0.8419    -0.0074 O.3     
   8 C8             1.5511    -2.1458    -0.0509 C.3     
   9 C9             3.0363    -2.1458    -0.4380 C.3     
  10 C10            0.4268    -3.8598     1.0070 C.ar    
  11 C11            1.3158    -2.8198     1.2682 C.ar    
  12 C12            0.7167    -2.9064    -1.0410 C.2     
  13 N13            0.0966    -3.8836    -0.3502 N.am    
  14 O14            0.6192    -2.6843    -2.2294 O.2     
  15 C15            1.7821    -2.6009     2.5448 C.ar    
  16 C16            1.3690    -3.4172     3.5832 C.ar    
  17 C17            0.4871    -4.4527     3.3353 C.ar    
  18 C18            0.0170    -4.6765     2.0576 C.ar    
  19 C19           -0.8166    -4.8579    -0.9526 C.3     
  20 O20           -1.2113     2.0356     0.0189 O.3     
  21 C21           -1.1865     3.4165     0.3963 C.3     
  22 C22           -0.0349     4.0988    -0.3543 C.3     
  23 O23            1.1866     3.4483     0.0115 O.3     
  24 C24           -2.2242    -4.3214    -0.9082 C.ar    
  25 C25           -2.7060    -3.5639    -1.9611 C.ar    
  26 C26           -3.9934    -3.0697    -1.9270 C.ar    
  27 C27           -4.8108    -3.3354    -0.8266 C.ar    
  28 C28           -4.3182    -4.1004     0.2324 C.ar    
  29 C29           -3.0307    -4.5932     0.1827 C.ar    
  30 C30           -6.1904    -2.8090    -0.7829 C.2     
  31 O31           -6.9764    -3.0672     0.2802 O.3     
  32 C32           -8.3204    -2.5180     0.2552 C.3     
  33 C33           -9.0568    -2.9134     1.5367 C.3     
  34 O34           -6.6160    -2.1434    -1.7055 O.2     
  35 H35           -0.9268    -0.5550     0.0107 H       
  36 H36            3.3148     1.9551    -0.0190 H       
  37 H37            3.1554    -2.2571    -1.5158 H       
  38 H38            3.5752    -2.9292     0.0949 H       
  39 H39            2.4713    -1.7916     2.7361 H       
  40 H40            1.7349    -3.2459     4.5848 H       
  41 H41            0.1649    -5.0898     4.1457 H       
  42 H42           -0.6714    -5.4876     1.8718 H       
  43 H43           -0.5276    -5.0346    -1.9886 H       
  44 H44           -0.7671    -5.7943    -0.3969 H       
  45 H45           -2.1315     3.8882     0.1269 H       
  46 H46           -1.0261     3.5010     1.4711 H       
  47 H47           -0.1916     4.0078    -1.4291 H       
  48 H48            0.0118     5.1519    -0.0769 H       
  49 H49           -2.0725    -3.3589    -2.8115 H       
  50 H50           -4.3681    -2.4783    -2.7493 H       
  51 H51           -4.9452    -4.3097     1.0865 H       
  52 H52           -2.6484    -5.1851     1.0012 H       
  53 H53           -8.2677    -1.4315     0.1869 H       
  54 H54           -8.8573    -2.9108    -0.6082 H       
  55 H55           -9.1095    -4.0000     1.6050 H       
  56 H56           -8.5198    -2.5207     2.4002 H       
  57 H57          -10.0656    -2.5012     1.5180 H       
@<TRIPOS>BOND
   1    1    2 ar
   2    1    6 ar
   3    1   20 1
   4    2    3 ar
   5    2   35 1
   6    3    4 ar
   7    3    8 1
   8    4    5 ar
   9    4    7 1
  10    5    6 ar
  11    5   36 1
  12    6   23 1
  13    7    9 1
  14    8    9 1
  15    8   11 1
  16    8   12 1
  17    9   37 1
  18    9   38 1
  19   10   11 ar
  20   10   13 1
  21   10   18 ar
  22   11   15 ar
  23   12   13 am
  24   12   14 2
  25   13   19 1
  26   15   16 ar
  27   15   39 1
  28   16   17 ar
  29   16   40 1
  30   17   18 ar
  31   17   41 1
  32   18   42 1
  33   19   24 1
  34   19   43 1
  35   19   44 1
  36   20   21 1
  37   21   22 1
  38   21   45 1
  39   21   46 1
  40   22   23 1
  41   22   47 1
  42   22   48 1
  43   24   25 ar
  44   24   29 ar
  45   25   26 ar
  46   25   49 1
  47   26   27 ar
  48   26   50 1
  49   27   28 ar
  50   27   30 1
  51   28   29 ar
  52   28   51 1
  53   29   52 1
  54   30   31 1
  55   30   34 2
  56   31   32 1
  57   32   33 1
  58   32   53 1
  59   32   54 1
  60   33   55 1
  61   33   56 1
  62   33   57 1

#	End of record

