#	Name: ASD03900026
#	Creating user name:	WinNT
#	Creation time:	15. 06. 2019 20:47

#	Modifying user name:	WinNT
#	Modification time:	15. 06. 2019 20:47

#	Program:	/corina/corina34_cracker 3.40 0067  02.08.2006

@<TRIPOS>MOLECULE
ASD03900026
  51   53    0    0    0
SMALL
NO_CHARGES


@<TRIPOS>ATOM
   1 C1            -0.4742     1.9877     1.2541 C.ar    
   2 C2            -0.1784     0.6374     1.0580 C.ar    
   3 C3            -1.1539    -0.2262     0.6594 C.ar    
   4 C4            -2.4643     0.2466     0.4449 C.ar    
   5 C5            -2.7555     1.6111     0.6449 C.ar    
   6 C6            -1.7711     2.4622     1.0487 C.ar    
   7 C7            -6.3793     1.4468    -1.0988 C.ar    
   8 C8            -7.4563     0.7424    -0.5572 C.ar    
   9 C9            -7.2378    -0.4272     0.1733 C.ar    
  10 C10           -5.9702    -0.8898     0.3618 C.ar    
  11 C11           -4.8780    -0.1840    -0.1819 C.ar    
  12 C12           -5.1062     0.9962    -0.9178 C.ar    
  13 O13            0.5008     2.8408     1.6511 O.3     
  14 O14           -8.7196     1.1964    -0.7411 O.3     
  15 C15           -3.5157    -0.6732     0.0169 C.2     
  16 N16           -3.2259    -1.9863    -0.1968 N.2     
  17 N17           -4.1218    -2.7725    -0.6900 N.pl3   
  18 C18           -3.8656    -4.1184    -0.8084 C.ar    
  19 C19           -4.8346    -4.9738    -1.3427 C.ar    
  20 C20           -4.5710    -6.3214    -1.4583 C.ar    
  21 C21           -3.3494    -6.8296    -1.0466 C.ar    
  22 C22           -2.3845    -5.9877    -0.5161 C.ar    
  23 C23           -2.6322    -4.6375    -0.4001 C.ar    
  24 C24            1.3642     3.2601     0.7110 C.2     
  25 O25            1.1975     2.9488    -0.4444 O.2     
  26 C26            2.5407     4.1189     1.0978 C.3     
  27 C27           -9.2947     0.9360    -1.9270 C.2     
  28 O28           -8.6637     0.3818    -2.7957 O.2     
  29 C29          -10.7268     1.3351    -2.1737 C.3     
  30 N30           -5.5954    -7.2283    -2.0231 N.pl3   
  31 O31           -6.7572    -6.7470    -2.4145 O.2     
  32 O32           -5.3451    -8.5165    -2.1342 O.2     
  33 H33            0.8262     0.2766     1.2224 H       
  34 H34           -0.9236    -1.2704     0.5078 H       
  35 H35           -3.7573     1.9803     0.4824 H       
  36 H36           -1.9928     3.5079     1.2027 H       
  37 H37           -6.5560     2.3485    -1.6662 H       
  38 H38           -8.0756    -0.9667     0.5897 H       
  39 H39           -5.8026    -1.7943     0.9277 H       
  40 H40           -4.2740     1.5421    -1.3373 H       
  41 H41           -4.9762    -2.4144    -0.9775 H       
  42 H42           -5.7873    -4.5791    -1.6637 H       
  43 H43           -3.1483    -7.8866    -1.1392 H       
  44 H44           -1.4347    -6.3906    -0.1969 H       
  45 H45           -1.8793    -3.9826     0.0131 H       
  46 H46            2.5249     4.2936     2.1736 H       
  47 H47            3.4661     3.6112     0.8257 H       
  48 H48            2.4819     5.0729     0.5739 H       
  49 H49          -11.1279     1.8184    -1.2829 H       
  50 H50          -10.7713     2.0277    -3.0142 H       
  51 H51          -11.3170     0.4477    -2.4026 H       
@<TRIPOS>BOND
   1    1    2 ar
   2    1   13 1
   3    1    6 ar
   4    2    3 ar
   5    2   33 1
   6    3    4 ar
   7    3   34 1
   8    4    5 ar
   9    4   15 1
  10    5    6 ar
  11    5   35 1
  12    6   36 1
  13    7    8 ar
  14    7   12 ar
  15    7   37 1
  16    8    9 ar
  17    8   14 1
  18    9   10 ar
  19    9   38 1
  20   10   11 ar
  21   10   39 1
  22   11   12 ar
  23   11   15 1
  24   12   40 1
  25   13   24 1
  26   14   27 1
  27   15   16 2
  28   16   17 1
  29   17   18 1
  30   17   41 1
  31   18   19 ar
  32   18   23 ar
  33   19   20 ar
  34   19   42 1
  35   20   21 ar
  36   20   30 1
  37   21   22 ar
  38   21   43 1
  39   22   23 ar
  40   22   44 1
  41   23   45 1
  42   24   25 2
  43   24   26 1
  44   26   46 1
  45   26   47 1
  46   26   48 1
  47   27   28 2
  48   27   29 1
  49   29   49 1
  50   29   50 1
  51   29   51 1
  52   30   31 2
  53   30   32 2

#	End of record

