#	Name: ASD02038443
#	Creating user name:	WinNT
#	Creation time:	15. 06. 2019 20:16

#	Modifying user name:	WinNT
#	Modification time:	15. 06. 2019 20:16

#	Program:	/corina/corina34_cracker 3.40 0067  02.08.2006

@<TRIPOS>MOLECULE
ASD02038443
  52   54    0    0    0
SMALL
NO_CHARGES


@<TRIPOS>ATOM
   1 C1            -0.1731     1.2014    -0.2585 C.ar    
   2 C2            -0.1303    -0.1686    -0.0655 C.ar    
   3 C3             0.9955     1.9051    -0.5071 C.ar    
   4 C4             2.2061     1.2381    -0.5624 C.ar    
   5 C5             2.2493    -0.1360    -0.3688 C.ar    
   6 C6             1.0768    -0.8379    -0.1200 C.ar    
   7 N7             3.4716    -0.8126    -0.4246 N.3     
   8 N8             5.5933    -2.3995     0.6173 N.3     
   9 C9             5.7771    -0.9600     0.3856 C.3     
  10 C10            4.4313    -0.2463     0.5334 C.3     
  11 C11            6.8775    -3.1104     0.5586 C.3     
  12 C12            6.6253    -4.6195     0.5538 C.3     
  13 C13            7.9628    -5.3598     0.4927 C.3     
  14 O14            7.7273    -6.7693     0.4882 O.3     
  15 C15            8.8196    -7.5775     0.4363 C.ar    
  16 C16            8.6625    -8.9557     0.4290 C.ar    
  17 C17            9.7713    -9.7771     0.3759 C.ar    
  18 C18           11.0436    -9.2232     0.3297 C.ar    
  19 C19           11.2001    -7.8438     0.3370 C.ar    
  20 C20           10.0902    -7.0234     0.3849 C.ar    
  21 C21            3.2878    -2.2521    -0.1930 C.3     
  22 C22            4.6336    -2.9658    -0.3408 C.3     
  23 N23           12.1693   -10.0563     0.2762 N.am    
  24 F24            0.9518     3.2421    -0.6956 F       
  25 F25           -1.3557     1.8529    -0.2103 F       
  26 C26           12.1190   -11.2137    -0.4125 C.2     
  27 N27           13.2277   -11.9690    -0.5428 N.am    
  28 O28           11.0735   -11.5766    -0.9161 O.2     
  29 H29           -1.0416    -0.7147     0.1284 H       
  30 H30            3.1166     1.7856    -0.7563 H       
  31 H31            1.1090    -1.9068     0.0311 H       
  32 H32            6.4821    -0.5614     1.1151 H       
  33 H33            6.1649    -0.8002    -0.6204 H       
  34 H34            4.5599     0.8175     0.3336 H       
  35 H35            4.0564    -0.3834     1.5477 H       
  36 H36            7.4080    -2.8278    -0.3507 H       
  37 H37            7.4795    -2.8454     1.4277 H       
  38 H38            6.0948    -4.9021     1.4631 H       
  39 H39            6.0233    -4.8845    -0.3153 H       
  40 H40            8.4933    -5.0772    -0.4166 H       
  41 H41            8.5649    -5.0948     1.3619 H       
  42 H42            7.6728    -9.3865     0.4653 H       
  43 H43            9.6489   -10.8501     0.3705 H       
  44 H44           12.1895    -7.4123     0.3015 H       
  45 H45           10.2119    -5.9503     0.3906 H       
  46 H46            2.8999    -2.4120     0.8130 H       
  47 H47            2.5827    -2.6507    -0.9225 H       
  48 H48            5.0084    -2.8288    -1.3551 H       
  49 H49            4.5049    -4.0296    -0.1410 H       
  50 H50           12.9847    -9.7998     0.7348 H       
  51 H51           14.0617   -11.6796    -0.1411 H       
  52 H52           13.1915   -12.8020    -1.0385 H       
@<TRIPOS>BOND
   1    1    2 ar
   2    1    3 ar
   3    1   25 1
   4    2    6 ar
   5    2   29 1
   6    3    4 ar
   7    3   24 1
   8    4    5 ar
   9    4   30 1
  10    5    6 ar
  11    5    7 1
  12    6   31 1
  13    7   21 1
  14    7   10 1
  15    8    9 1
  16    8   11 1
  17    8   22 1
  18    9   10 1
  19    9   32 1
  20    9   33 1
  21   10   34 1
  22   10   35 1
  23   11   12 1
  24   11   36 1
  25   11   37 1
  26   12   13 1
  27   12   38 1
  28   12   39 1
  29   13   14 1
  30   13   40 1
  31   13   41 1
  32   14   15 1
  33   15   16 ar
  34   15   20 ar
  35   16   17 ar
  36   16   42 1
  37   17   18 ar
  38   17   43 1
  39   18   19 ar
  40   18   23 1
  41   19   20 ar
  42   19   44 1
  43   20   45 1
  44   21   22 1
  45   21   46 1
  46   21   47 1
  47   22   48 1
  48   22   49 1
  49   23   26 am
  50   23   50 1
  51   26   27 am
  52   26   28 2
  53   27   51 1
  54   27   52 1

#	End of record

