#	Name: ASD01813288
#	Creating user name:	WinNT
#	Creation time:	15. 06. 2019 19:30

#	Modifying user name:	WinNT
#	Modification time:	15. 06. 2019 19:30

#	Program:	/corina/corina34_cracker 3.40 0067  02.08.2006

@<TRIPOS>MOLECULE
ASD01813288
  59   63    0    0    0
SMALL
NO_CHARGES


@<TRIPOS>ATOM
   1 C1            -0.0178     1.4608     0.0101 C.3     
   2 N2             0.0021    -0.0041     0.0020 N.pl3   
   3 C3             0.0077    -0.7875    -1.0939 C.2     
   4 C4             0.0273    -2.0862    -0.6731 C.2     
   5 C5             0.0335    -2.0755     0.7360 C.2     
   6 N6             0.0245    -0.8305     1.1319 N.2     
   7 C7             0.0393    -3.2890    -1.5409 C.ar    
   8 C8             0.0533    -4.5572    -0.9640 C.ar    
   9 C9             0.0639    -5.6700    -1.7865 C.ar    
  10 C10            0.0601    -5.4781    -3.1611 C.ar    
  11 C11            0.0708    -6.6613    -4.0943 C.3     
  12 C12           -1.3464    -7.0701    -4.4034 C.ar    
  13 C13           -1.9416    -8.0504    -3.6791 C.ar    
  14 C14           -3.2641    -8.4475    -3.9504 C.ar    
  15 C15           -3.8877    -9.5163    -3.1468 C.2     
  16 O16           -5.0302    -9.8626    -3.3777 O.2     
  17 N17           -3.1910   -10.1088    -2.1569 N.am    
  18 C18           -3.8102   -11.1700    -1.3590 C.3     
  19 H19           -4.8710   -10.9562    -1.2283 H       
  20 C20           -3.6428   -12.5136    -2.0752 C.3     
  21 C21           -4.2226   -13.6264    -1.1981 C.3     
  22 O22           -3.5661   -13.6214     0.0712 O.3     
  23 C23           -3.7280   -12.4072     0.8071 C.3     
  24 C24           -3.1299   -11.2440     0.0114 C.3     
  25 H25           -3.2930   -10.3105     0.5500 H       
  26 O26           -1.7277   -11.4577    -0.1625 O.3     
  27 C27           -3.9863    -7.8400    -4.9689 C.ar    
  28 F28           -5.2559    -8.2230    -5.2267 F       
  29 C29           -3.3836    -6.8218    -5.7292 C.ar    
  30 C30           -4.0806    -6.1819    -6.7679 C.ar    
  31 C31           -3.4686    -5.1994    -7.4852 C.ar    
  32 C32           -2.1588    -4.8179    -7.2043 C.ar    
  33 C33           -1.4531    -5.4163    -6.2048 C.ar    
  34 C34           -2.0524    -6.4299    -5.4397 C.ar    
  35 C35            0.0459    -4.1915    -3.6660 C.ar    
  36 N36            0.0309    -3.1486    -2.8603 N.ar    
  37 H37            1.0048     1.8381     0.0023 H       
  38 H38           -0.5450     1.8219    -0.8730 H       
  39 H39           -0.5280     1.8123     0.9069 H       
  40 H40           -0.0015    -0.4495    -2.1196 H       
  41 H41            0.0482    -2.9447     1.3768 H       
  42 H42            0.0563    -4.6702     0.1101 H       
  43 H43            0.0753    -6.6656    -1.3682 H       
  44 H44            0.5806    -6.3903    -5.0188 H       
  45 H45            0.5937    -7.4925    -3.6212 H       
  46 H46           -1.3930    -8.5329    -2.8837 H       
  47 H47           -2.2796    -9.8325    -1.9726 H       
  48 H48           -4.1723   -12.4872    -3.0276 H       
  49 H49           -2.5839   -12.7030    -2.2513 H       
  50 H50           -5.2901   -13.4581    -1.0559 H       
  51 H51           -4.0678   -14.5899    -1.6837 H       
  52 H52           -4.7891   -12.2231     0.9756 H       
  53 H53           -3.2170   -12.4925     1.7661 H       
  54 H54           -1.2328   -11.5149     0.6663 H       
  55 H55           -5.0966    -6.4681    -6.9966 H       
  56 H56           -4.0063    -4.7092    -8.2833 H       
  57 H57           -1.6957    -4.0361    -7.7880 H       
  58 H58           -0.4381    -5.1099    -5.9991 H       
  59 H59            0.0432    -4.0388    -4.7351 H       
@<TRIPOS>BOND
   1    1    2 1
   2    1   37 1
   3    1   38 1
   4    1   39 1
   5    2    6 1
   6    2    3 1
   7    3    4 2
   8    3   40 1
   9    4    5 1
  10    4    7 1
  11    5    6 2
  12    5   41 1
  13    7   36 ar
  14    7    8 ar
  15    8    9 ar
  16    8   42 1
  17    9   10 ar
  18    9   43 1
  19   10   11 1
  20   10   35 ar
  21   11   12 1
  22   11   44 1
  23   11   45 1
  24   12   34 ar
  25   12   13 ar
  26   13   14 ar
  27   13   46 1
  28   14   15 1
  29   14   27 ar
  30   15   16 2
  31   15   17 am
  32   17   18 1
  33   17   47 1
  34   18   19 1
  35   18   24 1
  36   18   20 1
  37   20   21 1
  38   20   48 1
  39   20   49 1
  40   21   22 1
  41   21   50 1
  42   21   51 1
  43   22   23 1
  44   23   24 1
  45   23   52 1
  46   23   53 1
  47   24   25 1
  48   24   26 1
  49   26   54 1
  50   27   28 1
  51   27   29 ar
  52   29   34 ar
  53   29   30 ar
  54   30   31 ar
  55   30   55 1
  56   31   32 ar
  57   31   56 1
  58   32   33 ar
  59   32   57 1
  60   33   34 ar
  61   33   58 1
  62   35   36 ar
  63   35   59 1

#	End of record

