#	Name: ASD09740184
#	Creating user name:	WinNT
#	Creation time:	15. 06. 2019 21:22

#	Modifying user name:	WinNT
#	Modification time:	15. 06. 2019 21:22

#	Program:	/corina/corina34_cracker 3.40 0067  02.08.2006

@<TRIPOS>MOLECULE
ASD09740184
  33   35    0    0    0
SMALL
NO_CHARGES


@<TRIPOS>ATOM
   1 O1            -0.0144     1.2086     0.0087 O.3     
   2 N2             0.0021    -0.0041     0.0020 N.2     
   3 C3             1.2407     1.6828    -0.0008 C.2     
   4 N4             2.0451     0.6378    -0.0140 N.2     
   5 C5             1.2351    -0.4415    -0.0121 C.2     
   6 C6             1.6638    -1.8627    -0.0231 C.ar    
   7 C7             1.6452     3.1064     0.0026 C.ar    
   8 C8             3.0195    -2.1832    -0.0370 C.ar    
   9 C9             0.7120    -2.8792    -0.0138 C.ar    
  10 C10            1.1183    -4.2033    -0.0242 C.ar    
  11 C11            2.4711    -4.5144    -0.0433 C.ar    
  12 C12            3.4160    -3.5058    -0.0472 C.ar    
  13 C13            0.6872     4.1255     0.0173 C.ar    
  14 C14            1.1085     5.4415     0.0204 C.ar    
  15 N15            2.3937     5.7414     0.0097 N.ar    
  16 C16            3.3294     4.8106    -0.0042 C.ar    
  17 C17            2.9959     3.4696    -0.0029 C.ar    
  18 C18            2.9106    -5.9558    -0.0536 C.3     
  19 O19            0.1924    -5.1982    -0.0152 O.3     
  20 C20           -1.1815    -4.8057     0.0050 C.3     
  21 Cl21           5.0014     5.2773    -0.0182 Cl      
  22 Cl22          -0.0685     6.7174     0.0379 Cl      
  23 H23            3.7603    -1.3973    -0.0401 H       
  24 H24           -0.3400    -2.6357     0.0018 H       
  25 H25            4.4673    -3.7528    -0.0625 H       
  26 H26           -0.3662     3.8872     0.0257 H       
  27 H27            3.7667     2.7132    -0.0144 H       
  28 H28            3.0027    -6.3003    -1.0836 H       
  29 H29            3.8747    -6.0453     0.4471 H       
  30 H30            2.1723    -6.5645     0.4684 H       
  31 H31           -1.3775    -4.2150     0.8999 H       
  32 H32           -1.4018    -4.2086    -0.8799 H       
  33 H33           -1.8131    -5.6940     0.0104 H       
@<TRIPOS>BOND
   1    1    2 1
   2    1    3 1
   3    2    5 2
   4    3    4 2
   5    3    7 1
   6    4    5 1
   7    5    6 1
   8    6    8 ar
   9    6    9 ar
  10    7   13 ar
  11    7   17 ar
  12    8   12 ar
  13    8   23 1
  14    9   10 ar
  15    9   24 1
  16   10   11 ar
  17   10   19 1
  18   11   12 ar
  19   11   18 1
  20   12   25 1
  21   13   14 ar
  22   13   26 1
  23   14   15 ar
  24   14   22 1
  25   15   16 ar
  26   16   17 ar
  27   16   21 1
  28   17   27 1
  29   18   28 1
  30   18   29 1
  31   18   30 1
  32   19   20 1
  33   20   31 1
  34   20   32 1
  35   20   33 1

#	End of record

