#	Name: ASD05068001
#	Creating user name:	WinNT
#	Creation time:	15. 06. 2019 20:56

#	Modifying user name:	WinNT
#	Modification time:	15. 06. 2019 20:56

#	Program:	/corina/corina34_cracker 3.40 0067  02.08.2006

@<TRIPOS>MOLECULE
ASD05068001
  55   57    0    0    0
SMALL
NO_CHARGES


@<TRIPOS>ATOM
   1 C1            -0.0143     1.2041     0.0087 C.2     
   2 C2            -1.3295     1.9397     0.0189 C.3     
   3 O3             0.0021    -0.0041     0.0020 O.2     
   4 O4             1.1389     1.8910     0.0013 O.3     
   5 N5            -1.8949     2.6591     3.6342 N.ar    
   6 C6            -1.7667     2.0295     2.4909 C.ar    
   7 C7            -1.4686     2.7020     1.3114 C.ar    
   8 C8            -1.2994     4.0799     1.3310 C.ar    
   9 C9            -1.4412     4.7464     2.5745 C.ar    
  10 C10           -1.2866     6.1346     2.6794 C.ar    
  11 C11           -1.4312     6.7391     3.8923 C.ar    
  12 C12           -1.7304     5.9935     5.0298 C.ar    
  13 C13           -1.8866     4.6427     4.9628 C.ar    
  14 C14           -1.7459     3.9846     3.7285 C.ar    
  15 C15           -1.9471     0.5338     2.4549 C.3     
  16 C16           -0.9808     4.8290     0.0937 C.ar    
  17 C17           -1.8915     5.7525    -0.4200 C.ar    
  18 C18           -1.5888     6.4475    -1.5727 C.ar    
  19 C19           -0.3850     6.2298    -2.2192 C.ar    
  20 C20            0.5221     5.3155    -1.7148 C.ar    
  21 C21            0.2333     4.6182    -0.5594 C.ar    
  22 C22           -0.0610     6.9917    -3.4784 C.3     
  23 C23           -2.5715     7.4455    -2.1290 C.3     
  24 O24           -2.4010     1.0016    -0.0985 O.3     
  25 C25           -2.7874     0.7264    -1.4465 C.3     
  26 C26           -1.5950     0.1478    -2.2109 C.3     
  27 C27           -3.9357    -0.2848    -1.4515 C.3     
  28 C28           -3.2454     2.0214    -2.1203 C.3     
  29 H29           -1.3628     2.6361    -0.8190 H       
  30 H30            1.9569     1.3754    -0.0092 H       
  31 H31           -1.0538     6.7227     1.8040 H       
  32 H32           -1.3118     7.8095     3.9724 H       
  33 H33           -1.8398     6.4946     5.9802 H       
  34 H34           -2.1186     4.0790     5.8543 H       
  35 H35           -2.9943     0.2986     2.2646 H       
  36 H36           -1.3300     0.1123     1.6613 H       
  37 H37           -1.6475     0.1085     3.4128 H       
  38 H38           -2.8318     5.9227     0.0834 H       
  39 H39            1.4599     5.1496    -2.2241 H       
  40 H40            0.9440     3.9076    -0.1642 H       
  41 H41            0.4528     7.9178    -3.2207 H       
  42 H42            0.5822     6.3844    -4.1152 H       
  43 H43           -0.9838     7.2240    -4.0101 H       
  44 H44           -2.3728     8.4282    -1.7012 H       
  45 H45           -2.4667     7.4931    -3.2129 H       
  46 H46           -3.5856     7.1370    -1.8752 H       
  47 H47           -1.2688    -0.7748    -1.7309 H       
  48 H48           -1.8898    -0.0621    -3.2391 H       
  49 H49           -0.7770     0.8682    -2.2073 H       
  50 H50           -4.7852     0.1274    -0.9070 H       
  51 H51           -4.2304    -0.4947    -2.4797 H       
  52 H52           -3.6094    -1.2074    -0.9715 H       
  53 H53           -2.4274     2.7418    -2.1167 H       
  54 H54           -3.5402     1.8115    -3.1485 H       
  55 H55           -4.0949     2.4336    -1.5757 H       
@<TRIPOS>BOND
   1    1    3 2
   2    1    4 1
   3    1    2 1
   4    2    7 1
   5    2   24 1
   6    2   29 1
   7    4   30 1
   8    5    6 ar
   9    5   14 ar
  10    6    7 ar
  11    6   15 1
  12    7    8 ar
  13    8    9 ar
  14    8   16 1
  15    9   10 ar
  16    9   14 ar
  17   10   11 ar
  18   10   31 1
  19   11   12 ar
  20   11   32 1
  21   12   13 ar
  22   12   33 1
  23   13   14 ar
  24   13   34 1
  25   15   35 1
  26   15   36 1
  27   15   37 1
  28   16   17 ar
  29   16   21 ar
  30   17   18 ar
  31   17   38 1
  32   18   19 ar
  33   18   23 1
  34   19   20 ar
  35   19   22 1
  36   20   21 ar
  37   20   39 1
  38   21   40 1
  39   22   41 1
  40   22   42 1
  41   22   43 1
  42   23   44 1
  43   23   45 1
  44   23   46 1
  45   24   25 1
  46   25   26 1
  47   25   28 1
  48   25   27 1
  49   26   47 1
  50   26   48 1
  51   26   49 1
  52   27   50 1
  53   27   51 1
  54   27   52 1
  55   28   53 1
  56   28   54 1
  57   28   55 1

#	End of record

