#	Name: ASD03092224
#	Creating user name:	WinNT
#	Creation time:	15. 06. 2019 20:32

#	Modifying user name:	WinNT
#	Modification time:	15. 06. 2019 20:32

#	Program:	/corina/corina34_cracker 3.40 0067  02.08.2006

@<TRIPOS>MOLECULE
ASD03092224
  55   57    0    0    0
SMALL
NO_CHARGES


@<TRIPOS>ATOM
   1 N1            -0.5294     1.5248     0.1073 N.pl3   
   2 C2            -0.2411     0.2124     0.2548 C.2     
   3 N3            -1.3740    -0.4597     0.2088 N.2     
   4 C4            -2.3916     0.3854     0.0349 C.2     
   5 N5            -1.9246     1.6111    -0.0272 N.2     
   6 C6             0.4239     2.6371     0.0964 C.3     
   7 C7             0.8376     2.9401    -1.3451 C.3     
   8 O8            -0.2966     3.4072    -2.0781 O.3     
   9 C9             1.9252     4.0163    -1.3480 C.3     
  10 C10            2.4271     4.2302    -2.7775 C.3     
  11 C11            1.1084    -0.3675     0.4351 C.ar    
  12 C12            1.2553    -1.6351     0.9954 C.ar    
  13 C13            2.5231    -2.1724     1.1610 C.ar    
  14 C14            3.6417    -1.4469     0.7685 C.ar    
  15 C15            3.4953    -0.1896     0.2128 C.ar    
  16 C16            2.2375     0.3509     0.0393 C.ar    
  17 N17           -3.7372     0.0250    -0.0605 N.pl3   
  18 C18           -4.0991    -1.3257    -0.0874 C.ar    
  19 C19           -5.3503    -1.7194     0.3686 C.ar    
  20 C20           -5.7069    -3.0540     0.3416 C.ar    
  21 C21           -4.8183    -3.9996    -0.1392 C.ar    
  22 C22           -3.5675    -3.6098    -0.5951 C.ar    
  23 C23           -3.2097    -2.2743    -0.5757 C.ar    
  24 F24           -5.1692    -5.3040    -0.1642 F       
  25 F25           -2.7010    -4.5345    -1.0633 F       
  26 N26            2.6758    -3.4424     1.7225 N.pl3   
  27 C27            4.0152    -4.0098     1.8973 C.3     
  28 C28            3.9021    -5.3990     2.5283 C.3     
  29 O29            3.2334    -6.2802     1.6236 O.3     
  30 C30            3.0751    -7.6112     2.1189 C.3     
  31 H31           -0.0427     3.5199     0.5337 H       
  32 H32            1.3050     2.3662     0.6780 H       
  33 H33            1.2228     2.0330    -1.8108 H       
  34 H34           -0.6920     4.2134    -1.7192 H       
  35 H35            1.5138     4.9497    -0.9639 H       
  36 H36            2.7539     3.6971    -0.7160 H       
  37 H37            1.5984     4.5494    -3.4095 H       
  38 H38            3.2019     4.9969    -2.7796 H       
  39 H39            2.8385     3.2968    -3.1616 H       
  40 H40            0.3847    -2.1970     1.3001 H       
  41 H41            4.6283    -1.8665     0.8984 H       
  42 H42            4.3680     0.3697    -0.0904 H       
  43 H43            2.1273     1.3335    -0.3952 H       
  44 H44           -4.4209     0.7114    -0.1080 H       
  45 H45           -6.0445    -0.9824     0.7447 H       
  46 H46           -6.6801    -3.3596     0.6964 H       
  47 H47           -2.2362    -1.9702    -0.9308 H       
  48 H48            1.8951    -3.9486     1.9967 H       
  49 H49            4.5051    -4.0903     0.9269 H       
  50 H50            4.6022    -3.3618     2.5481 H       
  51 H51            4.8996    -5.7842     2.7400 H       
  52 H52            3.3342    -5.3315     3.4562 H       
  53 H53            2.5591    -8.2171     1.3741 H       
  54 H54            4.0554    -8.0422     2.3221 H       
  55 H55            2.4900    -7.5896     3.0383 H       
@<TRIPOS>BOND
   1    1    2 1
   2    1    6 1
   3    1    5 1
   4    2    3 2
   5    2   11 1
   6    3    4 1
   7    4    5 2
   8    4   17 1
   9    6    7 1
  10    6   31 1
  11    6   32 1
  12    7    8 1
  13    7    9 1
  14    7   33 1
  15    8   34 1
  16    9   10 1
  17    9   35 1
  18    9   36 1
  19   10   37 1
  20   10   38 1
  21   10   39 1
  22   11   12 ar
  23   11   16 ar
  24   12   13 ar
  25   12   40 1
  26   13   14 ar
  27   13   26 1
  28   14   15 ar
  29   14   41 1
  30   15   16 ar
  31   15   42 1
  32   16   43 1
  33   17   18 1
  34   17   44 1
  35   18   19 ar
  36   18   23 ar
  37   19   20 ar
  38   19   45 1
  39   20   21 ar
  40   20   46 1
  41   21   22 ar
  42   21   24 1
  43   22   23 ar
  44   22   25 1
  45   23   47 1
  46   26   27 1
  47   26   48 1
  48   27   28 1
  49   27   49 1
  50   27   50 1
  51   28   29 1
  52   28   51 1
  53   28   52 1
  54   29   30 1
  55   30   53 1
  56   30   54 1
  57   30   55 1

#	End of record

