#	Name: ASD01880137
#	Creating user name:	WinNT
#	Creation time:	15. 06. 2019 19:40

#	Modifying user name:	WinNT
#	Modification time:	15. 06. 2019 19:40

#	Program:	/corina/corina34_cracker 3.40 0067  02.08.2006

@<TRIPOS>MOLECULE
ASD01880137
  55   59    0    0    0
SMALL
NO_CHARGES


@<TRIPOS>ATOM
   1 C1            -0.0167     1.3797     0.0096 C.ar    
   2 C2             0.0021    -0.0041     0.0020 C.ar    
   3 C3            -1.1839    -0.7165     0.0095 C.ar    
   4 C4            -2.3963    -0.0549     0.0251 C.ar    
   5 C5            -2.4283     1.3401     0.0334 C.ar    
   6 C6            -1.2199     2.0561     0.0305 C.ar    
   7 C7            -3.8069    -0.5934     0.0358 C.3     
   8 C8            -4.7347     0.6292     0.0518 C.3     
   9 C9            -3.8166     1.8273     0.0497 C.2     
  10 Cl10          -1.2396     3.7920     0.0413 Cl      
  11 Cl11           1.4757     2.2665     0.0001 Cl      
  12 C12            1.3186    -0.7373    -0.0150 C.3     
  13 C13           -5.6210     0.6384    -1.1953 C.3     
  14 C14           -5.5965     0.6241     1.3159 C.3     
  15 C15           -6.5624     1.8684    -1.1906 C.3     
  16 C16           -6.9083     2.0857    -2.6782 C.3     
  17 C17           -5.7696     1.4465    -3.4922 C.3     
  18 C18           -4.7715     0.8630    -2.4708 C.3     
  19 O19           -4.1629     2.9894     0.0604 O.2     
  20 C20            1.8719    -0.7589    -1.4413 C.3     
  21 C21            3.1884    -1.4921    -1.4583 C.ar    
  22 C22            3.2137    -2.8581    -1.6741 C.ar    
  23 C23            4.4167    -3.5345    -1.6907 C.ar    
  24 C24            5.6068    -2.8389    -1.4900 C.ar    
  25 C25            5.5757    -1.4632    -1.2735 C.ar    
  26 C26            4.3675    -0.7958    -1.2637 C.ar    
  27 C27            6.9037    -3.5613    -1.5063 C.2     
  28 N28            7.0861    -4.8749    -1.7014 N.2     
  29 N29            8.3550    -5.0985    -1.6409 N.2     
  30 N30            8.9650    -3.9870    -1.4179 N.pl3   
  31 N31            8.1003    -3.0349    -1.3373 N.2     
  32 H32           -1.1616    -1.7963     0.0028 H       
  33 H33           -3.9873    -1.1886    -0.8594 H       
  34 H34           -3.9699    -1.1987     0.9275 H       
  35 H35            2.0256    -0.2298     0.6413 H       
  36 H36            1.1696    -1.7596     0.3325 H       
  37 H37           -6.1938    -0.2862    -1.2671 H       
  38 H38           -4.9523     0.6416     2.1950 H       
  39 H39           -6.2407     1.5033     1.3200 H       
  40 H40           -6.2106    -0.2763     1.3334 H       
  41 H41           -7.4642     1.6564    -0.6163 H       
  42 H42           -6.0483     2.7407    -0.7871 H       
  43 H43           -7.8551     1.6009    -2.9161 H       
  44 H44           -6.9694     3.1521    -2.8954 H       
  45 H45           -6.1639     0.6514    -4.1251 H       
  46 H46           -5.2782     2.2026    -4.1044 H       
  47 H47           -3.9682     1.5729    -2.2741 H       
  48 H48           -4.3665    -0.0828    -2.8308 H       
  49 H49            1.1649    -1.2664    -2.0976 H       
  50 H50            2.0208     0.2634    -1.7888 H       
  51 H51            2.2904    -3.3964    -1.8296 H       
  52 H52            4.4353    -4.6012    -1.8586 H       
  53 H53            6.4955    -0.9192    -1.1174 H       
  54 H54            4.3422     0.2708    -1.0959 H       
  55 H55            9.9251    -3.8821    -1.3283 H       
@<TRIPOS>BOND
   1    1    2 ar
   2    1   11 1
   3    1    6 ar
   4    2    3 ar
   5    2   12 1
   6    3    4 ar
   7    3   32 1
   8    4    5 ar
   9    4    7 1
  10    5    6 ar
  11    5    9 1
  12    6   10 1
  13    7    8 1
  14    7   33 1
  15    7   34 1
  16    8    9 1
  17    8   13 1
  18    8   14 1
  19    9   19 2
  20   12   20 1
  21   12   35 1
  22   12   36 1
  23   13   15 1
  24   13   18 1
  25   13   37 1
  26   14   38 1
  27   14   39 1
  28   14   40 1
  29   15   16 1
  30   15   41 1
  31   15   42 1
  32   16   17 1
  33   16   43 1
  34   16   44 1
  35   17   18 1
  36   17   45 1
  37   17   46 1
  38   18   47 1
  39   18   48 1
  40   20   21 1
  41   20   49 1
  42   20   50 1
  43   21   22 ar
  44   21   26 ar
  45   22   23 ar
  46   22   51 1
  47   23   24 ar
  48   23   52 1
  49   24   25 ar
  50   24   27 1
  51   25   26 ar
  52   25   53 1
  53   26   54 1
  54   27   28 1
  55   27   31 2
  56   28   29 2
  57   29   30 1
  58   30   31 1
  59   30   55 1

#	End of record

