#	Name: ASD01230530
#	Creating user name:	WinNT
#	Creation time:	15. 06. 2019 19:14

#	Modifying user name:	WinNT
#	Modification time:	15. 06. 2019 19:14

#	Program:	/corina/corina34_cracker 3.40 0067  02.08.2006

@<TRIPOS>MOLECULE
ASD01230530
  45   48    0    0    0
SMALL
NO_CHARGES


@<TRIPOS>ATOM
   1 S1            -1.6215     2.7529     1.5551 S.o2    
   2 N2            -1.3524     1.2760     0.8766 N.am    
   3 C3            -0.2277     0.8825     0.4277 C.2     
   4 N4             0.9285     1.6186     0.4826 N.pl3   
   5 C5             1.1091     2.6850     1.4612 C.3     
   6 C6            -0.0651     3.6618     1.3708 C.3     
   7 C7            -0.0958    -0.4908    -0.2105 C.3     
   8 C8             1.2815    -1.0397     0.1702 C.3     
   9 C9             2.3971    -0.1590    -0.3765 C.3     
  10 C10            1.9800     1.3023    -0.4898 C.3     
  11 C11           -1.1742    -1.4047     0.3120 C.ar    
  12 C12           -2.0842    -1.9690    -0.5627 C.ar    
  13 C13           -3.0737    -2.8070    -0.0864 C.ar    
  14 C14           -3.1536    -3.0826     1.2712 C.ar    
  15 C15           -2.2387    -2.5154     2.1468 C.ar    
  16 C16           -1.2483    -1.6819     1.6646 C.ar    
  17 O17           -4.1262    -3.9062     1.7424 O.3     
  18 C18           -4.9324    -4.5238     0.8390 C.ar    
  19 C19           -4.5694    -5.7547     0.3124 C.ar    
  20 C20           -5.3905    -6.3828    -0.6073 C.ar    
  21 C21           -6.5754    -5.7821    -1.0027 C.ar    
  22 C22           -6.9387    -4.5521    -0.4769 C.ar    
  23 C23           -6.1214    -3.9259     0.4474 C.ar    
  24 F24           -8.0937    -3.9672    -0.8629 F       
  25 F25           -7.3763    -6.3954    -1.9014 F       
  26 F26           -5.0371    -7.5816    -1.1202 F       
  27 O27           -2.6320     3.3301     0.7397 O.2     
  28 O28           -1.8683     2.4654     2.9247 O.2     
  29 H29            1.1491     2.2565     2.4627 H       
  30 H30            2.0392     3.2144     1.2546 H       
  31 H31           -0.0484     4.1613     0.4021 H       
  32 H32            0.0182     4.4046     2.1642 H       
  33 H33           -0.1741    -0.4051    -1.2943 H       
  34 H34            1.3608    -1.0833     1.2565 H       
  35 H35            1.3896    -2.0457    -0.2353 H       
  36 H36            3.2596    -0.2296     0.2863 H       
  37 H37            2.6821    -0.5224    -1.3638 H       
  38 H38            1.6070     1.4922    -1.4962 H       
  39 H39            2.8453     1.9381    -0.3024 H       
  40 H40           -2.0216    -1.7541    -1.6193 H       
  41 H41           -3.7847    -3.2469    -0.7700 H       
  42 H42           -2.2987    -2.7283     3.2039 H       
  43 H43           -0.5335    -1.2434     2.3452 H       
  44 H44           -3.6458    -6.2225     0.6199 H       
  45 H45           -6.4068    -2.9698     0.8607 H       
@<TRIPOS>BOND
   1    1    2 am
   2    1    6 1
   3    1   27 2
   4    1   28 2
   5    2    3 2
   6    3    4 1
   7    3    7 1
   8    4    5 1
   9    4   10 1
  10    5    6 1
  11    5   29 1
  12    5   30 1
  13    6   31 1
  14    6   32 1
  15    7    8 1
  16    7   11 1
  17    7   33 1
  18    8    9 1
  19    8   34 1
  20    8   35 1
  21    9   10 1
  22    9   36 1
  23    9   37 1
  24   10   38 1
  25   10   39 1
  26   11   12 ar
  27   11   16 ar
  28   12   13 ar
  29   12   40 1
  30   13   14 ar
  31   13   41 1
  32   14   15 ar
  33   14   17 1
  34   15   16 ar
  35   15   42 1
  36   16   43 1
  37   17   18 1
  38   18   19 ar
  39   18   23 ar
  40   19   20 ar
  41   19   44 1
  42   20   21 ar
  43   20   26 1
  44   21   22 ar
  45   21   25 1
  46   22   23 ar
  47   22   24 1
  48   23   45 1

#	End of record

