#	Name: ASD01028044
#	Creating user name:	WinNT
#	Creation time:	15. 06. 2019 18:56

#	Modifying user name:	WinNT
#	Modification time:	15. 06. 2019 18:56

#	Program:	/corina/corina34_cracker 3.40 0067  02.08.2006

@<TRIPOS>MOLECULE
ASD01028044
  75   79    0    0    0
SMALL
NO_CHARGES


@<TRIPOS>ATOM
   1 C1             1.1734     0.6624     0.5136 C.3     
   2 C2             0.9681    -0.8346     0.2799 C.3     
   3 C3             3.0716     1.9750     1.4797 C.3     
   4 C4             2.6576     1.0048     0.3707 C.3     
   5 N5             4.8062     1.3701     3.1117 N.3     
   6 N6             4.1970    -1.7749     4.1585 N.pl3   
   7 C7             5.3144    -1.3393     4.8570 C.ar    
   8 C8             6.1148    -0.3607     4.2786 C.ar    
   9 C9             5.7477     0.2212     2.9431 C.3     
  10 C10            5.6378    -1.8384     6.1184 C.ar    
  11 C11            6.7796    -1.3903     6.7685 C.ar    
  12 C12            7.5933    -0.4397     6.1652 C.ar    
  13 C13            7.2565     0.0667     4.9273 C.ar    
  14 O14            0.1030    -1.3738     1.2807 O.3     
  15 C15            0.5972    -2.3571     2.0771 C.ar    
  16 C16            1.7540    -2.1254     2.7714 C.ar    
  17 C17            2.2689    -3.1142     3.6160 C.ar    
  18 C18            3.4792    -2.9228     4.3382 C.ar    
  19 N19            3.8661    -3.8930     5.1548 N.ar    
  20 O20            5.0067    -2.7435     6.9171 O.3     
  21 C21            5.8339    -2.9676     8.0634 C.3     
  22 O22            6.8981    -2.0138     7.9737 O.3     
  23 C23           -0.0671    -3.5862     2.1865 C.ar    
  24 C24            0.4139    -4.5717     3.0233 C.ar    
  25 C25            1.5792    -4.3419     3.7657 C.ar    
  26 N26            2.0624    -5.2501     4.6279 N.ar    
  27 C27            3.1694    -5.0089     5.2915 C.ar    
  28 O28           -1.1946    -3.8094     1.4631 O.3     
  29 C29           -1.8244    -5.0825     1.6196 C.3     
  30 C30            5.6238     2.4568     3.7566 C.3     
  31 C31           -3.0693    -5.1482     0.7325 C.3     
  32 C32           -3.7436    -6.5113     0.9001 C.3     
  33 N33           -4.9389    -6.5743     0.0484 N.3     
  34 C34            4.5774     1.8745     1.7133 C.3     
  35 Br35           9.1588     0.1576     7.0423 Br      
  36 C36           -4.5742    -6.5373    -1.3741 C.3     
  37 C37           -5.7417    -7.7657     0.3552 C.3     
  38 C38           -6.5056    -7.5432     1.6621 C.3     
  39 O39           -7.4572    -6.4921     1.4846 O.3     
  40 H40            0.5951     1.2287    -0.2160 H       
  41 H41            0.8380     0.9188     1.5198 H       
  42 H42            0.5188    -0.9866    -0.7025 H       
  43 H43            1.9301    -1.3441     0.3150 H       
  44 H44            2.8123     2.9924     1.1859 H       
  45 H45            2.5420     1.7200     2.3981 H       
  46 H46            3.2512     0.0937     0.4557 H       
  47 H47            2.8377     1.4650    -0.5999 H       
  48 H48            3.8871    -1.1873     3.4566 H       
  49 H49            5.2569    -0.5252     2.3289 H       
  50 H50            6.6379     0.5944     2.4431 H       
  51 H51            7.8973     0.7977     4.4554 H       
  52 H52            2.2601    -1.1771     2.6648 H       
  53 H53            5.2630    -2.8072     8.9778 H       
  54 H54            6.2362    -3.9804     8.0461 H       
  55 H55           -0.1038    -5.5163     3.1042 H       
  56 H56            3.5252    -5.7573     5.9842 H       
  57 H57           -1.1291    -5.8700     1.3288 H       
  58 H58           -2.1132    -5.2194     2.6617 H       
  59 H59            5.0624     3.3910     3.7421 H       
  60 H60            5.8449     2.1817     4.7879 H       
  61 H61            6.5563     2.5847     3.2068 H       
  62 H62           -3.7646    -4.3607     1.0234 H       
  63 H63           -2.7805    -5.0113    -0.3096 H       
  64 H64           -3.0483    -7.2988     0.6093 H       
  65 H65           -4.0324    -6.6482     1.9422 H       
  66 H66            5.0236     1.1705     1.0214 H       
  67 H67            5.0381     2.8527     1.6317 H       
  68 H68           -3.8528    -7.3267    -1.5849 H       
  69 H69           -5.4663    -6.6886    -1.9819 H       
  70 H70           -4.1330    -5.5691    -1.6110 H       
  71 H71           -6.4500    -7.9447    -0.4537 H       
  72 H72           -5.0848    -8.6291     0.4608 H       
  73 H73           -7.0249    -8.4604     1.9400 H       
  74 H74           -5.8046    -7.2694     2.4506 H       
  75 H75           -7.9789    -6.2962     2.2748 H       
@<TRIPOS>BOND
   1    1    2 1
   2    1    4 1
   3    1   40 1
   4    1   41 1
   5    2   14 1
   6    2   42 1
   7    2   43 1
   8    3    4 1
   9    3   34 1
  10    3   44 1
  11    3   45 1
  12    4   46 1
  13    4   47 1
  14    5   30 1
  15    5   34 1
  16    5    9 1
  17    6    7 1
  18    6   18 1
  19    6   48 1
  20    7    8 ar
  21    7   10 ar
  22    8    9 1
  23    8   13 ar
  24    9   49 1
  25    9   50 1
  26   10   11 ar
  27   10   20 1
  28   11   12 ar
  29   11   22 1
  30   12   13 ar
  31   12   35 1
  32   13   51 1
  33   14   15 1
  34   15   16 ar
  35   15   23 ar
  36   16   17 ar
  37   16   52 1
  38   17   18 ar
  39   17   25 ar
  40   18   19 ar
  41   19   27 ar
  42   20   21 1
  43   21   22 1
  44   21   53 1
  45   21   54 1
  46   23   24 ar
  47   23   28 1
  48   24   25 ar
  49   24   55 1
  50   25   26 ar
  51   26   27 ar
  52   27   56 1
  53   28   29 1
  54   29   31 1
  55   29   57 1
  56   29   58 1
  57   30   59 1
  58   30   60 1
  59   30   61 1
  60   31   32 1
  61   31   62 1
  62   31   63 1
  63   32   33 1
  64   32   64 1
  65   32   65 1
  66   33   36 1
  67   33   37 1
  68   34   66 1
  69   34   67 1
  70   36   68 1
  71   36   69 1
  72   36   70 1
  73   37   38 1
  74   37   71 1
  75   37   72 1
  76   38   39 1
  77   38   73 1
  78   38   74 1
  79   39   75 1

#	End of record

