#	Name: ASD04590608
#	Creating user name:	WinNT
#	Creation time:	15. 06. 2019 20:51

#	Modifying user name:	WinNT
#	Modification time:	15. 06. 2019 20:51

#	Program:	/corina/corina34_cracker 3.40 0067  02.08.2006

@<TRIPOS>MOLECULE
ASD04590608
  63   68    0    0    0
SMALL
NO_CHARGES


@<TRIPOS>ATOM
   1 N1            -0.0170     1.3241    -0.0111 N.ar    
   2 C2             0.0017    -0.0035    -0.0049 C.ar    
   3 N3             1.1288    -0.6959    -0.0117 N.ar    
   4 C4             2.3047    -0.0744    -0.0258 C.ar    
   5 C5             2.3193     1.3366    -0.0333 C.ar    
   6 C6             1.1058     2.0214    -0.0251 C.ar    
   7 N7             3.6008    -0.5160    -0.0356 N.pl3   
   8 C8             4.4753     0.5584    -0.0492 C.2     
   9 C9             3.7293     1.7373    -0.0484 C.2     
  10 C10            5.8821     0.6499    -0.0632 C.2     
  11 N11            6.4769     1.8577    -0.0753 N.am    
  12 C12            5.7481     3.0099    -0.0745 C.2     
  13 C13            4.4007     2.9806    -0.0611 C.2     
  14 N14           -1.2017    -0.6878     0.0098 N.pl3   
  15 C15           -2.4017     0.0138     0.1304 C.ar    
  16 C16            4.0052    -1.9241    -0.0313 C.3     
  17 N17           -2.3878     1.3211     0.3309 N.ar    
  18 N18           -3.4667     2.0064     0.4472 N.ar    
  19 C19           -4.6655     1.4512     0.3743 C.ar    
  20 C20           -4.7825     0.0762     0.1645 C.ar    
  21 C21           -3.6192    -0.6615     0.0339 C.ar    
  22 N22           -5.8081     2.2370     0.5072 N.3     
  23 C23            3.4068    -2.6419     1.1961 C.3     
  24 C24            3.4446    -2.6372    -1.2742 C.3     
  25 C25            2.5252    -3.7636    -0.7588 C.3     
  26 C26            2.1101    -3.2965     0.6584 C.3     
  27 C27           -6.6648     1.7412     1.5935 C.3     
  28 C28           -5.4554     3.6475     0.7205 C.3     
  29 C29           -6.7339     4.4867     0.7818 C.3     
  30 N30           -7.5906     3.9909     1.8680 N.3     
  31 C31           -7.9433     2.5804     1.6547 C.3     
  32 O32            6.5602    -0.3649    -0.0638 O.2     
  33 C33           -6.3720     5.9499     1.0444 C.3     
  34 C34           -8.7100     2.4394     0.3382 C.3     
  35 H35            1.0831     3.1012    -0.0308 H       
  36 H36            7.4455     1.9092    -0.0845 H       
  37 H37            6.2587     3.9615    -0.0841 H       
  38 H38            3.8374     3.9020    -0.0603 H       
  39 H39           -1.2106    -1.6549    -0.0637 H       
  40 H40            5.0924    -2.0000    -0.0158 H       
  41 H41           -5.7514    -0.3968     0.1023 H       
  42 H42           -3.6524    -1.7284    -0.1302 H       
  43 H43            4.0938    -3.4035     1.5651 H       
  44 H44            3.1740    -1.9237     1.9822 H       
  45 H45            2.8717    -1.9357    -1.8806 H       
  46 H46            4.2598    -3.0600    -1.8615 H       
  47 H47            1.6489    -3.8639    -1.3993 H       
  48 H48            3.0698    -4.7063    -0.7055 H       
  49 H49            1.8216    -4.1468     1.2764 H       
  50 H50            1.3028    -2.5661     0.6034 H       
  51 H51           -6.9227     0.6988     1.4064 H       
  52 H52           -6.1324     1.8200     2.5413 H       
  53 H53           -4.9092     3.7480     1.6585 H       
  54 H54           -4.8315     3.9949    -0.1030 H       
  55 H55           -7.2663     4.4079    -0.1661 H       
  56 H56           -7.1483     4.1213     2.7655 H       
  57 H57           -8.5672     2.2330     2.4782 H       
  58 H58           -5.7350     6.3167     0.2395 H       
  59 H59           -7.2827     6.5472     1.0879 H       
  60 H60           -5.8405     6.0281     1.9928 H       
  61 H61           -8.0852     2.7860    -0.4850 H       
  62 H62           -8.9715     1.3931     0.1802 H       
  63 H63           -9.6194     3.0387     0.3813 H       
@<TRIPOS>BOND
   1    1    2 ar
   2    1    6 ar
   3    2    3 ar
   4    2   14 1
   5    3    4 ar
   6    4    5 ar
   7    4    7 1
   8    5    6 ar
   9    5    9 1
  10    6   35 1
  11    7    8 1
  12    7   16 1
  13    8    9 2
  14    8   10 1
  15    9   13 1
  16   10   11 am
  17   10   32 2
  18   11   12 1
  19   11   36 1
  20   12   13 2
  21   12   37 1
  22   13   38 1
  23   14   15 1
  24   14   39 1
  25   15   17 ar
  26   15   21 ar
  27   16   24 1
  28   16   23 1
  29   16   40 1
  30   17   18 ar
  31   18   19 ar
  32   19   20 ar
  33   19   22 1
  34   20   21 ar
  35   20   41 1
  36   21   42 1
  37   22   28 1
  38   22   27 1
  39   23   26 1
  40   23   43 1
  41   23   44 1
  42   24   25 1
  43   24   45 1
  44   24   46 1
  45   25   26 1
  46   25   47 1
  47   25   48 1
  48   26   49 1
  49   26   50 1
  50   27   31 1
  51   27   51 1
  52   27   52 1
  53   28   29 1
  54   28   53 1
  55   28   54 1
  56   29   30 1
  57   29   33 1
  58   29   55 1
  59   30   31 1
  60   30   56 1
  61   31   34 1
  62   31   57 1
  63   33   58 1
  64   33   59 1
  65   33   60 1
  66   34   61 1
  67   34   62 1
  68   34   63 1

#	End of record

