#	Name: ASD01418036
#	Creating user name:	WinNT
#	Creation time:	15. 06. 2019 19:20

#	Modifying user name:	WinNT
#	Modification time:	15. 06. 2019 19:20

#	Program:	/corina/corina34_cracker 3.40 0067  02.08.2006

@<TRIPOS>MOLECULE
ASD01418036
  59   62    0    0    0
SMALL
NO_CHARGES


@<TRIPOS>ATOM
   1 N1            -0.0166     1.3716     0.0096 N.pl3   
   2 C2             0.0021    -0.0041     0.0020 C.2     
   3 C3            -1.1895    -0.8741     0.0080 C.ar    
   4 C4            -1.4494    -1.7158     1.1110 C.ar    
   5 C5            -0.5364    -1.7315     2.2607 C.2     
   6 C6            -2.0695    -0.8664    -1.0732 C.ar    
   7 C7            -3.1826    -1.6816    -1.0635 C.ar    
   8 C8            -3.4368    -2.5136     0.0168 C.ar    
   9 C9            -2.5825    -2.5337     1.1006 C.ar    
  10 C10            1.2830     1.8334    -0.0003 C.ar    
  11 C11            2.1286     0.7048    -0.0145 C.ar    
  12 C12            1.2907    -0.4355    -0.0126 C.2     
  13 C13            1.8365     3.1043     0.0008 C.ar    
  14 C14            3.2223     3.2537    -0.0120 C.ar    
  15 C15            4.0554     2.1253    -0.0260 C.ar    
  16 C16            3.5208     0.8735    -0.0272 C.ar    
  17 C17            1.7460    -1.8720    -0.0247 C.3     
  18 C18            2.5752    -2.1336    -1.2836 C.3     
  19 C19            2.6000    -2.1467     1.2147 C.3     
  20 C20            3.0623    -3.6052     1.2025 C.3     
  21 C21            3.8915    -3.8668    -0.0565 C.3     
  22 C22            3.0374    -3.5921    -1.2958 C.3     
  23 C23            3.8151     4.6039    -0.0114 C.2     
  24 O24            3.0959     5.5832     0.0003 O.2     
  25 O25            5.1545     4.7517    -0.0237 O.3     
  26 C26            5.6679     6.1099    -0.0223 C.3     
  27 C27            5.1858     6.8360     1.2352 C.3     
  28 C28            7.1975     6.0770    -0.0374 C.3     
  29 C29            5.1614     6.8479    -1.2631 C.3     
  30 O30           -0.7641    -2.4565     3.2061 O.2     
  31 Cl31          -4.8430    -3.5315     0.0088 Cl      
  32 H32           -0.8128     1.9256     0.0165 H       
  33 H33            0.3379    -1.0975     2.2647 H       
  34 H34           -1.8801    -0.2216    -1.9186 H       
  35 H35           -3.8615    -1.6716    -1.9034 H       
  36 H36           -2.7872    -3.1842     1.9381 H       
  37 H37            1.1970     3.9745     0.0112 H       
  38 H38            5.1281     2.2505    -0.0362 H       
  39 H39            4.1691     0.0097    -0.0380 H       
  40 H40            0.8762    -2.5289    -0.0194 H       
  41 H41            1.9667    -1.9379    -2.1666 H       
  42 H42            3.4450    -1.4767    -1.2888 H       
  43 H43            3.4698    -1.4898     1.2095 H       
  44 H44            2.0093    -1.9603     2.1116 H       
  45 H45            3.6707    -3.8009     2.0854 H       
  46 H46            2.1925    -4.2621     1.2077 H       
  47 H47            4.7613    -3.2099    -0.0617 H       
  48 H48            4.2208    -4.9058    -0.0652 H       
  49 H49            2.1676    -4.2490    -1.2906 H       
  50 H50            3.6282    -3.7785    -2.1927 H       
  51 H51            5.5466     6.3102     2.1192 H       
  52 H52            5.5711     7.8556     1.2363 H       
  53 H53            4.0961     6.8594     1.2460 H       
  54 H54            7.5409     5.5598    -0.9332 H       
  55 H55            7.5828     7.0966    -0.0363 H       
  56 H56            7.5583     5.5513     0.8466 H       
  57 H57            4.0717     6.8714    -1.2524 H       
  58 H58            5.5468     7.8675    -1.2620 H       
  59 H59            5.5049     6.3307    -2.1590 H       
@<TRIPOS>BOND
   1    1    2 1
   2    1   10 1
   3    1   32 1
   4    2    3 1
   5    2   12 2
   6    3    4 ar
   7    3    6 ar
   8    4    5 1
   9    4    9 ar
  10    5   30 2
  11    5   33 1
  12    6    7 ar
  13    6   34 1
  14    7    8 ar
  15    7   35 1
  16    8    9 ar
  17    8   31 1
  18    9   36 1
  19   10   11 ar
  20   10   13 ar
  21   11   12 1
  22   11   16 ar
  23   12   17 1
  24   13   14 ar
  25   13   37 1
  26   14   15 ar
  27   14   23 1
  28   15   16 ar
  29   15   38 1
  30   16   39 1
  31   17   18 1
  32   17   19 1
  33   17   40 1
  34   18   22 1
  35   18   41 1
  36   18   42 1
  37   19   20 1
  38   19   43 1
  39   19   44 1
  40   20   21 1
  41   20   45 1
  42   20   46 1
  43   21   22 1
  44   21   47 1
  45   21   48 1
  46   22   49 1
  47   22   50 1
  48   23   24 2
  49   23   25 1
  50   25   26 1
  51   26   27 1
  52   26   28 1
  53   26   29 1
  54   27   51 1
  55   27   52 1
  56   27   53 1
  57   28   54 1
  58   28   55 1
  59   28   56 1
  60   29   57 1
  61   29   58 1
  62   29   59 1

#	End of record

