#	Name: ASD05580001
#	Creating user name:	WinNT
#	Creation time:	15. 06. 2019 21:01

#	Modifying user name:	WinNT
#	Modification time:	15. 06. 2019 21:01

#	Program:	/corina/corina34_cracker 3.40 0067  02.08.2006

@<TRIPOS>MOLECULE
ASD05580001
  33   34    0    0    0
SMALL
NO_CHARGES


@<TRIPOS>ATOM
   1 C1            -0.0167     1.3794     0.0096 C.ar    
   2 C2             0.0021    -0.0041     0.0020 C.ar    
   3 C3            -1.1856    -0.7139     0.0100 C.ar    
   4 C4            -2.3937    -0.0416     0.0256 C.ar    
   5 C5            -2.4146     1.3454     0.0333 C.ar    
   6 C6            -1.2228     2.0552     0.0305 C.ar    
   7 Cl7            1.4751     2.2673     0.0002 Cl      
   8 Cl8           -1.1589    -2.4497    -0.0002 Cl      
   9 O9            -3.6010     2.0079     0.0486 O.3     
  10 S10           -4.1277     2.3023     1.4459 S.o2    
  11 O11           -5.4612     2.7440     1.2320 O.2     
  12 O12           -3.8578     1.1154     2.1793 O.2     
  13 C13           -3.0926     3.6678     2.0414 C.3     
  14 S14           -3.6102     4.1327     3.7167 S.o2    
  15 O15           -4.9004     4.7278     3.6929 O.2     
  16 O16           -3.2970     3.0992     4.6402 O.2     
  17 O17           -2.6779     5.2733     4.0994 O.3     
  18 C18           -2.9711     6.4539     3.4935 C.ar    
  19 C19           -3.8472     7.3448     4.0960 C.ar    
  20 C20           -4.1439     8.5457     3.4782 C.ar    
  21 C21           -3.5676     8.8590     2.2600 C.ar    
  22 C22           -2.6939     7.9714     1.6573 C.ar    
  23 C23           -2.3902     6.7721     2.2747 C.ar    
  24 Cl24          -5.2407     9.6609     4.2314 Cl      
  25 Cl25          -1.9732     8.3668     0.1282 Cl      
  26 H26            0.9450    -0.5306    -0.0105 H       
  27 H27           -3.3206    -0.5960     0.0315 H       
  28 H28           -1.2370     3.1351     0.0365 H       
  29 H29           -2.0493     3.3525     2.0578 H       
  30 H30           -3.2029     4.5242     1.3762 H       
  31 H31           -4.2975     7.1005     5.0467 H       
  32 H32           -3.8003     9.7974     1.7787 H       
  33 H33           -1.7082     6.0795     1.8040 H       
@<TRIPOS>BOND
   1    1    2 ar
   2    1    7 1
   3    1    6 ar
   4    2    3 ar
   5    2   26 1
   6    3    4 ar
   7    3    8 1
   8    4    5 ar
   9    4   27 1
  10    5    6 ar
  11    5    9 1
  12    6   28 1
  13    9   10 1
  14   10   11 2
  15   10   12 2
  16   10   13 1
  17   13   14 1
  18   13   29 1
  19   13   30 1
  20   14   15 2
  21   14   16 2
  22   14   17 1
  23   17   18 1
  24   18   19 ar
  25   18   23 ar
  26   19   20 ar
  27   19   31 1
  28   20   21 ar
  29   20   24 1
  30   21   22 ar
  31   21   32 1
  32   22   23 ar
  33   22   25 1
  34   23   33 1

#	End of record

