#	Name: ASD06020063
#	Creating user name:	WinNT
#	Creation time:	15. 06. 2019 21:04

#	Modifying user name:	WinNT
#	Modification time:	15. 06. 2019 21:04

#	Program:	/corina/corina34_cracker 3.40 0067  02.08.2006

@<TRIPOS>MOLECULE
ASD06020063
  38   41    0    0    0
SMALL
NO_CHARGES


@<TRIPOS>ATOM
   1 C1            -0.0187     1.5258     0.0104 C.3     
   2 C2             0.0021    -0.0041     0.0020 C.3     
   3 C3             1.3165     0.7789    -0.0063 C.3     
   4 C4            -0.4420     2.2229    -1.2568 C.2     
   5 O5            -0.7498     1.5724    -2.2330 O.2     
   6 N6            -0.4784     3.5693    -1.3053 N.am    
   7 C7            -0.4085    -0.7090    -1.2923 C.3     
   8 O8            -0.4400    -2.1213    -1.0762 O.3     
   9 C9            -0.8700     4.2142    -2.4777 C.ar    
  10 C10           -0.9065     5.6111    -2.5239 C.ar    
  11 C11           -1.3002     6.2528    -3.7043 C.ar    
  12 C12           -1.6446     5.4262    -4.8034 C.ar    
  13 C13           -1.5806     4.0746    -4.6716 C.ar    
  14 N14           -1.1994     3.5021    -3.5408 N.ar    
  15 S15           -0.5341     6.8419    -1.3221 S.3     
  16 C16           -0.9297     8.1058    -2.4798 C.2     
  17 N17           -1.2885     7.5829    -3.6068 N.2     
  18 C18           -0.8623     9.5564    -2.2039 C.ar    
  19 C19           -1.1998    10.4763    -3.1992 C.ar    
  20 C20           -1.1349    11.8301    -2.9341 C.ar    
  21 C21           -0.7367    12.2757    -1.6866 C.ar    
  22 C22           -0.4009    11.3704    -0.6961 C.ar    
  23 C23           -0.4662    10.0136    -0.9451 C.ar    
  24 Cl24          -0.0512     8.8791     0.3017 Cl      
  25 Cl25          -1.6992     9.9193    -4.7657 Cl      
  26 H26           -0.3072     2.0201     0.9381 H       
  27 H27           -0.2728    -0.5162     0.9241 H       
  28 H28            1.8888     0.7918    -0.9339 H       
  29 H29            1.9064     0.7818     0.9103 H       
  30 H30           -0.2322     4.0896    -0.5246 H       
  31 H31           -1.3977    -0.3657    -1.5950 H       
  32 H32            0.3122    -0.4774    -2.0766 H       
  33 H33           -0.6932    -2.6330    -1.8567 H       
  34 H34           -1.9559     5.8672    -5.7389 H       
  35 H35           -1.8448     3.4515    -5.5132 H       
  36 H36           -1.3953    12.5426    -3.7029 H       
  37 H37           -0.6875    13.3356    -1.4851 H       
  38 H38           -0.0909    11.7255     0.2756 H       
@<TRIPOS>BOND
   1    1    2 1
   2    1    3 1
   3    1    4 1
   4    1   26 1
   5    2    3 1
   6    2    7 1
   7    2   27 1
   8    3   28 1
   9    3   29 1
  10    4    5 2
  11    4    6 am
  12    6    9 1
  13    6   30 1
  14    7    8 1
  15    7   31 1
  16    7   32 1
  17    8   33 1
  18    9   10 ar
  19    9   14 ar
  20   10   11 ar
  21   10   15 1
  22   11   12 ar
  23   11   17 1
  24   12   13 ar
  25   12   34 1
  26   13   14 ar
  27   13   35 1
  28   15   16 1
  29   16   17 2
  30   16   18 1
  31   18   19 ar
  32   18   23 ar
  33   19   20 ar
  34   19   25 1
  35   20   21 ar
  36   20   36 1
  37   21   22 ar
  38   21   37 1
  39   22   23 ar
  40   22   38 1
  41   23   24 1

#	End of record

