#	Name: ASD03430856
#	Creating user name:	WinNT
#	Creation time:	15. 06. 2019 20:41

#	Modifying user name:	WinNT
#	Modification time:	15. 06. 2019 20:41

#	Program:	/corina/corina34_cracker 3.40 0067  02.08.2006

@<TRIPOS>MOLECULE
ASD03430856
  49   53    0    0    0
SMALL
NO_CHARGES


@<TRIPOS>ATOM
   1 S1            -0.0211     1.7022     0.0114 S.3     
   2 C2             0.0021    -0.0041     0.0020 C.2     
   3 N3             1.1985    -0.4571    -0.0107 N.2     
   4 C4             2.2094     0.4337    -0.0138 C.ar    
   5 C5             1.7389     1.7513    -0.0051 C.ar    
   6 C6             3.5994     0.2123    -0.0224 C.ar    
   7 C7             4.4847     1.2734    -0.0248 C.ar    
   8 C8             3.9891     2.5801    -0.0260 C.ar    
   9 C9             2.6370     2.8156    -0.0116 C.ar    
  10 O10            5.8497     1.2674    -0.0148 O.3     
  11 C11            5.1864     3.4921    -0.0594 C.3     
  12 C12            6.3345     2.5518    -0.4504 C.3     
  13 N13            5.1544     5.7592    -0.3500 N.am    
  14 C14            5.0197     4.6123    -1.0455 C.2     
  15 C15            5.4341     4.1586     1.2614 C.ar    
  16 C16            5.6648     3.6896     2.5353 C.ar    
  17 C17            5.8622     4.5793     3.5762 C.ar    
  18 C18            5.8276     5.9405     3.3342 C.ar    
  19 C19            5.5976     6.4153     2.0597 C.ar    
  20 C20            5.3991     5.5270     1.0056 C.ar    
  21 O21            4.8055     4.5060    -2.2345 O.2     
  22 C22            5.0564     7.0936    -0.9465 C.3     
  23 C23            3.6030     7.5692    -0.8965 C.3     
  24 C24            3.5006     8.9628    -1.5195 C.3     
  25 C25            3.8495     8.8834    -3.0070 C.3     
  26 C26            2.0735     9.4902    -1.3578 C.3     
  27 C27           -1.2321    -0.8689     0.0085 C.3     
  28 H28            3.9786    -0.7989    -0.0269 H       
  29 H29            2.2680     3.8306    -0.0044 H       
  30 H30            7.2501     2.8189     0.0772 H       
  31 H31            6.4915     2.5605    -1.5290 H       
  32 H32            5.6913     2.6262     2.7221 H       
  33 H33            6.0433     4.2116     4.5754 H       
  34 H34            5.9810     6.6350     4.1469 H       
  35 H35            5.5711     7.4797     1.8787 H       
  36 H36            5.6852     7.7879    -0.3891 H       
  37 H37            5.3900     7.0535    -1.9834 H       
  38 H38            2.9742     6.8749    -1.4539 H       
  39 H39            3.2693     7.6093     0.1404 H       
  40 H40            4.1959     9.6366    -1.0187 H       
  41 H41            3.7766     9.8763    -3.4508 H       
  42 H42            4.8662     8.5077    -3.1222 H       
  43 H43            3.1543     8.2096    -3.5078 H       
  44 H44            1.8250     9.5468    -0.2980 H       
  45 H45            2.0006    10.4831    -1.8016 H       
  46 H46            1.3783     8.8164    -1.8586 H       
  47 H47           -1.5389    -1.0718    -1.0176 H       
  48 H48           -1.0143    -1.8090     0.5153 H       
  49 H49           -2.0357    -0.3513     0.5323 H       
@<TRIPOS>BOND
   1    1    2 1
   2    1    5 1
   3    2    3 2
   4    2   27 1
   5    3    4 1
   6    4    5 ar
   7    4    6 ar
   8    5    9 ar
   9    6    7 ar
  10    6   28 1
  11    7    8 ar
  12    7   10 1
  13    8    9 ar
  14    8   11 1
  15    9   29 1
  16   10   12 1
  17   11   12 1
  18   11   14 1
  19   11   15 1
  20   12   30 1
  21   12   31 1
  22   13   14 am
  23   13   20 1
  24   13   22 1
  25   14   21 2
  26   15   16 ar
  27   15   20 ar
  28   16   17 ar
  29   16   32 1
  30   17   18 ar
  31   17   33 1
  32   18   19 ar
  33   18   34 1
  34   19   20 ar
  35   19   35 1
  36   22   23 1
  37   22   36 1
  38   22   37 1
  39   23   24 1
  40   23   38 1
  41   23   39 1
  42   24   25 1
  43   24   26 1
  44   24   40 1
  45   25   41 1
  46   25   42 1
  47   25   43 1
  48   26   44 1
  49   26   45 1
  50   26   46 1
  51   27   47 1
  52   27   48 1
  53   27   49 1

#	End of record

