#	Name: ASD09320018
#	Creating user name:	WinNT
#	Creation time:	15. 06. 2019 21:21

#	Modifying user name:	WinNT
#	Modification time:	15. 06. 2019 21:21

#	Program:	/corina/corina34_cracker 3.40 0067  02.08.2006

@<TRIPOS>MOLECULE
ASD09320018
  51   53    0    0    0
SMALL
NO_CHARGES


@<TRIPOS>ATOM
   1 C1             0.1108     1.6409    -0.0380 C.ar    
   2 C2             0.2873     0.2564    -0.0657 C.ar    
   3 C3             1.5593    -0.2746    -0.0636 C.ar    
   4 C4             2.6645     0.5659    -0.0340 C.ar    
   5 C5             2.4930     1.9437    -0.0059 C.ar    
   6 C6             1.2242     2.4824    -0.0083 C.ar    
   7 O7             3.9167     0.0387    -0.0320 O.3     
   8 C8             5.0084     0.9602    -0.0008 C.3     
   9 C9             6.3287     0.1870    -0.0034 C.3     
  10 N10            6.4687    -0.5386    -1.2730 N.3     
  11 C11           -1.2526     2.2150    -0.0463 C.2     
  12 C12           -2.1268     2.0286    -1.2257 C.ar    
  13 C13           -1.7012     2.9119     1.0266 C.2     
  14 C14           -3.0340     3.6125     0.9664 C.3     
  15 C15           -2.8275     5.0651     0.5325 C.3     
  16 C16           -0.8871     2.9841     2.2492 C.ar    
  17 C17           -0.3648     4.2101     2.6748 C.ar    
  18 C18            0.3975     4.2693     3.8222 C.ar    
  19 C19            0.6464     3.1201     4.5522 C.ar    
  20 C20            0.1333     1.9033     4.1378 C.ar    
  21 C21           -0.6357     1.8281     2.9959 C.ar    
  22 C22           -4.0883     1.0754    -2.2314 C.ar    
  23 C23           -3.2775     1.2453    -1.1281 C.ar    
  24 C24           -1.8069     2.6401    -2.4386 C.ar    
  25 C25           -2.6260     2.4623    -3.5344 C.ar    
  26 C26           -3.7625     1.6797    -3.4326 C.ar    
  27 H27           -0.5717    -0.3978    -0.0883 H       
  28 H28            1.6966    -1.3456    -0.0846 H       
  29 H29            3.3550     2.5941     0.0178 H       
  30 H30            1.0917     3.5540     0.0129 H       
  31 H31            4.9639     1.6061    -0.8777 H       
  32 H32            4.9451     1.5681     0.9017 H       
  33 H33            7.1585     0.8846     0.1099 H       
  34 H34            6.3355    -0.5231     0.8236 H       
  35 H35            6.4007     0.0908    -2.0586 H       
  36 H36            7.3336    -1.0576    -1.2993 H       
  37 H37           -3.6783     3.1066     0.2473 H       
  38 H38           -3.5010     3.5904     1.9510 H       
  39 H39           -2.1229     5.5496     1.2085 H       
  40 H40           -2.4314     5.0882    -0.4828 H       
  41 H41           -3.7810     5.5924     0.5625 H       
  42 H42           -0.5579     5.1076     2.1060 H       
  43 H43            0.8017     5.2150     4.1519 H       
  44 H44            1.2446     3.1731     5.4499 H       
  45 H45            0.3323     1.0110     4.7128 H       
  46 H46           -1.0357     0.8780     2.6740 H       
  47 H47           -4.9791     0.4694    -2.1572 H       
  48 H48           -3.5327     0.7727    -0.1911 H       
  49 H49           -0.9203     3.2515    -2.5192 H       
  50 H50           -2.3798     2.9353    -4.4736 H       
  51 H51           -4.4003     1.5434    -4.2935 H       
@<TRIPOS>BOND
   1    1    2 ar
   2    1    6 ar
   3    1   11 1
   4    2    3 ar
   5    2   27 1
   6    3    4 ar
   7    3   28 1
   8    4    5 ar
   9    4    7 1
  10    5    6 ar
  11    5   29 1
  12    6   30 1
  13    7    8 1
  14    8    9 1
  15    8   31 1
  16    8   32 1
  17    9   10 1
  18    9   33 1
  19    9   34 1
  20   10   35 1
  21   10   36 1
  22   11   12 1
  23   11   13 2
  24   12   24 ar
  25   12   23 ar
  26   13   14 1
  27   13   16 1
  28   14   15 1
  29   14   37 1
  30   14   38 1
  31   15   39 1
  32   15   40 1
  33   15   41 1
  34   16   17 ar
  35   16   21 ar
  36   17   18 ar
  37   17   42 1
  38   18   19 ar
  39   18   43 1
  40   19   20 ar
  41   19   44 1
  42   20   21 ar
  43   20   45 1
  44   21   46 1
  45   22   23 ar
  46   22   26 ar
  47   22   47 1
  48   23   48 1
  49   24   25 ar
  50   24   49 1
  51   25   26 ar
  52   25   50 1
  53   26   51 1

#	End of record

