#	Name: ASD01914297
#	Creating user name:	WinNT
#	Creation time:	15. 06. 2019 20:03

#	Modifying user name:	WinNT
#	Modification time:	15. 06. 2019 20:03

#	Program:	/corina/corina34_cracker 3.40 0067  02.08.2006

@<TRIPOS>MOLECULE
ASD01914297
  30   31    0    0    0
SMALL
NO_CHARGES


@<TRIPOS>ATOM
   1 C1            -0.0184     1.5028     0.0103 C.2     
   2 C2             0.0021    -0.0041     0.0020 C.3     
   3 N3             1.1395     2.1925     0.0030 N.am    
   4 C4             1.1422     3.6632     0.0108 C.3     
   5 C5             2.0647     4.1423     1.1368 C.3     
   6 N6             3.3860     3.5196     0.9813 N.3     
   7 C7             3.3056     2.0588     1.1137 C.3     
   8 C8             2.4340     1.4943    -0.0070 C.3     
   9 C9             4.2973     4.0523     1.8857 C.ar    
  10 C10            5.6096     3.5900     1.8954 C.ar    
  11 C11            6.5058     4.1288     2.8005 C.ar    
  12 C12            6.0580     5.1158     3.6690 C.ar    
  13 C13            4.7421     5.5271     3.6043 C.ar    
  14 N14            3.9102     4.9989     2.7265 N.ar    
  15 Br15          -1.8423    -0.6846     0.0160 Br      
  16 O16           -1.0768     2.0948     0.0185 O.2     
  17 H17            0.5123    -0.3556    -0.8948 H       
  18 H18            0.5293    -0.3651     0.8851 H       
  19 H19            1.5096     4.0339    -0.9462 H       
  20 H20            0.1308     4.0303     0.1850 H       
  21 H21            2.1655     5.2265     1.0879 H       
  22 H22            1.6402     3.8592     2.1000 H       
  23 H23            4.3064     1.6320     1.0480 H       
  24 H24            2.8639     1.8047     2.0772 H       
  25 H25            2.2762     0.4281     0.1553 H       
  26 H26            2.9279     1.6524    -0.9658 H       
  27 H27            5.9240     2.8206     1.2058 H       
  28 H28            7.5306     3.7895     2.8315 H       
  29 H29            6.7327     5.5567     4.3880 H       
  30 H30            4.3898     6.2944     4.2779 H       
@<TRIPOS>BOND
   1    1    2 1
   2    1    3 am
   3    1   16 2
   4    2   15 1
   5    2   17 1
   6    2   18 1
   7    3    4 1
   8    3    8 1
   9    4    5 1
  10    4   19 1
  11    4   20 1
  12    5    6 1
  13    5   21 1
  14    5   22 1
  15    6    7 1
  16    6    9 1
  17    7    8 1
  18    7   23 1
  19    7   24 1
  20    8   25 1
  21    8   26 1
  22    9   10 ar
  23    9   14 ar
  24   10   11 ar
  25   10   27 1
  26   11   12 ar
  27   11   28 1
  28   12   13 ar
  29   12   29 1
  30   13   14 ar
  31   13   30 1

#	End of record

