#	Name: ASD01816164
#	Creating user name:	WinNT
#	Creation time:	15. 06. 2019 19:34

#	Modifying user name:	WinNT
#	Modification time:	15. 06. 2019 19:34

#	Program:	/corina/corina34_cracker 3.40 0067  02.08.2006

@<TRIPOS>MOLECULE
ASD01816164
  53   57    0    0    0
SMALL
NO_CHARGES


@<TRIPOS>ATOM
   1 C1            -0.0167     1.3813     0.0096 C.ar    
   2 C2             0.0021    -0.0041     0.0020 C.ar    
   3 C3             1.1984    -0.6909    -0.0131 C.ar    
   4 C4             2.4015     0.0059    -0.0203 C.ar    
   5 C5             2.3790     1.4106    -0.0126 C.ar    
   6 C6             1.1663     2.0916     0.0022 C.ar    
   7 N7             3.6053    -0.6772    -0.0345 N.pl3   
   8 C8             4.7970    -0.0586    -0.0420 C.2     
   9 C9             4.9000     1.3103    -0.0361 C.2     
  10 C10            3.6670     2.1301    -0.0205 C.2     
  11 C11            5.9971     2.2729    -0.0415 C.2     
  12 N12            5.4246     3.4960    -0.0304 N.am    
  13 N13            4.0323     3.3799    -0.0179 N.2     
  14 C14            6.1265     4.7082    -0.0309 C.ar    
  15 C15            5.8873     5.6525     0.9617 C.ar    
  16 C16            7.0667     4.9675    -1.0190 C.ar    
  17 C17            7.7574     6.1637    -1.0169 C.ar    
  18 C18            7.5143     7.1036    -0.0320 C.ar    
  19 C19            6.5827     6.8481     0.9573 C.ar    
  20 F20            4.9771     5.4027     1.9283 F       
  21 O21            7.1914     2.0229    -0.0529 O.2     
  22 C22            3.5779    -2.1419    -0.0411 C.3     
  23 C23            3.5552    -2.6451    -1.4858 C.3     
  24 C24            3.5266    -4.1748    -1.4927 C.3     
  25 C25            3.3782    -4.6757    -2.9308 C.3     
  26 C26            4.8297    -4.7120    -0.8974 C.3     
  27 C27            4.8011    -6.2417    -0.9043 C.3     
  28 C28            4.6527    -6.7425    -2.3424 C.3     
  29 C29            3.3496    -6.2054    -2.9377 C.3     
  30 H30           -0.9602     1.9068     0.0169 H       
  31 H31           -0.9289    -0.5516     0.0083 H       
  32 H32            1.2004    -1.7709    -0.0189 H       
  33 H33            1.1506     3.1715     0.0084 H       
  34 H34            5.6983    -0.6536    -0.0527 H       
  35 H35            7.2583     4.2342    -1.7884 H       
  36 H36            8.4887     6.3652    -1.7856 H       
  37 H37            8.0566     8.0375    -0.0330 H       
  38 H38            6.3950     7.5844     1.7248 H       
  39 H39            4.4656    -2.5242     0.4629 H       
  40 H40            2.6860    -2.4910     0.4793 H       
  41 H41            2.6675    -2.2628    -1.9898 H       
  42 H42            4.4471    -2.2960    -2.0062 H       
  43 H43            2.6835    -4.5251    -0.8972 H       
  44 H44            2.4499    -4.2930    -3.3548 H       
  45 H45            4.2213    -4.3253    -3.5263 H       
  46 H46            5.6727    -4.3617    -1.4930 H       
  47 H47            4.9354    -4.3552     0.1271 H       
  48 H48            5.7294    -6.6244    -0.4803 H       
  49 H49            3.9580    -6.5920    -0.3088 H       
  50 H50            5.4958    -6.3922    -2.9379 H       
  51 H51            4.6323    -7.8323    -2.3473 H       
  52 H52            2.5066    -6.5557    -2.3421 H       
  53 H53            3.2439    -6.5622    -3.9622 H       
@<TRIPOS>BOND
   1    1    2 ar
   2    1    6 ar
   3    1   30 1
   4    2    3 ar
   5    2   31 1
   6    3    4 ar
   7    3   32 1
   8    4    5 ar
   9    4    7 1
  10    5    6 ar
  11    5   10 1
  12    6   33 1
  13    7    8 1
  14    7   22 1
  15    8    9 2
  16    8   34 1
  17    9   10 1
  18    9   11 1
  19   10   13 2
  20   11   12 am
  21   11   21 2
  22   12   13 1
  23   12   14 1
  24   14   15 ar
  25   14   16 ar
  26   15   20 1
  27   15   19 ar
  28   16   17 ar
  29   16   35 1
  30   17   18 ar
  31   17   36 1
  32   18   19 ar
  33   18   37 1
  34   19   38 1
  35   22   23 1
  36   22   39 1
  37   22   40 1
  38   23   24 1
  39   23   41 1
  40   23   42 1
  41   24   25 1
  42   24   26 1
  43   24   43 1
  44   25   29 1
  45   25   44 1
  46   25   45 1
  47   26   27 1
  48   26   46 1
  49   26   47 1
  50   27   28 1
  51   27   48 1
  52   27   49 1
  53   28   29 1
  54   28   50 1
  55   28   51 1
  56   29   52 1
  57   29   53 1

#	End of record

