#	Name: ASD03090652
#	Creating user name:	WinNT
#	Creation time:	15. 06. 2019 20:29

#	Modifying user name:	WinNT
#	Modification time:	15. 06. 2019 20:29

#	Program:	/corina/corina34_cracker 3.40 0067  02.08.2006

@<TRIPOS>MOLECULE
ASD03090652
  47   49    0    0    0
SMALL
NO_CHARGES


@<TRIPOS>ATOM
   1 N1             0.0385     1.3496     0.1337 N.am    
   2 C2             0.0268     0.0151     0.3220 C.2     
   3 O3             0.9922    -0.6522     0.0042 O.2     
   4 N4            -1.0551    -0.5797     0.8626 N.am    
   5 C5            -1.1175    -1.9772     0.9470 C.ar    
   6 C6            -1.9946    -2.5807     1.8385 C.ar    
   7 C7            -2.0559    -3.9576     1.9209 C.ar    
   8 C8            -1.2414    -4.7381     1.1133 C.ar    
   9 C9            -0.3651    -4.1359     0.2227 C.ar    
  10 C10           -0.3066    -2.7588     0.1355 C.ar    
  11 C11           -2.8790    -1.7330     2.7161 C.3     
  12 O12           -1.3020    -6.0941     1.1952 O.3     
  13 C13           -0.4352    -6.8354     0.3343 C.3     
  14 S14            1.3192     3.6889    -0.7308 S.3     
  15 C15            1.1538     1.9628    -0.4235 C.2     
  16 N16            2.2350     1.3533    -0.7984 N.2     
  17 C17            3.2014     2.1027    -1.3112 C.2     
  18 C18            2.9353     3.4192    -1.3792 C.2     
  19 C19            4.4869     1.5285    -1.7775 C.ar    
  20 C20            5.6921     2.1331    -1.4244 C.ar    
  21 C21            6.8852     1.5945    -1.8612 C.ar    
  22 C22            6.8866     0.4571    -2.6485 C.ar    
  23 C23            5.6935    -0.1472    -3.0020 C.ar    
  24 C24            4.4946     0.3790    -2.5658 C.ar    
  25 C25            3.8596     4.4806    -1.9179 C.3     
  26 C26            3.6152     4.6563    -3.4180 C.3     
  27 H27           -0.7333     1.8814     0.3836 H       
  28 H28           -1.7906    -0.0405     1.1931 H       
  29 H29           -2.7378    -4.4271     2.6144 H       
  30 H30            0.2686    -4.7441    -0.4057 H       
  31 H31            0.3726    -2.2900    -0.5612 H       
  32 H32           -3.8212    -1.5392     2.2034 H       
  33 H33           -3.0753    -2.2592     3.6504 H       
  34 H34           -2.3803    -0.7876     2.9295 H       
  35 H35            0.6010    -6.5749     0.5502 H       
  36 H36           -0.5837    -7.9024     0.5004 H       
  37 H37           -0.6616    -6.5943    -0.7043 H       
  38 H38            5.6922     3.0216    -0.8104 H       
  39 H39            7.8197     2.0621    -1.5883 H       
  40 H40            7.8226     0.0394    -2.9887 H       
  41 H41            5.7005    -1.0351    -3.6169 H       
  42 H42            3.5639    -0.0964    -2.8385 H       
  43 H43            3.6679     5.4234    -1.4056 H       
  44 H44            4.8941     4.1803    -1.7510 H       
  45 H45            4.3380     5.3643    -3.8234 H       
  46 H46            3.7276     3.6950    -3.9194 H       
  47 H47            2.6059     5.0346    -3.5797 H       
@<TRIPOS>BOND
   1    1    2 am
   2    1   15 1
   3    1   27 1
   4    2    3 2
   5    2    4 am
   6    4    5 1
   7    4   28 1
   8    5    6 ar
   9    5   10 ar
  10    6    7 ar
  11    6   11 1
  12    7    8 ar
  13    7   29 1
  14    8    9 ar
  15    8   12 1
  16    9   10 ar
  17    9   30 1
  18   10   31 1
  19   11   32 1
  20   11   33 1
  21   11   34 1
  22   12   13 1
  23   13   35 1
  24   13   36 1
  25   13   37 1
  26   14   15 1
  27   14   18 1
  28   15   16 2
  29   16   17 1
  30   17   18 2
  31   17   19 1
  32   18   25 1
  33   19   20 ar
  34   19   24 ar
  35   20   21 ar
  36   20   38 1
  37   21   22 ar
  38   21   39 1
  39   22   23 ar
  40   22   40 1
  41   23   24 ar
  42   23   41 1
  43   24   42 1
  44   25   26 1
  45   25   43 1
  46   25   44 1
  47   26   45 1
  48   26   46 1
  49   26   47 1

#	End of record

