#	Name: ASD01940537
#	Creating user name:	WinNT
#	Creation time:	15. 06. 2019 20:12

#	Modifying user name:	WinNT
#	Modification time:	15. 06. 2019 20:12

#	Program:	/corina/corina34_cracker 3.40 0067  02.08.2006

@<TRIPOS>MOLECULE
ASD01940537
  48   51    0    0    0
SMALL
NO_CHARGES


@<TRIPOS>ATOM
   1 C1            -0.0162     1.3436     0.0094 C.2     
   2 N2             0.0021    -0.0041     0.0020 N.am    
   3 O3             1.0277     1.9654     0.0028 O.2     
   4 O4            -1.1912     2.0008     0.0186 O.3     
   5 N5             0.8077    -2.7018     0.4399 N.pl3   
   6 C6             1.4997    -1.6439     1.1914 C.3     
   7 C7             1.2806    -0.7192    -0.0140 C.3     
   8 C8             1.2531    -2.0400    -0.7956 C.3     
   9 C9            -0.4630    -4.6417    -0.2734 C.2     
  10 C10            0.0668    -3.8298     0.7566 C.2     
  11 N11           -1.1906    -5.7511     0.0646 N.pl3   
  12 N12           -0.1450    -4.1482     2.0197 N.2     
  13 C13           -0.8517    -5.2250     2.3553 C.2     
  14 C14           -1.3889    -6.0486     1.3897 C.2     
  15 N15           -1.5689    -6.3324    -1.1498 N.2     
  16 N16           -1.0818    -5.5919    -2.0884 N.2     
  17 N17           -0.4357    -4.5954    -1.5944 N.2     
  18 C18           -2.1674    -7.2347     1.7754 C.2     
  19 C19           -3.3598    -7.2145     2.4331 C.2     
  20 C20           -3.8946    -8.4604     2.6815 C.2     
  21 C21           -3.1656    -9.4903     2.2415 C.2     
  22 S22           -1.7085    -8.9018     1.4530 S.3     
  23 C23           -1.2565    -0.7538     0.0100 C.3     
  24 C24           -1.1349     3.4517     0.0262 C.3     
  25 C25           -0.4003     3.9401    -1.2239 C.3     
  26 C26           -2.5565     4.0172     0.0360 C.3     
  27 C27           -0.3885     3.9266     1.2745 C.3     
  28 H28            0.9640    -1.3255     2.0858 H       
  29 H29            2.5496    -1.8642     1.3843 H       
  30 H30            2.1305    -0.0771    -0.2451 H       
  31 H31            2.2374    -2.3659    -1.1320 H       
  32 H32            0.5079    -2.0584    -1.5909 H       
  33 H33           -1.0061    -5.4566     3.3988 H       
  34 H34           -3.8456    -6.2986     2.7355 H       
  35 H35           -4.8351    -8.5946     3.1951 H       
  36 H36           -3.4339   -10.5308     2.3507 H       
  37 H37           -1.5785    -0.9342    -1.0156 H       
  38 H38           -1.1084    -1.7071     0.5173 H       
  39 H39           -2.0192    -0.1778     0.5342 H       
  40 H40           -0.9321     3.6018    -2.1132 H       
  41 H41           -0.3581     5.0293    -1.2182 H       
  42 H42            0.6125     3.5373    -1.2309 H       
  43 H43           -3.0798     3.6692     0.9266 H       
  44 H44           -2.5142     5.1064     0.0417 H       
  45 H45           -3.0883     3.6789    -0.8533 H       
  46 H46            0.6243     3.5237     1.2675 H       
  47 H47           -0.3462     5.0157     1.2802 H       
  48 H48           -0.9118     3.5786     2.1651 H       
@<TRIPOS>BOND
   1    1    2 am
   2    1    3 2
   3    1    4 1
   4    2    7 1
   5    2   23 1
   6    4   24 1
   7    5    6 1
   8    5    8 1
   9    5   10 1
  10    6    7 1
  11    6   28 1
  12    6   29 1
  13    7    8 1
  14    7   30 1
  15    8   31 1
  16    8   32 1
  17    9   10 1
  18    9   11 1
  19    9   17 2
  20   10   12 2
  21   11   14 1
  22   11   15 1
  23   12   13 1
  24   13   14 2
  25   13   33 1
  26   14   18 1
  27   15   16 2
  28   16   17 1
  29   18   19 2
  30   18   22 1
  31   19   20 1
  32   19   34 1
  33   20   21 2
  34   20   35 1
  35   21   22 1
  36   21   36 1
  37   23   37 1
  38   23   38 1
  39   23   39 1
  40   24   25 1
  41   24   27 1
  42   24   26 1
  43   25   40 1
  44   25   41 1
  45   25   42 1
  46   26   43 1
  47   26   44 1
  48   26   45 1
  49   27   46 1
  50   27   47 1
  51   27   48 1

#	End of record

