#	Name: ASD01810279
#	Creating user name:	WinNT
#	Creation time:	15. 06. 2019 19:24

#	Modifying user name:	WinNT
#	Modification time:	15. 06. 2019 19:24

#	Program:	/corina/corina34_cracker 3.40 0067  02.08.2006

@<TRIPOS>MOLECULE
ASD01810279
  43   46    0    0    0
SMALL
NO_CHARGES


@<TRIPOS>ATOM
   1 C1            -0.0167     1.3832     0.0096 C.ar    
   2 C2             0.0021    -0.0041     0.0020 C.ar    
   3 C3             1.1959    -0.6919    -0.0130 C.ar    
   4 C4             2.4007     0.0059    -0.0207 C.ar    
   5 C5             2.3789     1.4111    -0.0130 C.ar    
   6 C6             1.1632     2.0941     0.0022 C.ar    
   7 N7             3.6013    -0.6705    -0.0353 N.pl3   
   8 C8             4.7860    -0.0462    -0.0428 C.2     
   9 C9             4.8924     1.3300    -0.0360 C.2     
  10 C10            3.6622     2.1381    -0.0214 C.2     
  11 O11            3.7023     3.3559    -0.0152 O.2     
  12 C12            3.5807    -2.1353    -0.0424 C.3     
  13 C13            3.5604    -2.6305    -1.4656 C.ar    
  14 C14            4.7358    -2.6769    -2.1972 C.ar    
  15 C15            4.7214    -3.1306    -3.5032 C.ar    
  16 C16            3.5225    -3.5408    -4.0816 C.ar    
  17 C17            2.3435    -3.4914    -3.3398 C.ar    
  18 C18            2.3693    -3.0424    -2.0351 C.ar    
  19 C19            3.5004    -4.0282    -5.4828 C.ar    
  20 C20            6.2117     1.9776    -0.0437 C.2     
  21 O21            6.3025     3.3226    -0.0369 O.3     
  22 O22            7.2212     1.3003    -0.0561 O.2     
  23 F23            5.8973    -2.2781    -1.6341 F       
  24 C24            2.3078    -4.4433    -6.0787 C.ar    
  25 C25            2.3323    -4.8901    -7.3877 C.ar    
  26 N26            3.4630    -4.9262    -8.0693 N.ar    
  27 C27            4.6100    -4.5424    -7.5410 C.ar    
  28 C28            4.6726    -4.0786    -6.2440 C.ar    
  29 F29            1.1855    -5.2951    -7.9760 F       
  30 H30           -0.9606     1.9081     0.0170 H       
  31 H31           -0.9293    -0.5508     0.0083 H       
  32 H32            1.1970    -1.7719    -0.0185 H       
  33 H33            1.1468     3.1740     0.0078 H       
  34 H34            5.6885    -0.6393    -0.0542 H       
  35 H35            4.4703    -2.5136     0.4612 H       
  36 H36            2.6906    -2.4887     0.4779 H       
  37 H37            5.6377    -3.1665    -4.0738 H       
  38 H38            1.4116    -3.8085    -3.7842 H       
  39 H39            1.4557    -3.0041    -1.4604 H       
  40 H40            7.1917     3.7026    -0.0424 H       
  41 H41            1.3804    -4.4162    -5.5259 H       
  42 H42            5.5114    -4.5883    -8.1341 H       
  43 H43            5.6151    -3.7664    -5.8191 H       
@<TRIPOS>BOND
   1    1    2 ar
   2    1    6 ar
   3    1   30 1
   4    2    3 ar
   5    2   31 1
   6    3    4 ar
   7    3   32 1
   8    4    5 ar
   9    4    7 1
  10    5    6 ar
  11    5   10 1
  12    6   33 1
  13    7    8 1
  14    7   12 1
  15    8    9 2
  16    8   34 1
  17    9   10 1
  18    9   20 1
  19   10   11 2
  20   12   13 1
  21   12   35 1
  22   12   36 1
  23   13   14 ar
  24   13   18 ar
  25   14   15 ar
  26   14   23 1
  27   15   16 ar
  28   15   37 1
  29   16   17 ar
  30   16   19 1
  31   17   18 ar
  32   17   38 1
  33   18   39 1
  34   19   24 ar
  35   19   28 ar
  36   20   21 1
  37   20   22 2
  38   21   40 1
  39   24   25 ar
  40   24   41 1
  41   25   26 ar
  42   25   29 1
  43   26   27 ar
  44   27   28 ar
  45   27   42 1
  46   28   43 1

#	End of record

