#	Name: ASD03090233
#	Creating user name:	WinNT
#	Creation time:	15. 06. 2019 20:28

#	Modifying user name:	WinNT
#	Modification time:	15. 06. 2019 20:28

#	Program:	/corina/corina34_cracker 3.40 0067  02.08.2006

@<TRIPOS>MOLECULE
ASD03090233
  45   47    0    0    0
SMALL
NO_CHARGES


@<TRIPOS>ATOM
   1 N1             0.4466     1.5143     1.4662 N.ar    
   2 C2             0.4084     0.1960     1.4314 C.ar    
   3 C3             1.5349    -0.5374     1.1211 C.ar    
   4 C4             2.7282     0.1376     0.8414 C.ar    
   5 C5             2.7228     1.5356     0.8899 C.ar    
   6 C6             1.5502     2.1895     1.2093 C.ar    
   7 C7             3.9621    -0.6069     0.5040 C.2     
   8 N8             5.7409    -3.4560    -0.5315 N.pl3   
   9 C9             4.8142    -4.4456    -0.8757 C.ar    
  10 C10            3.5978    -4.0915    -1.4445 C.ar    
  11 C11            2.6841    -5.0704    -1.7835 C.ar    
  12 C12            2.9801    -6.4037    -1.5563 C.ar    
  13 C13            4.1926    -6.7591    -0.9891 C.ar    
  14 C14            5.1115    -5.7843    -0.6543 C.ar    
  15 N15            4.0263    -1.8629     0.1103 N.2     
  16 C16            5.2978    -2.2022    -0.1060 C.2     
  17 N17            6.0661    -1.1672     0.1463 N.2     
  18 N18            5.2212    -0.1167     0.5396 N.pl3   
  19 C19            5.6250     1.2390     0.9205 C.3     
  20 C20            5.7290     2.1112    -0.3323 C.3     
  21 O21            6.1228     3.4336     0.0393 O.3     
  22 F22            2.0846    -7.3594    -1.8879 F       
  23 C23           -0.8833    -0.5184     1.7353 C.3     
  24 C24           -1.4043    -0.0708     3.1024 C.3     
  25 C25            4.5116    -8.2112    -0.7426 C.3     
  26 F26            5.7823    -8.3182    -0.1672 F       
  27 F27            3.5594    -8.7571     0.1249 F       
  28 F28            4.4893    -8.9062    -1.9565 F       
  29 H29            1.4964    -1.6164     1.0948 H       
  30 H30            3.6228     2.0948     0.6810 H       
  31 H31            1.5358     3.2686     1.2490 H       
  32 H32            6.6914    -3.6409    -0.5883 H       
  33 H33            3.3662    -3.0516    -1.6213 H       
  34 H34            1.7380    -4.7956    -2.2259 H       
  35 H35            6.0571    -6.0619    -0.2124 H       
  36 H36            4.8830     1.6624     1.5974 H       
  37 H37            6.5934     1.2030     1.4195 H       
  38 H38            6.4710     1.6878    -1.0092 H       
  39 H39            4.7606     2.1472    -0.8313 H       
  40 H40            6.2088     4.0427    -0.7068 H       
  41 H41           -1.6204    -0.2780     0.9691 H       
  42 H42           -0.7093    -1.5943     1.7472 H       
  43 H43           -2.3385    -0.5875     3.3222 H       
  44 H44           -0.6672    -0.3112     3.8686 H       
  45 H45           -1.5783     1.0052     3.0905 H       
@<TRIPOS>BOND
   1    1    2 ar
   2    1    6 ar
   3    2    3 ar
   4    2   23 1
   5    3    4 ar
   6    3   29 1
   7    4    5 ar
   8    4    7 1
   9    5    6 ar
  10    5   30 1
  11    6   31 1
  12    7   15 2
  13    7   18 1
  14    8    9 1
  15    8   16 1
  16    8   32 1
  17    9   10 ar
  18    9   14 ar
  19   10   11 ar
  20   10   33 1
  21   11   12 ar
  22   11   34 1
  23   12   13 ar
  24   12   22 1
  25   13   14 ar
  26   13   25 1
  27   14   35 1
  28   15   16 1
  29   16   17 2
  30   17   18 1
  31   18   19 1
  32   19   20 1
  33   19   36 1
  34   19   37 1
  35   20   21 1
  36   20   38 1
  37   20   39 1
  38   21   40 1
  39   23   24 1
  40   23   41 1
  41   23   42 1
  42   24   43 1
  43   24   44 1
  44   24   45 1
  45   25   26 1
  46   25   27 1
  47   25   28 1

#	End of record

