#	Name: ASD05313317
#	Creating user name:	WinNT
#	Creation time:	15. 06. 2019 20:59

#	Modifying user name:	WinNT
#	Modification time:	15. 06. 2019 20:59

#	Program:	/corina/corina34_cracker 3.40 0067  02.08.2006

@<TRIPOS>MOLECULE
ASD05313317
  45   47    0    0    0
SMALL
NO_CHARGES


@<TRIPOS>ATOM
   1 C1             0.2209     0.5725     0.7647 C.2     
   2 C2             0.2898    -0.8302     0.2030 C.3     
   3 N3             1.2582     1.4436     0.7357 N.pl3   
   4 N4             1.5415    -0.9252    -0.5704 N.am    
   5 C5             2.7603    -0.3429     0.0117 C.3     
   6 C6             2.5746     1.1719     0.1551 C.3     
   7 N7            -0.7949     1.1424     1.3448 N.2     
   8 C8            -0.4597     2.3867     1.7112 C.2     
   9 C9             0.8333     2.5997     1.3392 C.2     
  10 C10            1.5682    -1.5284    -1.7753 C.2     
  11 O11            2.5846    -1.5099    -2.4419 O.2     
  12 C12            0.3620    -2.2123    -2.2862 C.ar    
  13 C13           -0.0367    -2.0343    -3.6135 C.ar    
  14 C14           -1.1653    -2.6769    -4.0835 C.ar    
  15 C15           -1.8996    -3.4942    -3.2433 C.ar    
  16 C16           -1.5099    -3.6739    -1.9278 C.ar    
  17 C17           -0.3811    -3.0437    -1.4466 C.ar    
  18 C18           -1.5978    -2.4869    -5.5146 C.3     
  19 F19           -2.7573    -3.2320    -5.7542 F       
  20 F20           -1.8577    -1.1320    -5.7472 F       
  21 F21           -0.5798    -2.9201    -6.3709 F       
  22 Cl22           0.8835    -1.0079    -4.6686 Cl      
  23 C23            1.6238     3.8322     1.5482 C.ar    
  24 C24            2.7990     4.0416     0.8255 C.ar    
  25 C25            3.5319     5.1933     1.0243 C.ar    
  26 C26            3.1037     6.1403     1.9393 C.ar    
  27 C27            1.9387     5.9377     2.6597 C.ar    
  28 C28            1.1943     4.7928     2.4647 C.ar    
  29 Cl29           4.0315     7.5869     2.1846 Cl      
  30 H30            0.2992    -1.5561     1.0160 H       
  31 H31           -0.5646    -1.0119    -0.4490 H       
  32 H32            2.9413    -0.7822     0.9927 H       
  33 H33            3.6089    -0.5456    -0.6416 H       
  34 H34            2.6437     1.6416    -0.8261 H       
  35 H35            3.3500     1.5736     0.8072 H       
  36 H36           -1.1007     3.0950     2.2151 H       
  37 H37           -2.7815    -3.9941    -3.6157 H       
  38 H38           -2.0885    -4.3130    -1.2773 H       
  39 H39           -0.0758    -3.1894    -0.4209 H       
  40 H40            3.1343     3.3033     0.1121 H       
  41 H41            4.4416     5.3564     0.4656 H       
  42 H42            1.6098     6.6797     3.3722 H       
  43 H43            0.2832     4.6381     3.0237 H       
  44 Cl44           9.4416    12.5869     8.3722 Cl      
  45 H45            9.4416    13.9569     8.3722 H       
@<TRIPOS>BOND
   1    1    2 1
   2    1    3 1
   3    1    7 2
   4    2    4 1
   5    2   30 1
   6    2   31 1
   7    3    6 1
   8    3    9 1
   9    4    5 1
  10    4   10 am
  11    5    6 1
  12    5   32 1
  13    5   33 1
  14    6   34 1
  15    6   35 1
  16    7    8 1
  17    8    9 2
  18    8   36 1
  19    9   23 1
  20   10   11 2
  21   10   12 1
  22   12   13 ar
  23   12   17 ar
  24   13   14 ar
  25   13   22 1
  26   14   15 ar
  27   14   18 1
  28   15   16 ar
  29   15   37 1
  30   16   17 ar
  31   16   38 1
  32   17   39 1
  33   18   19 1
  34   18   20 1
  35   18   21 1
  36   23   24 ar
  37   23   28 ar
  38   24   25 ar
  39   24   40 1
  40   25   26 ar
  41   25   41 1
  42   26   27 ar
  43   26   29 1
  44   27   28 ar
  45   27   42 1
  46   28   43 1
  47   44   45 1

#	End of record

