#	Name: ASD01680006
#	Creating user name:	WinNT
#	Creation time:	15. 06. 2019 19:22

#	Modifying user name:	WinNT
#	Modification time:	15. 06. 2019 19:22

#	Program:	/corina/corina34_cracker 3.40 0067  02.08.2006

@<TRIPOS>MOLECULE
ASD01680006
  76   79    0    0    0
SMALL
NO_CHARGES


@<TRIPOS>ATOM
   1 N1             0.0123     1.4132     0.1715 N.am    
   2 C2             0.0394    -0.0504     0.0342 C.3     
   3 C3             1.4967    -0.4548    -0.2731 C.3     
   4 C4             2.1049     0.8502    -0.8514 C.3     
   5 C5             1.3809     1.9304    -0.0096 C.3     
   6 C6            -1.0832     2.1589     0.4166 C.2     
   7 O7            -2.1790     1.6351     0.4531 O.2     
   8 O8            -0.9635     3.4843     0.6211 O.3     
   9 C9            -0.4177    -0.7041     1.3399 C.3     
  10 N10           -0.4386    -2.1597     1.1760 N.pl3   
  11 C11           -0.9196    -2.9675     2.1998 C.ar    
  12 C12           -1.3797    -2.3871     3.3777 C.ar    
  13 C13           -1.8556    -3.2027     4.3881 C.ar    
  14 C14           -1.8555    -4.5768     4.1862 C.ar    
  15 C15           -1.3843    -5.0847     2.9925 C.ar    
  16 N16           -0.9409    -4.2821     2.0433 N.ar    
  17 O17           -0.8135    -0.4537    -1.0390 O.3     
  18 C18           -0.5190     0.1805    -2.2853 C.3     
  19 C19           -1.5559    -0.2119    -3.3060 C.2     
  20 N20           -1.4806     0.2695    -4.5626 N.am    
  21 O21           -2.4583    -0.9610    -2.9967 O.2     
  22 C22           -2.4886    -0.1120    -5.5548 C.3     
  23 C23           -2.1733     0.5670    -6.8892 C.3     
  24 C24           -3.2752     0.2740    -7.8746 C.2     
  25 O25           -3.9092     1.1812    -8.3592 O.2     
  26 O26           -3.5523    -0.9948    -8.2139 O.3     
  27 N27           -2.0700     2.0144    -6.6881 N.am    
  28 S28           -0.9793     2.8969    -7.5678 S.o2    
  29 O29           -1.1463     4.2513    -7.1717 O.2     
  30 O30            0.2602     2.2078    -7.4774 O.2     
  31 C31           -1.4764     2.8073    -9.2559 C.ar    
  32 C32           -2.3450     3.7508    -9.7716 C.ar    
  33 C33           -2.7350     3.6805   -11.0959 C.ar    
  34 C34           -2.2560     2.6669   -11.9046 C.ar    
  35 C35           -1.3867     1.7238   -11.3891 C.ar    
  36 C36           -0.9932     1.7967   -10.0659 C.ar    
  37 C37           -2.1856     4.2245     0.8795 C.3     
  38 C38           -1.8572     5.6813     1.0822 C.ar    
  39 C39           -1.8379     6.5424     0.0010 C.ar    
  40 C40           -1.5367     7.8786     0.1869 C.ar    
  41 C41           -1.2551     8.3538     1.4541 C.ar    
  42 C42           -1.2753     7.4929     2.5354 C.ar    
  43 C43           -1.5808     6.1575     2.3501 C.ar    
  44 H44            2.0152    -0.7509     0.6388 H       
  45 H45            1.5271    -1.2551    -1.0125 H       
  46 H46            3.1821     0.8849    -0.6884 H       
  47 H47            1.8679     0.9560    -1.9101 H       
  48 H48            1.3600     2.8788    -0.5465 H       
  49 H49            1.8718     2.0510     0.9560 H       
  50 H50            0.2728    -0.4385     2.1403 H       
  51 H51           -1.4182    -0.3523     1.5914 H       
  52 H52           -0.1169    -2.5598     0.3530 H       
  53 H53           -1.3651    -1.3143     3.5014 H       
  54 H54           -2.2187    -2.7807     5.3135 H       
  55 H55           -2.2201    -5.2412     4.9556 H       
  56 H56           -1.3824    -6.1526     2.8313 H       
  57 H57           -0.5299     1.2625    -2.1538 H       
  58 H58            0.4664    -0.1339    -2.6290 H       
  59 H59           -0.7589     0.8685    -4.8100 H       
  60 H60           -2.4777    -1.1940    -5.6863 H       
  61 H61           -3.4740     0.2024    -5.2111 H       
  62 H62           -1.2285     0.1857    -7.2766 H       
  63 H63           -4.2677    -1.1329    -8.8497 H       
  64 H64           -2.6406     2.4560    -6.0397 H       
  65 H65           -2.7192     4.5428    -9.1398 H       
  66 H66           -3.4142     4.4173   -11.4987 H       
  67 H67           -2.5613     2.6116   -12.9391 H       
  68 H68           -1.0127     0.9317   -12.0209 H       
  69 H69           -0.3111     1.0620    -9.6642 H       
  70 H70           -2.8607     4.1190     0.0302 H       
  71 H71           -2.6654     3.8321     1.7760 H       
  72 H72           -2.0579     6.1711    -0.9891 H       
  73 H73           -1.5209     8.5513    -0.6579 H       
  74 H74           -1.0191     9.3977     1.5993 H       
  75 H75           -1.0550     7.8641     3.5254 H       
  76 H76           -1.6002     5.4856     3.1954 H       
@<TRIPOS>BOND
   1    1    2 1
   2    1    5 1
   3    1    6 am
   4    2    3 1
   5    2    9 1
   6    2   17 1
   7    3    4 1
   8    3   44 1
   9    3   45 1
  10    4    5 1
  11    4   46 1
  12    4   47 1
  13    5   48 1
  14    5   49 1
  15    6    7 2
  16    6    8 1
  17    8   37 1
  18    9   10 1
  19    9   50 1
  20    9   51 1
  21   10   11 1
  22   10   52 1
  23   11   12 ar
  24   11   16 ar
  25   12   13 ar
  26   12   53 1
  27   13   14 ar
  28   13   54 1
  29   14   15 ar
  30   14   55 1
  31   15   16 ar
  32   15   56 1
  33   17   18 1
  34   18   19 1
  35   18   57 1
  36   18   58 1
  37   19   20 am
  38   19   21 2
  39   20   22 1
  40   20   59 1
  41   22   23 1
  42   22   60 1
  43   22   61 1
  44   23   24 1
  45   23   27 1
  46   23   62 1
  47   24   25 2
  48   24   26 1
  49   26   63 1
  50   27   28 am
  51   27   64 1
  52   28   29 2
  53   28   30 2
  54   28   31 1
  55   31   32 ar
  56   31   36 ar
  57   32   33 ar
  58   32   65 1
  59   33   34 ar
  60   33   66 1
  61   34   35 ar
  62   34   67 1
  63   35   36 ar
  64   35   68 1
  65   36   69 1
  66   37   38 1
  67   37   70 1
  68   37   71 1
  69   38   39 ar
  70   38   43 ar
  71   39   40 ar
  72   39   72 1
  73   40   41 ar
  74   40   73 1
  75   41   42 ar
  76   41   74 1
  77   42   43 ar
  78   42   75 1
  79   43   76 1

#	End of record

