#	Name: ASD01882184
#	Creating user name:	WinNT
#	Creation time:	15. 06. 2019 19:44

#	Modifying user name:	WinNT
#	Modification time:	15. 06. 2019 19:44

#	Program:	/corina/corina34_cracker 3.40 0067  02.08.2006

@<TRIPOS>MOLECULE
ASD01882184
  22   23    0    0    0
SMALL
NO_CHARGES


@<TRIPOS>ATOM
   1 C1            -0.0178     1.4615     0.0101 C.2     
   2 C2             0.0021    -0.0041     0.0020 C.2     
   3 C3             1.2358    -0.6459    -0.0132 C.2     
   4 C4             2.4059     0.1213    -0.0203 C.2     
   5 C5             2.3559     1.4704    -0.0125 C.2     
   6 N6             1.1714     2.1438     0.0024 N.pl3   
   7 N7            -1.0000     2.3434     0.0295 N.2     
   8 C8            -0.4827     3.5767     0.0288 C.2     
   9 C9             0.8633     3.4789     0.0130 C.2     
  10 C10           -1.2170    -0.7554     0.0101 C.1     
  11 N11           -2.1840    -1.3515     0.0165 N.1     
  12 C12            1.8436     4.6235     0.0099 C.3     
  13 C13            2.0938     5.0845     1.4472 C.3     
  14 F14            2.6184     4.0232     2.1927 F       
  15 F15            3.0038     6.1471     1.4444 F       
  16 F16            0.8880     5.5047     2.0188 F       
  17 Br17           1.3308    -2.5345    -0.0236 Br      
  18 H18            3.3654    -0.3742    -0.0317 H       
  19 H19            3.2791     2.0307    -0.0183 H       
  20 H20           -1.0476     4.4970     0.0423 H       
  21 H21            2.7830     4.2961    -0.4354 H       
  22 H22            1.4349     5.4504    -0.5709 H       
@<TRIPOS>BOND
   1    1    2 1
   2    1    6 1
   3    1    7 2
   4    2    3 2
   5    2   10 1
   6    3    4 1
   7    3   17 1
   8    4    5 2
   9    4   18 1
  10    5    6 1
  11    5   19 1
  12    6    9 1
  13    7    8 1
  14    8    9 2
  15    8   20 1
  16    9   12 1
  17   10   11 3
  18   12   13 1
  19   12   21 1
  20   12   22 1
  21   13   14 1
  22   13   15 1
  23   13   16 1

#	End of record

