#	Name: ASD01812941
#	Creating user name:	WinNT
#	Creation time:	15. 06. 2019 19:29

#	Modifying user name:	WinNT
#	Modification time:	15. 06. 2019 19:29

#	Program:	/corina/corina34_cracker 3.40 0067  02.08.2006

@<TRIPOS>MOLECULE
ASD01812941
  50   54    0    0    0
SMALL
NO_CHARGES


@<TRIPOS>ATOM
   1 C1            -0.0166     1.3762     0.0096 C.ar    
   2 C2             0.0021    -0.0041     0.0020 C.ar    
   3 C3             1.2089    -0.6874    -0.0128 C.ar    
   4 C4             2.3943     0.0071    -0.0204 C.ar    
   5 C5             2.3946     1.4053    -0.0133 C.ar    
   6 C6             1.1723     2.0915     0.0021 C.ar    
   7 C7             3.8414    -0.4183    -0.0366 C.3     
   8 N8             4.6317     0.8181    -0.0381 N.am    
   9 C9             3.7920     1.8677    -0.0246 C.2     
  10 C10            6.0945     0.8958    -0.0515 C.3     
  11 C11            6.5828     0.9293    -1.4768 C.ar    
  12 O12            1.1519     3.4476     0.0092 O.3     
  13 O13            4.1377     3.0334    -0.0217 O.2     
  14 C14            6.7428     2.1413    -2.1230 C.ar    
  15 C15            7.1901     2.1753    -3.4293 C.ar    
  16 C16            7.4791     0.9909    -4.0936 C.ar    
  17 C17            7.3174    -0.2244    -3.4421 C.ar    
  18 C18            6.8752    -0.2517    -2.1339 C.ar    
  19 N19            7.9328     1.0220    -5.4196 N.pl3   
  20 N20            8.1452     2.1716    -6.1916 N.2     
  21 C21            8.2485    -0.0520    -6.1782 C.2     
  22 C22            8.6416     0.4018    -7.3910 C.2     
  23 C23            8.5731     1.7992    -7.3710 C.2     
  24 C24           -0.0581     4.0679     0.0237 C.ar    
  25 C25           -0.6661     4.3792     1.2327 C.ar    
  26 C26           -1.8974     5.0103     1.2440 C.ar    
  27 C27           -2.5226     5.3306     0.0532 C.ar    
  28 C28           -1.9203     5.0216    -1.1523 C.ar    
  29 C29           -0.6860     4.3965    -1.1706 C.ar    
  30 F30           -0.0562     4.0658     2.3968 F       
  31 F31           -0.0952     4.1004    -2.3490 F       
  32 N32           -3.8400     6.0053     0.0689 N.pl3   
  33 O33           -4.3721     6.2777     1.1302 O.2     
  34 O34           -4.3920     6.2880    -0.9793 O.2     
  35 H35           -0.9603     1.9014     0.0169 H       
  36 H36           -0.9272    -0.5543     0.0080 H       
  37 H37            1.2168    -1.7673    -0.0179 H       
  38 H38            4.0688    -1.0073     0.8519 H       
  39 H39            4.0514    -0.9983    -0.9353 H       
  40 H40            6.4150     1.8013     0.4638 H       
  41 H41            6.5093     0.0239     0.4543 H       
  42 H42            6.5175     3.0623    -1.6059 H       
  43 H43            7.3146     3.1221    -3.9336 H       
  44 H44            7.5411    -1.1474    -3.9565 H       
  45 H45            6.7537    -1.1965    -1.6251 H       
  46 H46            8.1966    -1.0861    -5.8712 H       
  47 H47            8.9592    -0.2069    -8.2247 H       
  48 H48            8.8255     2.4570    -8.1895 H       
  49 H49           -2.3707     5.2527     2.1840 H       
  50 H50           -2.4116     5.2725    -2.0808 H       
@<TRIPOS>BOND
   1    1    2 ar
   2    1    6 ar
   3    1   35 1
   4    2    3 ar
   5    2   36 1
   6    3    4 ar
   7    3   37 1
   8    4    7 1
   9    4    5 ar
  10    5    6 ar
  11    5    9 1
  12    6   12 1
  13    7    8 1
  14    7   38 1
  15    7   39 1
  16    8    9 am
  17    8   10 1
  18    9   13 2
  19   10   11 1
  20   10   40 1
  21   10   41 1
  22   11   14 ar
  23   11   18 ar
  24   12   24 1
  25   14   15 ar
  26   14   42 1
  27   15   16 ar
  28   15   43 1
  29   16   17 ar
  30   16   19 1
  31   17   18 ar
  32   17   44 1
  33   18   45 1
  34   19   21 1
  35   19   20 1
  36   20   23 2
  37   21   22 2
  38   21   46 1
  39   22   23 1
  40   22   47 1
  41   23   48 1
  42   24   25 ar
  43   24   29 ar
  44   25   26 ar
  45   25   30 1
  46   26   27 ar
  47   26   49 1
  48   27   28 ar
  49   27   32 1
  50   28   29 ar
  51   28   50 1
  52   29   31 1
  53   32   33 2
  54   32   34 2

#	End of record

