#	Name: ASD01410793
#	Creating user name:	WinNT
#	Creation time:	15. 06. 2019 19:18

#	Modifying user name:	WinNT
#	Modification time:	15. 06. 2019 19:18

#	Program:	/corina/corina34_cracker 3.40 0067  02.08.2006

@<TRIPOS>MOLECULE
ASD01410793
  20   20    0    0    0
SMALL
NO_CHARGES


@<TRIPOS>ATOM
   1 C1             0.0170     1.6684     0.7895 C.2     
   2 C2             0.0347     0.2123     1.1772 C.3     
   3 C3             1.2564     2.3327     0.3832 C.ar    
   4 C4             1.2258     3.6570    -0.0961 C.ar    
   5 C5             2.4085     4.2738    -0.4776 C.ar    
   6 C6             3.6089     3.5847    -0.3848 C.ar    
   7 C7             3.6343     2.2753     0.0893 C.ar    
   8 C8             2.4810     1.6566     0.4744 C.ar    
   9 O9             4.7648     4.1896    -0.7584 O.3     
  10 Cl10           2.3861     5.9051    -1.0708 Cl      
  11 N11            0.0208     4.3398    -0.1866 N.pl3   
  12 O12           -1.0257     2.2890     0.8094 O.2     
  13 H13            0.7005     0.0710     2.0286 H       
  14 H14           -0.9728    -0.1041     1.4474 H       
  15 H15            0.3892    -0.3834     0.3360 H       
  16 H16            4.5742     1.7477     0.1573 H       
  17 H17            2.5109     0.6427     0.8454 H       
  18 H18            5.2087     4.6655    -0.0432 H       
  19 H19           -0.8119     3.8470    -0.2553 H       
  20 H20            0.0113     5.3097    -0.1811 H       
@<TRIPOS>BOND
   1    1    2 1
   2    1    3 1
   3    1   12 2
   4    2   13 1
   5    2   14 1
   6    2   15 1
   7    3    4 ar
   8    3    8 ar
   9    4    5 ar
  10    4   11 1
  11    5    6 ar
  12    5   10 1
  13    6    7 ar
  14    6    9 1
  15    7    8 ar
  16    7   16 1
  17    8   17 1
  18    9   18 1
  19   11   19 1
  20   11   20 1

#	End of record

