#	Name: ASD01028475
#	Creating user name:	WinNT
#	Creation time:	15. 06. 2019 18:57

#	Modifying user name:	WinNT
#	Modification time:	15. 06. 2019 18:57

#	Program:	/corina/corina34_cracker 3.40 0067  02.08.2006

@<TRIPOS>MOLECULE
ASD01028475
  56   61    0    0    0
SMALL
NO_CHARGES


@<TRIPOS>ATOM
   1 C1            -0.0171     1.4105     0.0098 C.ar    
   2 C2             0.0021    -0.0041     0.0020 C.ar    
   3 C3             1.2172     2.1062     0.0017 C.ar    
   4 C4             2.3840     1.3600    -0.0135 C.ar    
   5 C5             2.3156    -0.0268    -0.0203 C.ar    
   6 N6             1.1664    -0.6615    -0.0123 N.ar    
   7 N7             1.2559     3.4929     0.0084 N.pl3   
   8 C8             2.5445     4.1898    -0.0001 C.3     
   9 C9             2.3106     5.6785     0.0096 C.2     
  10 N10            2.1971     6.4606     1.1053 N.pl3   
  11 C11            1.9932     7.7381     0.6400 C.2     
  12 N12            1.9932     7.6687    -0.6812 N.2     
  13 N13            2.1864     6.4483    -1.0427 N.2     
  14 N14            2.2468     6.2155     2.4791 N.2     
  15 C15            2.0996     7.2001     3.3376 C.2     
  16 C16            1.8884     8.5219     2.8913 C.2     
  17 C17            1.8364     8.7918     1.5602 C.2     
  18 C18            2.1557     6.9181     4.7933 C.ar    
  19 C19           -1.2223    -0.6977     0.0101 C.ar    
  20 C20           -2.3811     0.0331     0.0251 C.ar    
  21 C21           -2.3227     1.4307     0.0320 C.ar    
  22 N22           -1.1775     2.0678     0.0299 N.ar    
  23 O23           -3.5841    -0.5981     0.0329 O.3     
  24 C24           -4.7501     0.2280     0.0486 C.3     
  25 C25            2.0008     7.9549     5.7116 C.ar    
  26 C26            2.0525     7.6929     7.0690 C.ar    
  27 C27            2.2584     6.4021     7.5209 C.ar    
  28 C28            2.4148     5.3589     6.6097 C.ar    
  29 C29            2.3574     5.6167     5.2438 C.ar    
  30 C30            2.6361     3.9743     7.0959 C.ar    
  31 C31            2.6881     3.7141     8.4634 C.ar    
  32 C32            2.8939     2.4235     8.9119 C.ar    
  33 C33            3.0489     1.3897     8.0053 C.ar    
  34 C34            2.9980     1.6429     6.6441 C.ar    
  35 C35            2.7868     2.9300     6.1862 C.ar    
  36 F36            3.1503     0.6299     5.7633 F       
  37 Cl37           2.9588     2.0984    10.6160 Cl      
  38 F38            1.9019     8.7010     7.9557 F       
  39 H39            3.3437     1.8552    -0.0203 H       
  40 H40            3.2319    -0.5984    -0.0326 H       
  41 H41            0.4298     4.0012     0.0188 H       
  42 H42            3.1169     3.9062     0.8831 H       
  43 H43            3.1002     3.9152    -0.8968 H       
  44 H44            1.7689     9.3206     3.6085 H       
  45 H45            1.6751     9.8016     1.2129 H       
  46 H46           -1.2479    -1.7774     0.0042 H       
  47 H47           -3.2420     1.9974     0.0439 H       
  48 H48           -4.7579     0.8623    -0.8378 H       
  49 H49           -5.6406    -0.4006     0.0534 H       
  50 H50           -4.7411     0.8522     0.9420 H       
  51 H51            1.8406     8.9645     5.3630 H       
  52 H52            2.2984     6.2021     8.5815 H       
  53 H53            2.4781     4.8108     4.5350 H       
  54 H54            2.5681     4.5201     9.1722 H       
  55 H55            3.2102     0.3824     8.3598 H       
  56 H56            2.7473     3.1269     5.1250 H       
@<TRIPOS>BOND
   1    1    2 ar
   2    1    3 ar
   3    1   22 ar
   4    2   19 ar
   5    2    6 ar
   6    3    4 ar
   7    3    7 1
   8    4    5 ar
   9    4   39 1
  10    5    6 ar
  11    5   40 1
  12    7    8 1
  13    7   41 1
  14    8    9 1
  15    8   42 1
  16    8   43 1
  17    9   10 1
  18    9   13 2
  19   10   11 1
  20   10   14 1
  21   11   12 2
  22   11   17 1
  23   12   13 1
  24   14   15 2
  25   15   16 1
  26   15   18 1
  27   16   17 2
  28   16   44 1
  29   17   45 1
  30   18   25 ar
  31   18   29 ar
  32   19   20 ar
  33   19   46 1
  34   20   21 ar
  35   20   23 1
  36   21   22 ar
  37   21   47 1
  38   23   24 1
  39   24   48 1
  40   24   49 1
  41   24   50 1
  42   25   26 ar
  43   25   51 1
  44   26   27 ar
  45   26   38 1
  46   27   28 ar
  47   27   52 1
  48   28   29 ar
  49   28   30 1
  50   29   53 1
  51   30   31 ar
  52   30   35 ar
  53   31   32 ar
  54   31   54 1
  55   32   33 ar
  56   32   37 1
  57   33   34 ar
  58   33   55 1
  59   34   35 ar
  60   34   36 1
  61   35   56 1

#	End of record

