#	Name: ASD01230769
#	Creating user name:	WinNT
#	Creation time:	15. 06. 2019 19:15

#	Modifying user name:	WinNT
#	Modification time:	15. 06. 2019 19:15

#	Program:	/corina/corina34_cracker 3.40 0067  02.08.2006

@<TRIPOS>MOLECULE
ASD01230769
  30   32    0    0    0
SMALL
NO_CHARGES


@<TRIPOS>ATOM
   1 C1            -0.0166     1.3739     0.0096 C.2     
   2 C2             0.0021    -0.0041     0.0020 C.2     
   3 C3            -1.2143    -0.6999     0.0083 C.2     
   4 C4            -2.3848    -0.0389     0.0110 C.2     
   5 N5            -2.4623     1.3310     0.0014 N.pl3   
   6 C6            -1.3175     2.0759     0.0320 C.2     
   7 C7            -3.8100     1.9041    -0.0486 C.3     
   8 C8            -3.8782     3.1900     0.7805 C.3     
   9 S9            -2.6224     4.3260     0.1119 S.o2    
  10 N10           -1.2622     3.3847     0.0816 N.am    
  11 C11            1.2496     2.1412     0.0016 C.ar    
  12 C12            2.1024     2.0740    -1.1004 C.ar    
  13 O13           -2.8876     4.6250    -1.2517 O.2     
  14 O14           -2.3215     5.3522     1.0477 O.2     
  15 C15            1.5921     2.9390     1.0937 C.ar    
  16 C16            2.7732     3.6519     1.0800 C.ar    
  17 C17            3.6172     3.5770    -0.0137 C.ar    
  18 C18            3.2807     2.7918    -1.1020 C.ar    
  19 H19            0.9399    -0.5395    -0.0090 H       
  20 H20           -1.2112    -1.7799     0.0107 H       
  21 H21           -3.3018    -0.6095     0.0208 H       
  22 H22           -4.0667     2.1296    -1.0837 H       
  23 H23           -4.5229     1.1817     0.3489 H       
  24 H24           -4.8684     3.6370     0.6918 H       
  25 H25           -3.6613     2.9699     1.8257 H       
  26 H26            1.8410     1.4612    -1.9504 H       
  27 H27            0.9339     2.9986     1.9479 H       
  28 H28            3.0393     4.2701     1.9247 H       
  29 H29            4.5407     4.1370    -0.0196 H       
  30 H30            3.9439     2.7371    -1.9526 H       
@<TRIPOS>BOND
   1    1    2 2
   2    1   11 1
   3    1    6 1
   4    2    3 1
   5    2   19 1
   6    3    4 2
   7    3   20 1
   8    4    5 1
   9    4   21 1
  10    5    6 1
  11    5    7 1
  12    6   10 2
  13    7    8 1
  14    7   22 1
  15    7   23 1
  16    8    9 1
  17    8   24 1
  18    8   25 1
  19    9   10 am
  20    9   13 2
  21    9   14 2
  22   11   12 ar
  23   11   15 ar
  24   12   18 ar
  25   12   26 1
  26   15   16 ar
  27   15   27 1
  28   16   17 ar
  29   16   28 1
  30   17   18 ar
  31   17   29 1
  32   18   30 1

#	End of record

