#	Name: ASD07030043
#	Creating user name:	WinNT
#	Creation time:	15. 06. 2019 21:08

#	Modifying user name:	WinNT
#	Modification time:	15. 06. 2019 21:08

#	Program:	/corina/corina34_cracker 3.40 0067  02.08.2006

@<TRIPOS>MOLECULE
ASD07030043
  36   37    0    0    0
SMALL
NO_CHARGES


@<TRIPOS>ATOM
   1 C1            -0.0167     1.3831     0.0096 C.ar    
   2 C2             0.0021    -0.0041     0.0020 C.ar    
   3 C3             1.2083    -0.6773    -0.0131 C.ar    
   4 C4             2.3962     0.0303    -0.0207 C.ar    
   5 C5             2.3801     1.4128    -0.0131 C.ar    
   6 C6             1.1765     2.0907     0.0021 C.ar    
   7 C7             3.7106    -0.7066    -0.0367 C.3     
   8 C8             4.6476    -0.4543    -1.2195 C.3     
   9 C9             4.9849     0.1173     0.1590 C.3     
  10 N10            5.4504    -1.5820    -1.6991 N.pl3   
  11 O11            5.3294    -1.9712    -2.8469 O.2     
  12 O12            6.2390    -2.1303    -0.9501 O.2     
  13 O13           -1.2021     2.0477     0.0189 O.3     
  14 C14           -1.1453     3.4755     0.0264 C.3     
  15 O15           -0.7841     3.9447    -1.2742 O.3     
  16 C16           -1.8398     3.8668    -2.2341 C.3     
  17 C17           -1.3430     4.3925    -3.5824 C.3     
  18 O18           -0.3157     3.5325    -4.0796 O.3     
  19 C19            0.2199     3.9362    -5.3414 C.3     
  20 H20           -0.9255    -0.5572     0.0083 H       
  21 H21            1.2235    -1.7571    -0.0187 H       
  22 H22            3.3093     1.9633    -0.0186 H       
  23 H23            1.1645     3.1706     0.0076 H       
  24 H24            3.6915    -1.7117     0.3847 H       
  25 H25            4.3134     0.2448    -1.9862 H       
  26 H26            4.8725     1.1924     0.2994 H       
  27 H27            5.8040    -0.3457     0.7092 H       
  28 H28           -2.1215     3.8766     0.2991 H       
  29 H29           -0.4013     3.8058     0.7513 H       
  30 H30           -2.1562     2.8295    -2.3428 H       
  31 H31           -2.6826     4.4704    -1.8971 H       
  32 H32           -2.1712     4.4163    -4.2906 H       
  33 H33           -0.9444     5.3990    -3.4554 H       
  34 H34           -0.5759     3.9506    -6.0861 H       
  35 H35            0.6510     4.9333    -5.2510 H       
  36 H36            0.9933     3.2327    -5.6497 H       
@<TRIPOS>BOND
   1    1    2 ar
   2    1    6 ar
   3    1   13 1
   4    2    3 ar
   5    2   20 1
   6    3    4 ar
   7    3   21 1
   8    4    5 ar
   9    4    7 1
  10    5    6 ar
  11    5   22 1
  12    6   23 1
  13    7    8 1
  14    7    9 1
  15    7   24 1
  16    8    9 1
  17    8   10 1
  18    8   25 1
  19    9   26 1
  20    9   27 1
  21   10   11 2
  22   10   12 2
  23   13   14 1
  24   14   15 1
  25   14   28 1
  26   14   29 1
  27   15   16 1
  28   16   17 1
  29   16   30 1
  30   16   31 1
  31   17   18 1
  32   17   32 1
  33   17   33 1
  34   18   19 1
  35   19   34 1
  36   19   35 1
  37   19   36 1

#	End of record

