#	Name: ASD01884960
#	Creating user name:	WinNT
#	Creation time:	15. 06. 2019 19:49

#	Modifying user name:	WinNT
#	Modification time:	15. 06. 2019 19:49

#	Program:	/corina/corina34_cracker 3.40 0067  02.08.2006

@<TRIPOS>MOLECULE
ASD01884960
  47   50    0    0    0
SMALL
NO_CHARGES


@<TRIPOS>ATOM
   1 C1             0.0399     1.4362    -0.2845 C.ar    
   2 C2             0.1463     0.1524    -0.7773 C.ar    
   3 C3            -0.9323    -0.4280    -1.4457 C.ar    
   4 C4            -2.1147     0.2927    -1.6131 C.ar    
   5 C5            -2.2147     1.5759    -1.1180 C.ar    
   6 C6            -1.1422     2.1490    -0.4484 C.ar    
   7 C7            -0.8216    -1.8064    -1.9768 C.2     
   8 C8            -1.6123    -2.8162    -1.4636 C.2     
   9 C9             0.0925    -2.0992    -3.0203 C.2     
  10 C10            0.1931    -3.3506    -3.5025 C.2     
  11 N11           -0.5810    -4.3595    -2.9984 N.pl3   
  12 C12           -1.4854    -4.1150    -1.9874 C.2     
  13 C13           -0.6927    -5.6878    -3.2821 C.2     
  14 N14           -1.6039    -6.1854    -2.4801 N.2     
  15 N15           -2.0763    -5.2655    -1.7147 N.2     
  16 O16            0.0094    -6.3703    -4.2219 O.3     
  17 O17           -1.2445     3.4134     0.0385 O.3     
  18 C18           -2.4460     4.0375    -0.0564 C.ar    
  19 Cl19           1.3808     2.1599     0.5474 Cl      
  20 C20           -3.3986     3.9099     0.9515 C.ar    
  21 C21           -4.6080     4.5607     0.8178 C.ar    
  22 N22           -4.8663     5.2953    -0.2474 N.ar    
  23 C23           -3.9896     5.4404    -1.2232 C.ar    
  24 C24           -2.7556     4.8268    -1.1617 C.ar    
  25 C25           -0.2682    -7.7660    -4.3526 C.3     
  26 C26            0.6130    -8.3604    -5.4531 C.3     
  27 C27           -4.3386     6.2918    -2.4166 C.3     
  28 C28           -2.5959    -2.5302    -0.3583 C.3     
  29 F29           -3.8575    -2.2818    -0.9095 F       
  30 F30           -2.6701    -3.6346     0.4973 F       
  31 F31           -2.1733    -1.4088     0.3635 F       
  32 H32            1.0634    -0.4028    -0.6463 H       
  33 H33           -2.9511    -0.1538    -2.1304 H       
  34 H34           -3.1300     2.1341    -1.2479 H       
  35 H35            0.7105    -1.3139    -3.4298 H       
  36 H36            0.8932    -3.5614    -4.2975 H       
  37 H37           -3.1937     3.3095     1.8256 H       
  38 H38           -5.3526     4.4673     1.5945 H       
  39 H39           -2.0427     4.9496    -1.9636 H       
  40 H40           -0.0582    -8.2681    -3.4082 H       
  41 H41           -1.3175    -7.9050    -4.6125 H       
  42 H42            0.4030    -7.8582    -6.3975 H       
  43 H43            1.6623    -8.2214    -5.1931 H       
  44 H44            0.4013    -9.4250    -5.5527 H       
  45 H45           -4.0321     7.3212    -2.2307 H       
  46 H46           -3.8212     5.9121    -3.2976 H       
  47 H47           -5.4151     6.2580    -2.5847 H       
@<TRIPOS>BOND
   1    1    2 ar
   2    1   19 1
   3    1    6 ar
   4    2    3 ar
   5    2   32 1
   6    3    4 ar
   7    3    7 1
   8    4    5 ar
   9    4   33 1
  10    5    6 ar
  11    5   34 1
  12    6   17 1
  13    7    8 2
  14    7    9 1
  15    8   28 1
  16    8   12 1
  17    9   10 2
  18    9   35 1
  19   10   11 1
  20   10   36 1
  21   11   12 1
  22   11   13 1
  23   12   15 2
  24   13   14 2
  25   13   16 1
  26   14   15 1
  27   16   25 1
  28   17   18 1
  29   18   20 ar
  30   18   24 ar
  31   20   21 ar
  32   20   37 1
  33   21   22 ar
  34   21   38 1
  35   22   23 ar
  36   23   24 ar
  37   23   27 1
  38   24   39 1
  39   25   26 1
  40   25   40 1
  41   25   41 1
  42   26   42 1
  43   26   43 1
  44   26   44 1
  45   27   45 1
  46   27   46 1
  47   27   47 1
  48   28   29 1
  49   28   30 1
  50   28   31 1

#	End of record

