#	Name: ASD01100020
#	Creating user name:	WinNT
#	Creation time:	15. 06. 2019 18:58

#	Modifying user name:	WinNT
#	Modification time:	15. 06. 2019 18:58

#	Program:	/corina/corina34_cracker 3.40 0067  02.08.2006

@<TRIPOS>MOLECULE
ASD01100020
  37   38    0    0    0
SMALL
NO_CHARGES


@<TRIPOS>ATOM
   1 C1             0.6406     0.4872    -1.3262 C.ar    
   2 C2             0.9095    -0.8675    -1.2442 C.ar    
   3 C3             2.1309    -1.3017    -0.7608 C.ar    
   4 C4             3.0817    -0.3821    -0.3600 C.ar    
   5 C5             2.8124     0.9714    -0.4421 C.ar    
   6 C6             1.5921     1.4059    -0.9251 C.ar    
   7 C7             3.8493     1.9735    -0.0045 C.3     
   8 C8             3.2847     2.8285     1.1317 C.3     
   9 C9             2.9848     1.9383     2.3394 C.3     
  10 C10            4.3093     3.8943     1.5257 C.3     
  11 Cl11          -0.2854    -2.0219    -1.7473 Cl      
  12 C12            4.2131     2.8603    -1.1674 C.2     
  13 N13            5.2166     3.7520    -1.0469 N.am    
  14 O14            3.6030     2.7716    -2.2117 O.2     
  15 C15            5.4819     4.6469    -2.0823 C.ar    
  16 C16            4.5210     4.8723    -3.0609 C.ar    
  17 C17            4.7973     5.7633    -4.0832 C.ar    
  18 C18            6.0304     6.4004    -4.0910 C.ar    
  19 C19            6.9382     6.1286    -3.0862 C.ar    
  20 N20            6.6448     5.2784    -2.1214 N.ar    
  21 H21           -0.3110     0.8268    -1.7076 H       
  22 H22            2.3413    -2.3590    -0.6963 H       
  23 H23            4.0351    -0.7209     0.0177 H       
  24 H24            1.3823     2.4634    -0.9890 H       
  25 H25            4.7385     1.4479     0.3437 H       
  26 H26            2.3661     3.3126     0.8002 H       
  27 H27            3.9034     1.4542     2.6709 H       
  28 H28            2.5825     2.5474     3.1488 H       
  29 H29            2.2548     1.1790     2.0587 H       
  30 H30            4.5543     4.5023     0.6548 H       
  31 H31            3.8908     4.5297     2.3063 H       
  32 H32            5.2127     3.4102     1.8967 H       
  33 H33            5.7541     3.7710    -0.2396 H       
  34 H34            3.5716     4.3587    -3.0242 H       
  35 H35            4.0701     5.9581    -4.8576 H       
  36 H36            6.2776     7.1011    -4.8748 H       
  37 H37            7.8989     6.6219    -3.0881 H       
@<TRIPOS>BOND
   1    1    2 ar
   2    1    6 ar
   3    1   21 1
   4    2    3 ar
   5    2   11 1
   6    3    4 ar
   7    3   22 1
   8    4    5 ar
   9    4   23 1
  10    5    6 ar
  11    5    7 1
  12    6   24 1
  13    7    8 1
  14    7   12 1
  15    7   25 1
  16    8    9 1
  17    8   10 1
  18    8   26 1
  19    9   27 1
  20    9   28 1
  21    9   29 1
  22   10   30 1
  23   10   31 1
  24   10   32 1
  25   12   13 am
  26   12   14 2
  27   13   15 1
  28   13   33 1
  29   15   16 ar
  30   15   20 ar
  31   16   17 ar
  32   16   34 1
  33   17   18 ar
  34   17   35 1
  35   18   19 ar
  36   18   36 1
  37   19   20 ar
  38   19   37 1

#	End of record

