#	Name: ASD01908255
#	Creating user name:	WinNT
#	Creation time:	15. 06. 2019 19:54

#	Modifying user name:	WinNT
#	Modification time:	15. 06. 2019 19:54

#	Program:	/corina/corina34_cracker 3.40 0067  02.08.2006

@<TRIPOS>MOLECULE
ASD01908255
  25   26    0    0    0
SMALL
NO_CHARGES


@<TRIPOS>ATOM
   1 C1            -0.1357     1.3497     0.4882 C.ar    
   2 C2            -0.0675    -0.0245     0.2992 C.ar    
   3 C3             1.0211    -0.7323     0.7726 C.ar    
   4 C4             2.0410    -0.0732     1.4342 C.ar    
   5 C5             1.9750     1.2946     1.6234 C.ar    
   6 C6             0.8893     2.0075     1.1518 C.ar    
   7 N7             3.2053    -0.8337     1.9412 N.pl3   
   8 O8             3.2645    -2.0389     1.7755 O.2     
   9 O9             4.1043    -0.2543     2.5240 O.2     
  10 O10           -1.2021     2.0493     0.0189 O.3     
  11 C11           -1.1732     3.4037     0.1249 C.ar    
  12 C12           -0.6125     4.1682    -0.8883 C.ar    
  13 C13           -0.5849     5.5458    -0.7781 C.ar    
  14 C14           -1.1159     6.1619     0.3419 C.ar    
  15 C15           -1.6743     5.4016     1.3522 C.ar    
  16 C16           -1.7094     4.0247     1.2438 C.ar    
  17 Cl17           0.1168     6.5036    -2.0446 Cl      
  18 Cl18          -1.3483    -0.8523    -0.5303 Cl      
  19 H19            1.0751    -1.8010     0.6261 H       
  20 H20            2.7729     1.8067     2.1408 H       
  21 H21            0.8388     3.0761     1.2998 H       
  22 H22           -0.1979     3.6874    -1.7620 H       
  23 H23           -1.0935     7.2384     0.4266 H       
  24 H24           -2.0874     5.8847     2.2254 H       
  25 H25           -2.1499     3.4317     2.0317 H       
@<TRIPOS>BOND
   1    1    2 ar
   2    1    6 ar
   3    1   10 1
   4    2    3 ar
   5    2   18 1
   6    3    4 ar
   7    3   19 1
   8    4    5 ar
   9    4    7 1
  10    5    6 ar
  11    5   20 1
  12    6   21 1
  13    7    8 2
  14    7    9 2
  15   10   11 1
  16   11   12 ar
  17   11   16 ar
  18   12   13 ar
  19   12   22 1
  20   13   14 ar
  21   13   17 1
  22   14   15 ar
  23   14   23 1
  24   15   16 ar
  25   15   24 1
  26   16   25 1

#	End of record

