#	Name: ASD01900492
#	Creating user name:	WinNT
#	Creation time:	15. 06. 2019 19:52

#	Modifying user name:	WinNT
#	Modification time:	15. 06. 2019 19:52

#	Program:	/corina/corina34_cracker 3.40 0067  02.08.2006

@<TRIPOS>MOLECULE
ASD01900492
  42   46    0    0    0
SMALL
NO_CHARGES


@<TRIPOS>ATOM
   1 C1            -0.2690     1.7009     0.2532 C.ar    
   2 C2            -0.0016     0.3475     0.0828 C.ar    
   3 C3             1.2951    -0.1178     0.1826 C.ar    
   4 C4             2.3314     0.7670     0.4531 C.ar    
   5 C5             2.0635     2.1191     0.6232 C.ar    
   6 C6             0.7670     2.5844     0.5235 C.ar    
   7 N7            -1.5835     2.1742     0.1463 N.pl3   
   8 N8             3.6450     0.2959     0.5547 N.pl3   
   9 N9            -3.0598     3.8950    -0.3704 N.ar    
  10 C10           -1.8264     3.4275    -0.3877 C.ar    
  11 N11           -0.8055     4.1136    -0.8982 N.ar    
  12 C12           -0.9721     5.3105    -1.4205 C.ar    
  13 C13           -2.2661     5.8636    -1.4319 C.ar    
  14 C14           -2.5285     7.1319    -1.9697 C.ar    
  15 C15           -3.8016     7.6170    -1.9541 C.ar    
  16 C16           -4.8461     6.8716    -1.4113 C.ar    
  17 C17           -4.6266     5.6363    -0.8806 C.ar    
  18 C18           -3.3291     5.1034    -0.8793 C.ar    
  19 C19            6.1281     0.7381     0.1615 C.ar    
  20 C20            6.8301     1.8739    -0.2851 C.ar    
  21 C21            8.2177     1.8078    -0.4065 C.ar    
  22 C22            8.8462     0.6220    -0.0808 C.ar    
  23 C23            8.0905    -0.4592     0.3534 C.ar    
  24 N24            6.7838    -0.3803     0.4623 N.ar    
  25 N25            4.6281     2.3585    -0.2174 N.2     
  26 N26            5.9018     2.8553    -0.5126 N.pl3   
  27 C27            4.7129     1.1157     0.1770 C.2     
  28 Cl28          -1.2971    -0.7577    -0.2546 Cl      
  29 H29            1.5032    -1.1693     0.0506 H       
  30 H30            2.8692     2.8068     0.8339 H       
  31 H31            0.5592     3.6360     0.6554 H       
  32 H32           -2.3232     1.6234     0.4467 H       
  33 H33            3.8148    -0.5994     0.8872 H       
  34 H34           -0.1348     5.8557    -1.8306 H       
  35 H35           -1.7274     7.7198    -2.3927 H       
  36 H36           -4.0040     8.5937    -2.3682 H       
  37 H37           -5.8459     7.2800    -1.4109 H       
  38 H38           -5.4466     5.0708    -0.4632 H       
  39 H39            8.7857     2.6610    -0.7466 H       
  40 H40            9.9196     0.5359    -0.1636 H       
  41 H41            8.5874    -1.3840     0.6068 H       
  42 H42            6.0968     3.7517    -0.8277 H       
@<TRIPOS>BOND
   1    1    2 ar
   2    1    6 ar
   3    1    7 1
   4    2    3 ar
   5    2   28 1
   6    3    4 ar
   7    3   29 1
   8    4    5 ar
   9    4    8 1
  10    5    6 ar
  11    5   30 1
  12    6   31 1
  13    7   10 1
  14    7   32 1
  15    8   27 1
  16    8   33 1
  17    9   10 ar
  18    9   18 ar
  19   10   11 ar
  20   11   12 ar
  21   12   13 ar
  22   12   34 1
  23   13   14 ar
  24   13   18 ar
  25   14   15 ar
  26   14   35 1
  27   15   16 ar
  28   15   36 1
  29   16   17 ar
  30   16   37 1
  31   17   18 ar
  32   17   38 1
  33   19   20 ar
  34   19   24 ar
  35   19   27 1
  36   20   21 ar
  37   20   26 1
  38   21   22 ar
  39   21   39 1
  40   22   23 ar
  41   22   40 1
  42   23   24 ar
  43   23   41 1
  44   25   26 1
  45   25   27 2
  46   26   42 1

#	End of record

