#	Name: ASD04880706
#	Creating user name:	WinNT
#	Creation time:	15. 06. 2019 20:53

#	Modifying user name:	WinNT
#	Modification time:	15. 06. 2019 20:53

#	Program:	/corina/corina34_cracker 3.40 0067  02.08.2006

@<TRIPOS>MOLECULE
ASD04880706
  77   81    0    0    0
SMALL
NO_CHARGES


@<TRIPOS>ATOM
   1 C1             0.0197     1.2521    -0.0539 C.ar    
   2 C2            -0.1620     0.2153    -0.9511 C.ar    
   3 C3             0.8384    -0.1100    -1.8483 C.ar    
   4 C4             2.0232     0.6001    -1.8514 C.ar    
   5 C5             2.2089     1.6419    -0.9518 C.ar    
   6 C6             1.2016     1.9661    -0.0516 C.ar    
   7 C7             3.1133     0.2445    -2.8293 C.3     
   8 N8             3.4059     2.3617    -0.9518 N.3     
   9 C9             3.1754     3.7669    -1.3148 C.3     
  10 C10            4.0811     2.2608     0.3496 C.3     
  11 C11            5.4227     2.9945     0.2834 C.3     
  12 N12            5.1922     4.3998    -0.0796 N.3     
  13 C13            4.5170     4.5006    -1.3809 C.3     
  14 C14            6.3855     5.1174    -0.0796 C.ar    
  15 C15            6.6041     6.1009     0.8782 C.ar    
  16 C16            7.7829     6.8131     0.8819 C.ar    
  17 C17            8.7637     6.5483    -0.0780 C.ar    
  18 C18            8.5467     5.5597    -1.0419 C.ar    
  19 C19            7.3643     4.8439    -1.0391 C.ar    
  20 N20            7.1451     3.8484    -2.0002 N.am    
  21 C21            7.6238     4.0020    -3.2507 C.2     
  22 C22            7.3109     3.0084    -4.2826 C.2     
  23 O23            8.3157     4.9655    -3.5234 O.2     
  24 C24            6.4901     1.2307    -5.2724 C.2     
  25 C25            7.2017     1.9005    -6.2056 C.2     
  26 C26            7.7334     3.0395    -5.5809 C.2     
  27 O27            6.5600     1.9003    -4.1145 O.3     
  28 C28            5.5486     6.3889     1.9146 C.3     
  29 F29            6.0366     7.3288     2.8286 F       
  30 F30            4.4060     6.8977     1.2877 F       
  31 F31            5.2231     5.2074     2.5895 F       
  32 C32           10.0262     7.3117    -0.0741 C.2     
  33 N33           10.9713     7.0556    -1.0002 N.am    
  34 O34           10.2139     8.1719     0.7645 O.2     
  35 C35           12.2250     7.8136    -0.9963 C.3     
  36 C36           13.1168     7.3301    -2.1416 C.3     
  37 C37           14.4261     8.1218    -2.1376 C.3     
  38 N38           15.2801     7.6588    -3.2342 N.am    
  39 C39           16.5814     6.1536    -4.5725 C.3     
  40 C40           16.2554     6.5681    -3.1205 C.3     
  41 C41           15.2669     8.1746    -4.4755 C.2     
  42 C42           16.2672     7.4513    -5.3501 C.3     
  43 O43           14.5560     9.0867    -4.8412 O.2     
  44 H44           -0.7655     1.5065     0.6426 H       
  45 H45           -1.0873    -0.3417    -0.9506 H       
  46 H46            0.6935    -0.9204    -2.5473 H       
  47 H47            1.3426     2.7758     0.6490 H       
  48 H48            2.9795     0.8176    -3.7467 H       
  49 H49            4.0840     0.4792    -2.3926 H       
  50 H50            3.0648    -0.8206    -3.0559 H       
  51 H51            2.6859     3.8156    -2.2875 H       
  52 H52            2.5405     4.2370    -0.5639 H       
  53 H53            3.4565     2.7138     1.1194 H       
  54 H54            4.2520     1.2116     0.5903 H       
  55 H55            5.9122     2.9458     1.2561 H       
  56 H56            6.0576     2.5244    -0.4675 H       
  57 H57            5.1416     4.0476    -2.1508 H       
  58 H58            4.3461     5.5499    -1.6217 H       
  59 H59            7.9494     7.5771     1.6269 H       
  60 H60            9.3026     5.3531    -1.7850 H       
  61 H61            6.6489     3.0487    -1.7656 H       
  62 H62            5.9532     0.3076    -5.4337 H       
  63 H63            7.3360     1.6136    -7.2381 H       
  64 H64            8.3558     3.7943    -6.0383 H       
  65 H65           10.8215     6.3694    -1.6692 H       
  66 H66           12.0088     8.8740    -1.1269 H       
  67 H67           12.7385     7.6618    -0.0469 H       
  68 H68           13.3330     6.2698    -2.0110 H       
  69 H69           12.6033     7.4820    -3.0910 H       
  70 H70           14.2099     9.1821    -2.2682 H       
  71 H71           14.9396     7.9699    -1.1882 H       
  72 H72           17.6318     5.8808    -4.6738 H       
  73 H73           15.9351     5.3392    -4.9001 H       
  74 H74           17.1564     6.9187    -2.6170 H       
  75 H75           15.8212     5.7289    -2.5771 H       
  76 H76           17.1696     8.0501    -5.4735 H       
  77 H77           15.8274     7.2181    -6.3198 H       
@<TRIPOS>BOND
   1    1    2 ar
   2    1    6 ar
   3    1   44 1
   4    2    3 ar
   5    2   45 1
   6    3    4 ar
   7    3   46 1
   8    4    5 ar
   9    4    7 1
  10    5    6 ar
  11    5    8 1
  12    6   47 1
  13    7   48 1
  14    7   49 1
  15    7   50 1
  16    8   10 1
  17    8    9 1
  18    9   13 1
  19    9   51 1
  20    9   52 1
  21   10   11 1
  22   10   53 1
  23   10   54 1
  24   11   12 1
  25   11   55 1
  26   11   56 1
  27   12   13 1
  28   12   14 1
  29   13   57 1
  30   13   58 1
  31   14   15 ar
  32   14   19 ar
  33   15   16 ar
  34   15   28 1
  35   16   17 ar
  36   16   59 1
  37   17   18 ar
  38   17   32 1
  39   18   19 ar
  40   18   60 1
  41   19   20 1
  42   20   21 am
  43   20   61 1
  44   21   22 1
  45   21   23 2
  46   22   27 1
  47   22   26 2
  48   24   25 2
  49   24   27 1
  50   24   62 1
  51   25   26 1
  52   25   63 1
  53   26   64 1
  54   28   29 1
  55   28   30 1
  56   28   31 1
  57   32   33 am
  58   32   34 2
  59   33   35 1
  60   33   65 1
  61   35   36 1
  62   35   66 1
  63   35   67 1
  64   36   37 1
  65   36   68 1
  66   36   69 1
  67   37   38 1
  68   37   70 1
  69   37   71 1
  70   38   41 am
  71   38   40 1
  72   39   40 1
  73   39   42 1
  74   39   72 1
  75   39   73 1
  76   40   74 1
  77   40   75 1
  78   41   42 1
  79   41   43 2
  80   42   76 1
  81   42   77 1

#	End of record

