#	Name: ASD01913529
#	Creating user name:	WinNT
#	Creation time:	15. 06. 2019 20:01

#	Modifying user name:	WinNT
#	Modification time:	15. 06. 2019 20:01

#	Program:	/corina/corina34_cracker 3.40 0067  02.08.2006

@<TRIPOS>MOLECULE
ASD01913529
  59   63    0    0    0
SMALL
NO_CHARGES


@<TRIPOS>ATOM
   1 C1             0.0801     1.4526     0.2758 C.ar    
   2 C2             0.0439    -0.0170     0.1053 C.2     
   3 N3            -1.0124    -0.8220     0.3653 N.pl3   
   4 N4            -0.5997    -2.1293     0.0611 N.2     
   5 C5             0.6463    -2.0503    -0.3544 C.2     
   6 N6             1.0315    -0.7697    -0.3312 N.2     
   7 C7             1.4862    -3.1957    -0.7842 C.ar    
   8 C8             2.7973    -2.9809    -1.2049 C.ar    
   9 C9             3.5757    -4.0473    -1.6034 C.ar    
  10 C10            3.0543    -5.3339    -1.5856 C.ar    
  11 C11            1.7484    -5.5508    -1.1674 C.ar    
  12 C12            0.9672    -4.4889    -0.7624 C.ar    
  13 C13           -2.3265    -0.4109     0.8658 C.3     
  14 C14           -3.2448    -0.1398    -0.2979 C.2     
  15 N15           -4.5145     0.2546    -0.0767 N.am    
  16 O16           -2.8414    -0.2765    -1.4335 O.2     
  17 O17            3.8235    -6.3827    -1.9787 O.3     
  18 C18           -5.0346     0.4297     1.2875 C.3     
  19 C19           -1.1084     2.1813     0.3260 C.ar    
  20 C20            1.3026     2.1142     0.3927 C.ar    
  21 C21            1.3297     3.4845     0.5514 C.ar    
  22 C22            0.1478     4.2022     0.5950 C.ar    
  23 C23           -1.0680     3.5513     0.4850 C.ar    
  24 C24           -6.4200    -0.1524     1.3591 C.2     
  25 N25           -7.1201    -0.4976     0.2775 N.am    
  26 C26           -6.6137    -0.4442    -1.0870 C.3     
  27 C27           -5.4354     0.5335    -1.1915 C.3     
  28 C28            3.2239    -7.6791    -1.9354 C.3     
  29 C29           -8.4281    -0.9412     0.4666 C.ar    
  30 N30           -8.6725    -2.2382     0.5685 N.ar    
  31 C31           -9.4630    -0.0172     0.5519 C.ar    
  32 C32          -10.7569    -0.4710     0.7397 C.ar    
  33 C33          -10.9714    -1.8389     0.8359 C.ar    
  34 C34           -9.8950    -2.6999     0.7478 C.ar    
  35 O35           -6.9232    -0.3155     2.4503 O.2     
  36 H36            3.2033    -1.9802    -1.2193 H       
  37 H37            4.5917    -3.8814    -1.9299 H       
  38 H38            1.3453    -6.5527    -1.1549 H       
  39 H39           -0.0486    -4.6583    -0.4371 H       
  40 H40           -2.7457    -1.2064     1.4819 H       
  41 H41           -2.2206     0.4943     1.4637 H       
  42 H42           -4.3850    -0.0859     1.9949 H       
  43 H43           -5.0718     1.4916     1.5305 H       
  44 H44           -2.0581     1.6742     0.2402 H       
  45 H45            2.2259     1.5549     0.3594 H       
  46 H46            2.2755     3.9979     0.6420 H       
  47 H47            0.1742     5.2746     0.7201 H       
  48 H48           -1.9873     4.1171     0.5195 H       
  49 H49           -6.2847    -1.4391    -1.3868 H       
  50 H50           -7.4113    -0.1150    -1.7530 H       
  51 H51           -5.8009     1.5583    -1.1257 H       
  52 H52           -4.9189     0.3869    -2.1401 H       
  53 H53            2.9206    -7.9052    -0.9132 H       
  54 H54            2.3496    -7.6969    -2.5861 H       
  55 H55            3.9440    -8.4240    -2.2740 H       
  56 H56           -9.2601     1.0407     0.4732 H       
  57 H57          -11.5810     0.2235     0.8101 H       
  58 H58          -11.9690    -2.2258     0.9825 H       
  59 H59          -10.0570    -3.7651     0.8220 H       
@<TRIPOS>BOND
   1    1    2 1
   2    1   19 ar
   3    1   20 ar
   4    2    3 1
   5    2    6 2
   6    3    4 1
   7    3   13 1
   8    4    5 2
   9    5    6 1
  10    5    7 1
  11    7    8 ar
  12    7   12 ar
  13    8    9 ar
  14    8   36 1
  15    9   10 ar
  16    9   37 1
  17   10   11 ar
  18   10   17 1
  19   11   12 ar
  20   11   38 1
  21   12   39 1
  22   13   14 1
  23   13   40 1
  24   13   41 1
  25   14   15 am
  26   14   16 2
  27   15   18 1
  28   15   27 1
  29   17   28 1
  30   18   24 1
  31   18   42 1
  32   18   43 1
  33   19   23 ar
  34   19   44 1
  35   20   21 ar
  36   20   45 1
  37   21   22 ar
  38   21   46 1
  39   22   23 ar
  40   22   47 1
  41   23   48 1
  42   24   25 am
  43   24   35 2
  44   25   26 1
  45   25   29 1
  46   26   27 1
  47   26   49 1
  48   26   50 1
  49   27   51 1
  50   27   52 1
  51   28   53 1
  52   28   54 1
  53   28   55 1
  54   29   30 ar
  55   29   31 ar
  56   30   34 ar
  57   31   32 ar
  58   31   56 1
  59   32   33 ar
  60   32   57 1
  61   33   34 ar
  62   33   58 1
  63   34   59 1

#	End of record

