#	Name: ASD01230419
#	Creating user name:	WinNT
#	Creation time:	15. 06. 2019 19:14

#	Modifying user name:	WinNT
#	Modification time:	15. 06. 2019 19:14

#	Program:	/corina/corina34_cracker 3.40 0067  02.08.2006

@<TRIPOS>MOLECULE
ASD01230419
  54   57    0    0    0
SMALL
NO_CHARGES


@<TRIPOS>ATOM
   1 S1            -1.6212     2.7528     1.5549 S.o2    
   2 N2            -1.3522     1.2758     0.8765 N.am    
   3 C3            -0.2274     0.8823     0.4277 C.2     
   4 N4             0.9288     1.6183     0.4826 N.pl3   
   5 C5             1.1093     2.6848     1.4611 C.3     
   6 C6            -0.0647     3.6617     1.3706 C.3     
   7 C7            -0.0956    -0.4911    -0.2105 C.3     
   8 C8             1.2817    -1.0400     0.1703 C.3     
   9 C9             2.3973    -0.1594    -0.3764 C.3     
  10 C10            1.9802     1.3020    -0.4898 C.3     
  11 C11            3.6079    -0.2585     0.5539 C.3     
  12 C12           -1.1740    -1.4048     0.3120 C.ar    
  13 C13           -2.0841    -1.9691    -0.5627 C.ar    
  14 C14           -3.0736    -2.8071    -0.0864 C.ar    
  15 C15           -3.1535    -3.0827     1.2712 C.ar    
  16 C16           -2.2387    -2.5154     2.1468 C.ar    
  17 C17           -1.2482    -1.6820     1.6646 C.ar    
  18 O18           -4.1262    -3.9063     1.7424 O.3     
  19 C19           -4.9322    -4.5236     0.8392 C.ar    
  20 C20           -4.5699    -5.7551     0.3118 C.ar    
  21 C21           -5.3912    -6.3806    -0.6056 C.ar    
  22 C22           -6.5734    -5.7807    -0.9992 C.ar    
  23 C23           -6.9367    -4.5539    -0.4753 C.ar    
  24 C24           -6.1216    -3.9266     0.4470 C.ar    
  25 C25           -4.9984    -7.7179    -1.1788 C.3     
  26 C26           -5.5603    -8.8353    -0.2975 C.3     
  27 F27           -5.5150    -7.8404    -2.4731 F       
  28 F28           -3.6035    -7.8151    -1.2223 F       
  29 O29           -2.6317     3.3300     0.7395 O.2     
  30 O30           -1.8681     2.4654     2.9245 O.2     
  31 H31            1.1494     2.2563     2.4626 H       
  32 H32            2.0395     3.2141     1.2545 H       
  33 H33           -0.0481     4.1611     0.4019 H       
  34 H34            0.0185     4.4044     2.1640 H       
  35 H35           -0.1739    -0.4054    -1.2943 H       
  36 H36            1.3609    -1.0836     1.2565 H       
  37 H37            1.3897    -2.0460    -0.2352 H       
  38 H38            2.6823    -0.5228    -1.3637 H       
  39 H39            1.6073     1.4918    -1.4963 H       
  40 H40            2.8455     1.9378    -0.3024 H       
  41 H41            3.9456    -1.2938     0.6016 H       
  42 H42            4.4127     0.3689     0.1709 H       
  43 H43            3.3278     0.0787     1.5519 H       
  44 H44           -2.0215    -1.7543    -1.6193 H       
  45 H45           -3.7846    -3.2470    -0.7700 H       
  46 H46           -2.2987    -2.7283     3.2039 H       
  47 H47           -0.5334    -1.2435     2.3452 H       
  48 H48           -3.6464    -6.2237     0.6183 H       
  49 H49           -7.2139    -6.2712    -1.7173 H       
  50 H50           -7.8605    -4.0875    -0.7843 H       
  51 H51           -6.4078    -2.9701     0.8590 H       
  52 H52           -6.6471    -8.7596    -0.2636 H       
  53 H53           -5.2762    -9.8026    -0.7120 H       
  54 H54           -5.1578    -8.7399     0.7110 H       
@<TRIPOS>BOND
   1    1    2 am
   2    1    6 1
   3    1   29 2
   4    1   30 2
   5    2    3 2
   6    3    4 1
   7    3    7 1
   8    4    5 1
   9    4   10 1
  10    5    6 1
  11    5   31 1
  12    5   32 1
  13    6   33 1
  14    6   34 1
  15    7    8 1
  16    7   12 1
  17    7   35 1
  18    8    9 1
  19    8   36 1
  20    8   37 1
  21    9   10 1
  22    9   11 1
  23    9   38 1
  24   10   39 1
  25   10   40 1
  26   11   41 1
  27   11   42 1
  28   11   43 1
  29   12   13 ar
  30   12   17 ar
  31   13   14 ar
  32   13   44 1
  33   14   15 ar
  34   14   45 1
  35   15   16 ar
  36   15   18 1
  37   16   17 ar
  38   16   46 1
  39   17   47 1
  40   18   19 1
  41   19   20 ar
  42   19   24 ar
  43   20   21 ar
  44   20   48 1
  45   21   22 ar
  46   21   25 1
  47   22   23 ar
  48   22   49 1
  49   23   24 ar
  50   23   50 1
  51   24   51 1
  52   25   26 1
  53   25   27 1
  54   25   28 1
  55   26   52 1
  56   26   53 1
  57   26   54 1

#	End of record

