#	Name: ASD01208469
#	Creating user name:	WinNT
#	Creation time:	15. 06. 2019 19:09

#	Modifying user name:	WinNT
#	Modification time:	15. 06. 2019 19:09

#	Program:	/corina/corina34_cracker 3.40 0067  02.08.2006

@<TRIPOS>MOLECULE
ASD01208469
  65   67    0    0    0
SMALL
NO_CHARGES


@<TRIPOS>ATOM
   1 N1            -0.4130     1.2441    -1.1691 N.pl3   
   2 C2            -0.4393    -0.0172    -1.7207 C.2     
   3 C3             0.8653    -0.4308    -1.9013 C.2     
   4 C4             1.6948     0.5952    -1.4524 C.2     
   5 C5             0.8882     1.6191    -1.0048 C.2     
   6 C6            -1.6414    -0.7858    -2.0567 C.2     
   7 O7            -1.5373    -1.8969    -2.5426 O.2     
   8 N8            -2.8620    -0.2623    -1.8275 N.am    
   9 C9            -4.0634    -1.0305    -2.1632 C.3     
  10 C10           -5.3071    -0.2142    -1.8060 C.3     
  11 C11           -6.5618    -1.0165    -2.1566 C.3     
  12 O12           -5.3018     0.0742    -0.4064 O.3     
  13 F13           -6.5666    -2.2142    -1.4337 F       
  14 F14           -7.6991    -0.2700    -1.8300 F       
  15 F15           -6.5670    -1.2988    -3.5268 F       
  16 C16            1.3537     2.9046    -0.4426 C.ar    
  17 C17            2.7201     3.1646    -0.3286 C.ar    
  18 C18            3.1521     4.3702     0.1982 C.ar    
  19 C19            2.2284     5.3191     0.6130 C.ar    
  20 C20            0.8690     5.0648     0.5015 C.ar    
  21 C21            0.4284     3.8635    -0.0298 C.ar    
  22 O22           -0.0314     5.9972     0.9095 O.3     
  23 C23           -0.6479     5.8082     2.1057 C.ar    
  24 C24           -1.5986     6.7165     2.5488 C.ar    
  25 C25           -2.2237     6.5221     3.7651 C.ar    
  26 C26           -1.9028     5.4235     4.5410 C.ar    
  27 C27           -0.9554     4.5170     4.1019 C.ar    
  28 C28           -0.3318     4.7035     2.8835 C.ar    
  29 S29           -2.7021     5.1784     6.0920 S.o2    
  30 O30           -1.7725     4.4150     6.8485 O.2     
  31 O31           -3.0815     6.4853     6.5010 O.2     
  32 C32           -4.1671     4.1854     5.6944 C.3     
  33 O33            4.4825     4.6243     0.3096 O.3     
  34 C34            4.8584     5.9209     0.7781 C.3     
  35 C35            6.2699     6.2507     0.2886 C.3     
  36 C36            4.8321     5.9379     2.3078 C.3     
  37 O37            7.2038     5.3480     0.8845 O.3     
  38 C38            8.5594     5.5709     0.4913 C.3     
  39 H39           -1.1895     1.7781    -0.9397 H       
  40 H40            1.1846    -1.3763    -2.3144 H       
  41 H41            2.7747     0.5889    -1.4546 H       
  42 H42           -2.9450     0.6232    -1.4402 H       
  43 H43           -4.0675    -1.2505    -3.2308 H       
  44 H44           -4.0672    -1.9637    -1.5999 H       
  45 H45           -5.3034     0.7190    -2.3692 H       
  46 H46           -5.3047    -0.7116     0.1571 H       
  47 H47            3.4397     2.4263    -0.6505 H       
  48 H48            2.5687     6.2581     1.0241 H       
  49 H49           -0.6299     3.6680    -0.1204 H       
  50 H50           -1.8494     7.5750     1.9433 H       
  51 H51           -2.9635     7.2290     4.1107 H       
  52 H52           -0.7061     3.6601     4.7101 H       
  53 H53            0.4046     3.9926     2.5389 H       
  54 H54           -3.8559     3.2430     5.2436 H       
  55 H55           -4.7281     3.9838     6.6070 H       
  56 H56           -4.7977     4.7325     4.9936 H       
  57 H57            4.1581     6.6629     0.3945 H       
  58 H58            6.3106     6.1519    -0.7962 H       
  59 H59            6.5225     7.2730     0.5700 H       
  60 H60            5.1189     6.9269     2.6652 H       
  61 H61            3.8265     5.7029     2.6566 H       
  62 H62            5.5324     5.1958     2.6914 H       
  63 H63            8.6476     5.4579    -0.5892 H       
  64 H64            8.8595     6.5791     0.7769 H       
  65 H65            9.2052     4.8456     0.9863 H       
@<TRIPOS>BOND
   1    1    2 1
   2    1    5 1
   3    1   39 1
   4    2    3 2
   5    2    6 1
   6    3    4 1
   7    3   40 1
   8    4    5 2
   9    4   41 1
  10    5   16 1
  11    6    7 2
  12    6    8 am
  13    8    9 1
  14    8   42 1
  15    9   10 1
  16    9   43 1
  17    9   44 1
  18   10   11 1
  19   10   12 1
  20   10   45 1
  21   11   13 1
  22   11   14 1
  23   11   15 1
  24   12   46 1
  25   16   17 ar
  26   16   21 ar
  27   17   18 ar
  28   17   47 1
  29   18   19 ar
  30   18   33 1
  31   19   20 ar
  32   19   48 1
  33   20   21 ar
  34   20   22 1
  35   21   49 1
  36   22   23 1
  37   23   24 ar
  38   23   28 ar
  39   24   25 ar
  40   24   50 1
  41   25   26 ar
  42   25   51 1
  43   26   27 ar
  44   26   29 1
  45   27   28 ar
  46   27   52 1
  47   28   53 1
  48   29   30 2
  49   29   31 2
  50   29   32 1
  51   32   54 1
  52   32   55 1
  53   32   56 1
  54   33   34 1
  55   34   35 1
  56   34   36 1
  57   34   57 1
  58   35   37 1
  59   35   58 1
  60   35   59 1
  61   36   60 1
  62   36   61 1
  63   36   62 1
  64   37   38 1
  65   38   63 1
  66   38   64 1
  67   38   65 1

#	End of record

