#	Name: ASD01814124
#	Creating user name:	WinNT
#	Creation time:	15. 06. 2019 19:31

#	Modifying user name:	WinNT
#	Modification time:	15. 06. 2019 19:31

#	Program:	/corina/corina34_cracker 3.40 0067  02.08.2006

@<TRIPOS>MOLECULE
ASD01814124
  57   60    0    0    0
SMALL
NO_CHARGES


@<TRIPOS>ATOM
   1 C1            -0.0179     1.4718     0.0101 C.ar    
   2 C2             0.0021    -0.0041     0.0020 C.2     
   3 N3            -1.1558    -0.6938     0.0094 N.am    
   4 O4             1.0631    -0.5976    -0.0113 O.2     
   5 C5            -1.1360    -2.1586     0.0013 C.3     
   6 C6            -2.5713    -2.6882     0.0122 C.3     
   7 N7            -2.5514    -4.1570     0.0041 N.3     
   8 C8            -3.9155    -4.7021     0.0142 C.3     
   9 C9            -3.9090    -6.1033    -0.6038 C.3     
  10 C10           -5.3079    -6.7212    -0.4498 C.3     
  11 N11           -5.5631    -6.8770     1.0027 N.am    
  12 C12           -5.7869    -5.4868     1.4679 C.3     
  13 C13           -4.4237    -4.7768     1.4569 C.3     
  14 C14           -6.3435    -5.6685    -0.9077 C.3     
  15 C15           -6.6607    -4.8512     0.3622 C.3     
  16 C16           -5.5861    -8.0127     1.7279 C.2     
  17 O17           -5.8373    -7.9624     3.0497 O.3     
  18 O18           -5.3802    -9.0821     1.1889 O.2     
  19 C19           -5.8465    -9.2246     3.7675 C.3     
  20 C20           -6.1471    -8.9685     5.2456 C.3     
  21 C21            1.1799     2.1928     0.0026 C.ar    
  22 C22            1.1515     3.5656     0.0103 C.ar    
  23 C23           -0.0567     4.2560     0.0336 C.ar    
  24 C24           -1.2514     3.5342     0.0370 C.ar    
  25 C25           -1.2344     2.1597     0.0196 C.ar    
  26 C26            2.2560     4.6049    -0.0126 C.3     
  27 C27            1.4798     5.8876    -0.3941 C.3     
  28 O28            0.1466     5.6005     0.0608 O.3     
  29 H29           -2.0023    -0.2203     0.0200 H       
  30 H30           -0.6258    -2.5101    -0.8955 H       
  31 H31           -0.6088    -2.5197     0.8844 H       
  32 H32           -3.0815    -2.3367     0.9090 H       
  33 H33           -3.0985    -2.3271    -0.8709 H       
  34 H34           -2.0279    -4.5072    -0.7842 H       
  35 H35           -4.5700    -4.0525    -0.5670 H       
  36 H36           -3.6545    -6.0347    -1.6614 H       
  37 H37           -3.1764    -6.7256    -0.0898 H       
  38 H38           -5.4010    -7.6645    -0.9880 H       
  39 H39           -6.2595    -5.4519     2.4495 H       
  40 H40           -3.7147    -5.3384     2.0652 H       
  41 H41           -4.5337    -3.7692     1.8579 H       
  42 H42           -5.9160    -5.0248    -1.6765 H       
  43 H43           -7.2438    -6.1581    -1.2788 H       
  44 H44           -7.7171    -4.9387     0.6159 H       
  45 H45           -6.3894    -3.8054     0.2181 H       
  46 H46           -6.6137    -9.8755     3.3481 H       
  47 H47           -4.8720    -9.7036     3.6726 H       
  48 H48           -5.3799    -8.3176     5.6650 H       
  49 H49           -7.1216    -8.4895     5.3405 H       
  50 H50           -6.1540    -9.9160     5.7845 H       
  51 H51            2.1254     1.6711    -0.0089 H       
  52 H52           -2.1953     4.0590     0.0488 H       
  53 H53           -2.1639     1.6097     0.0221 H       
  54 H54            2.7163     4.7059     0.9702 H       
  55 H55            3.0033     4.3626    -0.7682 H       
  56 H56            1.8870     6.7544     0.1264 H       
  57 H57            1.4948     6.0415    -1.4730 H       
@<TRIPOS>BOND
   1    1    2 1
   2    1   21 ar
   3    1   25 ar
   4    2    3 am
   5    2    4 2
   6    3    5 1
   7    3   29 1
   8    5    6 1
   9    5   30 1
  10    5   31 1
  11    6    7 1
  12    6   32 1
  13    6   33 1
  14    7    8 1
  15    7   34 1
  16    8    9 1
  17    8   13 1
  18    8   35 1
  19    9   10 1
  20    9   36 1
  21    9   37 1
  22   10   11 1
  23   10   14 1
  24   10   38 1
  25   11   12 1
  26   11   16 am
  27   12   13 1
  28   12   15 1
  29   12   39 1
  30   13   40 1
  31   13   41 1
  32   14   15 1
  33   14   42 1
  34   14   43 1
  35   15   44 1
  36   15   45 1
  37   16   17 1
  38   16   18 2
  39   17   19 1
  40   19   20 1
  41   19   46 1
  42   19   47 1
  43   20   48 1
  44   20   49 1
  45   20   50 1
  46   21   22 ar
  47   21   51 1
  48   22   23 ar
  49   22   26 1
  50   23   24 ar
  51   23   28 1
  52   24   25 ar
  53   24   52 1
  54   25   53 1
  55   26   27 1
  56   26   54 1
  57   26   55 1
  58   27   28 1
  59   27   56 1
  60   27   57 1

#	End of record

