#	Name: ASD01230590
#	Creating user name:	WinNT
#	Creation time:	15. 06. 2019 19:14

#	Modifying user name:	WinNT
#	Modification time:	15. 06. 2019 19:14

#	Program:	/corina/corina34_cracker 3.40 0067  02.08.2006

@<TRIPOS>MOLECULE
ASD01230590
  46   49    0    0    0
SMALL
NO_CHARGES


@<TRIPOS>ATOM
   1 C1             0.2525     1.2259     0.3674 C.2     
   2 C2             0.0679    -0.2247    -0.0198 C.3     
   3 O3            -1.3229    -0.5010    -0.1971 O.3     
   4 C4            -2.0345    -0.8234     0.9148 C.ar    
   5 C5            -3.3621    -1.2127     0.7986 C.ar    
   6 C6            -1.4305    -0.7681     2.1637 C.ar    
   7 C7            -2.1493    -1.0945     3.2942 C.ar    
   8 C8            -3.4854    -1.4808     3.1819 C.ar    
   9 C9            -4.0873    -1.5406     1.9246 C.ar    
  10 C10           -4.2607    -1.8321     4.3934 C.2     
  11 C11           -4.7577    -3.2104     4.5908 C.2     
  12 C12           -4.5236    -0.8801     5.3542 C.2     
  13 C13           -5.2623    -1.2451     6.4882 C.2     
  14 C14           -5.7193    -2.5003     6.6364 C.2     
  15 N15           -5.4981    -3.4847     5.7053 N.pl3   
  16 C16           -6.1099    -4.7873     5.9808 C.3     
  17 C17           -5.1979    -5.9218     5.5056 C.3     
  18 S18           -4.9000    -5.6619     3.7284 S.o2    
  19 N19           -4.4279    -4.0769     3.6639 N.am    
  20 O20           -3.7622    -6.3948     3.2952 O.2     
  21 O21           -6.1208    -5.6965     3.0020 O.2     
  22 C22            1.6575     1.7851     0.4044 C.3     
  23 C23            2.3463     1.4602    -0.9252 C.3     
  24 C24            2.2740    -0.0463    -1.1801 C.3     
  25 C25            0.8143    -0.4768    -1.3341 C.3     
  26 O26           -0.6980     1.9210     0.6354 O.2     
  27 H27            0.4718    -0.8668     0.7629 H       
  28 H28           -3.8275    -1.2585    -0.1749 H       
  29 H29           -0.3962    -0.4694     2.2498 H       
  30 H30           -1.6787    -1.0516     4.2653 H       
  31 H31           -5.1213    -1.8392     1.8338 H       
  32 H32           -4.1656     0.1319     5.2356 H       
  33 H33           -5.4663    -0.5093     7.2519 H       
  34 H34           -6.2798    -2.7458     7.5263 H       
  35 H35           -6.2774    -4.8860     7.0534 H       
  36 H36           -7.0657    -4.8526     5.4609 H       
  37 H37           -4.2534    -5.8915     6.0488 H       
  38 H38           -5.6875    -6.8828     5.6634 H       
  39 H39            1.6179     2.8657     0.5417 H       
  40 H40            2.2116     1.3291     1.2248 H       
  41 H41            1.8435     1.9902    -1.7342 H       
  42 H42            3.3899     1.7715    -0.8797 H       
  43 H43            2.8206    -0.2861    -2.0922 H       
  44 H44            2.7218    -0.5777    -0.3403 H       
  45 H45            0.7722    -1.5383    -1.5783 H       
  46 H46            0.3479     0.0991    -2.1333 H       
@<TRIPOS>BOND
   1    1    2 1
   2    1   22 1
   3    1   26 2
   4    2    3 1
   5    2   25 1
   6    2   27 1
   7    3    4 1
   8    4    5 ar
   9    4    6 ar
  10    5    9 ar
  11    5   28 1
  12    6    7 ar
  13    6   29 1
  14    7    8 ar
  15    7   30 1
  16    8    9 ar
  17    8   10 1
  18    9   31 1
  19   10   11 1
  20   10   12 2
  21   11   15 1
  22   11   19 2
  23   12   13 1
  24   12   32 1
  25   13   14 2
  26   13   33 1
  27   14   15 1
  28   14   34 1
  29   15   16 1
  30   16   17 1
  31   16   35 1
  32   16   36 1
  33   17   18 1
  34   17   37 1
  35   17   38 1
  36   18   19 am
  37   18   20 2
  38   18   21 2
  39   22   23 1
  40   22   39 1
  41   22   40 1
  42   23   24 1
  43   23   41 1
  44   23   42 1
  45   24   25 1
  46   24   43 1
  47   24   44 1
  48   25   45 1
  49   25   46 1

#	End of record

