#	Name: ASD01410284
#	Creating user name:	WinNT
#	Creation time:	15. 06. 2019 19:17

#	Modifying user name:	WinNT
#	Modification time:	15. 06. 2019 19:17

#	Program:	/corina/corina34_cracker 3.40 0067  02.08.2006

@<TRIPOS>MOLECULE
ASD01410284
  72   77    0    0    0
SMALL
NO_CHARGES


@<TRIPOS>ATOM
   1 C1             0.5405     1.5742     0.1234 C.2     
   2 C2             1.5470     0.7202     0.3692 C.2     
   3 C3             1.1028    -0.5854    -0.1368 C.2     
   4 C4            -0.1444    -0.3792    -0.6427 C.2     
   5 O5            -0.4596     0.9118    -0.4778 O.3     
   6 N6             1.3204    -3.0504    -0.2121 N.2     
   7 C7             1.8535    -1.8575    -0.1041 C.2     
   8 N8             3.2107    -1.9676     0.0432 N.pl3   
   9 C9             3.5176    -3.3125     0.0229 C.ar    
  10 C10            2.2955    -3.9914    -0.1412 C.ar    
  11 C11            4.7050    -4.0277     0.1266 C.ar    
  12 C12            4.6918    -5.3914     0.0693 C.ar    
  13 C13            3.4848    -6.0838    -0.0942 C.ar    
  14 C14            2.2860    -5.3852    -0.1989 C.ar    
  15 C15            6.2438     0.1750    -0.7152 C.3     
  16 C16            6.8798     0.1155     0.6750 C.3     
  17 C17            5.7881     0.2326     1.7407 C.3     
  18 C18            4.7963    -0.9218     1.5837 C.3     
  19 C19            4.1603    -0.8623     0.1934 C.3     
  20 C20            5.2520    -0.9794    -0.8722 C.3     
  21 C21            3.4849    -7.5593    -0.1550 C.2     
  22 N22            4.6449    -8.2379    -0.0533 N.am    
  23 O23            2.4385    -8.1618    -0.2968 O.2     
  24 C24            4.6449    -9.7016    -0.1137 C.3     
  25 C25            4.6795   -10.1518    -1.5756 C.3     
  26 C26            5.8580   -10.2340     0.6047 C.2     
  27 N27            6.0684   -11.5632     0.6782 N.am    
  28 O28            6.6451    -9.4662     1.1167 O.2     
  29 C29            7.8027   -11.3914     2.3471 C.ar    
  30 C30            8.9562   -11.8726     2.9260 C.ar    
  31 C31            9.5594   -13.0280     2.4221 C.ar    
  32 C32            8.9894   -13.6911     1.3320 C.ar    
  33 C33            7.8358   -13.2040     0.7582 C.ar    
  34 C34            7.2384   -12.0539     1.2624 C.ar    
  35 O35           11.4366   -13.0006     4.0862 O.3     
  36 C36           12.5274   -13.7411     4.3783 C.2     
  37 C37           12.5817   -14.7927     3.4875 C.2     
  38 C38           11.4779   -14.6613     2.6407 C.2     
  39 C39           10.7955   -13.5464     3.0393 C.2     
  40 C40           13.4841   -13.4746     5.4516 C.2     
  41 O41           14.4337   -14.2166     5.6183 O.2     
  42 O42           13.3137   -12.4055     6.2573 O.3     
  43 H43            0.5349     2.6248     0.3737 H       
  44 H44            2.4910     0.9470     0.8425 H       
  45 H45           -0.7726    -1.1294    -1.0999 H       
  46 H46            5.6406    -3.5030     0.2525 H       
  47 H47            5.6183    -5.9404     0.1503 H       
  48 H48            1.3551    -5.9180    -0.3249 H       
  49 H49            5.7196     1.1231    -0.8347 H       
  50 H50            7.0215     0.0915    -1.4744 H       
  51 H51            7.4039    -0.8327     0.7946 H       
  52 H52            7.5863     0.9379     0.7869 H       
  53 H53            6.2412     0.1902     2.7311 H       
  54 H54            5.2639     1.1808     1.6212 H       
  55 H55            5.3205    -1.8700     1.7032 H       
  56 H56            4.0186    -0.8384     2.3429 H       
  57 H57            3.6361     0.0859     0.0739 H       
  58 H58            4.7989    -0.9370    -1.8626 H       
  59 H59            5.7762    -1.9276    -0.7527 H       
  60 H60            5.4797    -7.7571     0.0598 H       
  61 H61            3.7429   -10.0850     0.3633 H       
  62 H62            4.6796   -11.2408    -1.6205 H       
  63 H63            3.8021    -9.7667    -2.0952 H       
  64 H64            5.5815    -9.7684    -2.0525 H       
  65 H65            5.4072   -12.1791     0.3254 H       
  66 H66            7.3335   -10.5010     2.7388 H       
  67 H67            9.3941   -11.3573     3.7681 H       
  68 H68            9.4530   -14.5842     0.9396 H       
  69 H69            7.3950   -13.7158    -0.0846 H       
  70 H70           13.3325   -15.5682     3.4514 H       
  71 H71           11.2139   -15.3174     1.8244 H       
  72 H72           13.9958   -12.3120     6.9363 H       
@<TRIPOS>BOND
   1    1    2 2
   2    1    5 1
   3    1   43 1
   4    2    3 1
   5    2   44 1
   6    3    4 2
   7    3    7 1
   8    4    5 1
   9    4   45 1
  10    6    7 2
  11    6   10 1
  12    7    8 1
  13    8    9 1
  14    8   19 1
  15    9   10 ar
  16    9   11 ar
  17   10   14 ar
  18   11   12 ar
  19   11   46 1
  20   12   13 ar
  21   12   47 1
  22   13   14 ar
  23   13   21 1
  24   14   48 1
  25   15   16 1
  26   15   20 1
  27   15   49 1
  28   15   50 1
  29   16   17 1
  30   16   51 1
  31   16   52 1
  32   17   18 1
  33   17   53 1
  34   17   54 1
  35   18   19 1
  36   18   55 1
  37   18   56 1
  38   19   20 1
  39   19   57 1
  40   20   58 1
  41   20   59 1
  42   21   22 am
  43   21   23 2
  44   22   24 1
  45   22   60 1
  46   24   25 1
  47   24   26 1
  48   24   61 1
  49   25   62 1
  50   25   63 1
  51   25   64 1
  52   26   27 am
  53   26   28 2
  54   27   34 1
  55   27   65 1
  56   29   30 ar
  57   29   34 ar
  58   29   66 1
  59   30   31 ar
  60   30   67 1
  61   31   32 ar
  62   31   39 1
  63   32   33 ar
  64   32   68 1
  65   33   34 ar
  66   33   69 1
  67   35   36 1
  68   35   39 1
  69   36   37 2
  70   36   40 1
  71   37   38 1
  72   37   70 1
  73   38   39 2
  74   38   71 1
  75   40   41 2
  76   40   42 1
  77   42   72 1

#	End of record

