#	Name: ASD04882277
#	Creating user name:	WinNT
#	Creation time:	15. 06. 2019 20:54

#	Modifying user name:	WinNT
#	Modification time:	15. 06. 2019 20:54

#	Program:	/corina/corina34_cracker 3.40 0067  02.08.2006

@<TRIPOS>MOLECULE
ASD04882277
  76   80    0    0    0
SMALL
NO_CHARGES


@<TRIPOS>ATOM
   1 N1            -0.1365     1.5553    -0.0362 N.am    
   2 C2            -0.0766     0.1557    -0.0458 C.ar    
   3 C3            -1.2530    -0.5952     0.0292 C.ar    
   4 C4            -1.1952    -1.9841     0.0193 C.ar    
   5 C5             0.0209    -2.6252    -0.0645 C.ar    
   6 C6             1.2012    -1.8803    -0.1398 C.ar    
   7 C7             1.1454    -0.4837    -0.1353 C.ar    
   8 N8            -2.4847     0.0488     0.1145 N.3     
   9 C9            -2.6117     0.7766     1.3849 C.3     
  10 C10           -3.5903    -0.9043    -0.0558 C.3     
  11 C11           -4.9205    -0.1476    -0.0351 C.3     
  12 N12           -5.0474     0.5802     1.2352 N.3     
  13 C13           -3.9418     1.5333     1.4056 C.3     
  14 C14            2.5037    -2.5673    -0.2291 C.2     
  15 O15            3.5300    -1.9185    -0.2946 O.2     
  16 C16           -6.2859     1.2277     1.3210 C.ar    
  17 C17            0.8451     2.2678     0.5514 C.2     
  18 C18            0.8482     3.7308     0.4540 C.2     
  19 O19            1.7291     1.6967     1.1629 O.2     
  20 C20            1.7778     4.5694     0.9994 C.2     
  21 O21           -0.0637     4.4841    -0.1950 O.3     
  22 C22            0.2592     5.7780    -0.0711 C.2     
  23 C23            1.3913     5.8755     0.6603 C.2     
  24 N24            2.5561    -3.9140    -0.2380 N.am    
  25 C25           -7.1690     0.9142     2.3540 C.ar    
  26 C26           -8.3937     1.5594     2.4335 C.ar    
  27 C27           -8.7364     2.5107     1.4903 C.ar    
  28 C28           -7.8612     2.8212     0.4661 C.ar    
  29 C29           -6.6355     2.1868     0.3825 C.ar    
  30 C30            3.8495    -4.5962    -0.3267 C.3     
  31 C31            3.6292    -6.1102    -0.3182 C.3     
  32 N32            4.7692    -8.2724    -0.4027 N.am    
  33 C33            4.9801    -6.8227    -0.4108 C.3     
  34 C34           -0.5105     6.9345    -0.6552 C.3     
  35 C35            4.5697    -9.0869    -1.6072 C.3     
  36 N36           -6.8200    -0.0498     3.3077 N.pl3   
  37 C37            4.7392    -9.0282     0.7084 C.2     
  38 C38            4.4915   -10.4760     0.3462 C.3     
  39 C39            3.9674   -10.4192    -1.1086 C.3     
  40 O40            4.8895    -8.6104     1.8370 O.2     
  41 H41           -0.8824     2.0118    -0.4559 H       
  42 H42           -2.1058    -2.5618     0.0778 H       
  43 H43            0.0626    -3.7044    -0.0716 H       
  44 H44            2.0558     0.0944    -0.1937 H       
  45 H45           -2.5828     0.0692     2.2137 H       
  46 H46           -1.7888     1.4848     1.4821 H       
  47 H47           -3.4809    -1.4216    -1.0090 H       
  48 H48           -3.5725    -1.6308     0.7566 H       
  49 H49           -4.9493     0.5598    -0.8639 H       
  50 H50           -5.7433    -0.8558    -0.1323 H       
  51 H51           -4.0512     2.0505     2.3588 H       
  52 H52           -3.9596     2.2598     0.5931 H       
  53 H53            2.6428     4.2832     1.5792 H       
  54 H54            1.9023     6.7870     0.9331 H       
  55 H55            1.7374    -4.4316    -0.1858 H       
  56 H56           -9.0801     1.3188     3.2318 H       
  57 H57           -9.6908     3.0123     1.5537 H       
  58 H58           -8.1340     3.5645    -0.2684 H       
  59 H59           -5.9542     2.4317    -0.4188 H       
  60 H60            4.3502    -4.3070    -1.2507 H       
  61 H61            4.4681    -4.3143     0.5253 H       
  62 H62            3.1286    -6.3994     0.6058 H       
  63 H63            3.0106    -6.3921    -1.1703 H       
  64 H64            5.4808    -6.5335    -1.3349 H       
  65 H65            5.5987    -6.5407     0.4412 H       
  66 H66           -1.3772     6.5570    -1.1979 H       
  67 H67           -0.8429     7.5923     0.1478 H       
  68 H68            0.1317     7.4906    -1.3381 H       
  69 H69            3.8771    -8.5911    -2.2874 H       
  70 H70            5.5234    -9.2664    -2.1034 H       
  71 H71           -5.9630    -0.5006     3.2505 H       
  72 H72           -7.4353    -0.2668     4.0255 H       
  73 H73            5.4201   -11.0451     0.3925 H       
  74 H74            3.7426   -10.9119     1.0074 H       
  75 H75            2.8781   -10.3873    -1.1298 H       
  76 H76            4.3430   -11.2602    -1.6916 H       
@<TRIPOS>BOND
   1    1    2 1
   2    1   17 am
   3    1   41 1
   4    2    3 ar
   5    2    7 ar
   6    3    4 ar
   7    3    8 1
   8    4    5 ar
   9    4   42 1
  10    5    6 ar
  11    5   43 1
  12    6    7 ar
  13    6   14 1
  14    7   44 1
  15    8    9 1
  16    8   10 1
  17    9   13 1
  18    9   45 1
  19    9   46 1
  20   10   11 1
  21   10   47 1
  22   10   48 1
  23   11   12 1
  24   11   49 1
  25   11   50 1
  26   12   13 1
  27   12   16 1
  28   13   51 1
  29   13   52 1
  30   14   15 2
  31   14   24 am
  32   16   25 ar
  33   16   29 ar
  34   17   19 2
  35   17   18 1
  36   18   20 2
  37   18   21 1
  38   20   23 1
  39   20   53 1
  40   21   22 1
  41   22   23 2
  42   22   34 1
  43   23   54 1
  44   24   30 1
  45   24   55 1
  46   25   26 ar
  47   25   36 1
  48   26   27 ar
  49   26   56 1
  50   27   28 ar
  51   27   57 1
  52   28   29 ar
  53   28   58 1
  54   29   59 1
  55   30   31 1
  56   30   60 1
  57   30   61 1
  58   31   33 1
  59   31   62 1
  60   31   63 1
  61   32   33 1
  62   32   35 1
  63   32   37 am
  64   33   64 1
  65   33   65 1
  66   34   66 1
  67   34   67 1
  68   34   68 1
  69   35   39 1
  70   35   69 1
  71   35   70 1
  72   36   71 1
  73   36   72 1
  74   37   38 1
  75   37   40 2
  76   38   39 1
  77   38   73 1
  78   38   74 1
  79   39   75 1
  80   39   76 1

#	End of record

