#	Name: ASD02038774
#	Creating user name:	WinNT
#	Creation time:	15. 06. 2019 20:17

#	Modifying user name:	WinNT
#	Modification time:	15. 06. 2019 20:17

#	Program:	/corina/corina34_cracker 3.40 0067  02.08.2006

@<TRIPOS>MOLECULE
ASD02038774
  42   44    0    0    0
SMALL
NO_CHARGES


@<TRIPOS>ATOM
   1 C1            -1.2821    -0.8492     0.4635 C.2     
   2 C2            -0.0595    -0.0334     0.3008 C.2     
   3 N3             1.1375    -0.6350     0.1537 N.am    
   4 C4             1.2413    -2.0931     0.2507 C.3     
   5 C5             1.2136    -2.6918    -1.1320 C.ar    
   6 C6             2.3348     0.1691    -0.1032 C.3     
   7 O7            -0.1342     1.1799     0.2996 O.2     
   8 N8            -1.3389    -2.1931     0.4934 N.2     
   9 C9            -2.5947    -2.5254     0.6525 C.2     
  10 N10           -3.3116    -1.3884     0.7206 N.pl3   
  11 N11           -2.5053    -0.3894     0.6104 N.2     
  12 C12            2.3977    -3.0141    -1.7689 C.ar    
  13 C13            0.0043    -2.9233    -1.7601 C.ar    
  14 C14           -0.0230    -3.4724    -3.0285 C.ar    
  15 C15            1.1613    -3.7906    -3.6702 C.ar    
  16 C16            2.3734    -3.5631    -3.0378 C.ar    
  17 C17            2.1244     1.0133    -1.3639 C.3     
  18 C18            3.3480     1.9075    -1.5800 C.3     
  19 O19            3.5477     2.7263    -0.4259 O.3     
  20 C20            3.7965     1.9920     0.7745 C.3     
  21 C21            2.5908     1.1011     1.0852 C.3     
  22 Cl22           3.8602    -3.9614    -3.8406 Cl      
  23 C23           -4.7634    -1.3012     0.8965 C.3     
  24 F24            1.1356    -4.3276    -4.9096 F       
  25 H25            2.1767    -2.3588     0.7430 H       
  26 H26            0.4030    -2.4793     0.8306 H       
  27 H27            3.1925    -0.4887    -0.2438 H       
  28 H28           -2.9852    -3.5303     0.7170 H       
  29 H29            3.3418    -2.8369    -1.2753 H       
  30 H30           -0.9200    -2.6753    -1.2594 H       
  31 H31           -0.9683    -3.6533    -3.5185 H       
  32 H32            1.9964     0.3569    -2.2246 H       
  33 H33            1.2365     1.6339    -1.2427 H       
  34 H34            4.2287     1.2858    -1.7414 H       
  35 H35            3.1856     2.5414    -2.4517 H       
  36 H36            4.6830     1.3714     0.6439 H       
  37 H37            3.9571     2.6867     1.5990 H       
  38 H38            1.7124     1.7234     1.2558 H       
  39 H39            2.7964     0.5075     1.9759 H       
  40 H40           -4.9989    -1.2622     1.9600 H       
  41 H41           -5.1350    -0.4001     0.4088 H       
  42 H42           -5.2365    -2.1766     0.4515 H       
@<TRIPOS>BOND
   1    1    2 1
   2    1    8 1
   3    1   11 2
   4    2    3 am
   5    2    7 2
   6    3    4 1
   7    3    6 1
   8    4    5 1
   9    4   25 1
  10    4   26 1
  11    5   12 ar
  12    5   13 ar
  13    6   17 1
  14    6   21 1
  15    6   27 1
  16    8    9 2
  17    9   10 1
  18    9   28 1
  19   10   11 1
  20   10   23 1
  21   12   16 ar
  22   12   29 1
  23   13   14 ar
  24   13   30 1
  25   14   15 ar
  26   14   31 1
  27   15   16 ar
  28   15   24 1
  29   16   22 1
  30   17   18 1
  31   17   32 1
  32   17   33 1
  33   18   19 1
  34   18   34 1
  35   18   35 1
  36   19   20 1
  37   20   21 1
  38   20   36 1
  39   20   37 1
  40   21   38 1
  41   21   39 1
  42   23   40 1
  43   23   41 1
  44   23   42 1

#	End of record

