#	Name: ASD02408172
#	Creating user name:	WinNT
#	Creation time:	15. 06. 2019 20:21

#	Modifying user name:	WinNT
#	Modification time:	15. 06. 2019 20:21

#	Program:	/corina/corina34_cracker 3.40 0067  02.08.2006

@<TRIPOS>MOLECULE
ASD02408172
  49   51    0    0    0
SMALL
NO_CHARGES


@<TRIPOS>ATOM
   1 C1            -0.0184     1.5028     0.0103 C.3     
   2 C2             0.0021    -0.0041     0.0020 C.ar    
   3 C3             0.0229    -0.7015     1.1951 C.ar    
   4 C4            -0.0057    -0.6889    -1.1990 C.ar    
   5 C5             0.0131    -2.0709    -1.2066 C.ar    
   6 C6             0.0400    -2.7685    -0.0132 C.ar    
   7 C7             0.0417    -2.0839     1.1875 C.ar    
   8 C8            -0.0351     0.0714    -2.4998 C.3     
   9 C9             1.3696     0.4515    -2.8913 C.2     
  10 N10            1.5636     1.1417    -4.0318 N.am    
  11 N11            2.3575     0.1057    -2.1113 N.2     
  12 C12            3.6258     0.4165    -2.4082 C.2     
  13 C13            3.9005     1.1312    -3.5859 C.2     
  14 C14            2.8080     1.4990    -4.4127 C.2     
  15 N15            4.6469     0.0411    -1.5701 N.pl3   
  16 C16            4.3514    -0.7037    -0.3435 C.3     
  17 O17            2.9896     2.1197    -5.4459 O.2     
  18 C18            5.5804    -1.5168     0.0679 C.3     
  19 C19            5.2719    -2.2945     1.3489 C.3     
  20 C20            4.9115    -1.3139     2.4667 C.3     
  21 C21            3.6825    -0.5008     2.0552 C.3     
  22 C22            3.9911     0.2770     0.7742 C.3     
  23 C23            0.0599    -4.2753    -0.0215 C.3     
  24 C24            5.2431     1.4827    -3.9387 C.1     
  25 N25            6.3082     1.7615    -4.2186 N.1     
  26 H26            1.0042     1.8801     0.0026 H       
  27 H27           -0.5455     1.8639    -0.8728 H       
  28 H28           -0.5286     1.8543     0.9071 H       
  29 H29            0.0248    -0.1666     2.1333 H       
  30 H30            0.0063    -2.6059    -2.1448 H       
  31 H31            0.0627    -2.6288     2.1197 H       
  32 H32           -0.4719    -0.5554    -3.2772 H       
  33 H33           -0.6355     0.9732    -2.3800 H       
  34 H34            0.8032     1.3834    -4.5835 H       
  35 H35            5.5637     0.2689    -1.7902 H       
  36 H36            3.5128    -1.3771    -0.5204 H       
  37 H37            5.8372    -2.2154    -0.7284 H       
  38 H38            6.4191    -0.8433     0.2449 H       
  39 H39            4.4333    -2.9679     1.1720 H       
  40 H40            6.1475    -2.8738     1.6420 H       
  41 H41            4.6917    -1.8680     3.3792 H       
  42 H42            5.7502    -0.6405     2.6436 H       
  43 H43            2.8439    -1.1742     1.8783 H       
  44 H44            3.4258     0.1978     2.8515 H       
  45 H45            4.8297     0.9504     0.9511 H       
  46 H46            3.1155     0.8562     0.4811 H       
  47 H47            1.0922    -4.6249    -0.0387 H       
  48 H48           -0.4357    -4.6502     0.8740 H       
  49 H49           -0.4622    -4.6407    -0.9057 H       
@<TRIPOS>BOND
   1    1    2 1
   2    1   26 1
   3    1   27 1
   4    1   28 1
   5    2    3 ar
   6    2    4 ar
   7    3    7 ar
   8    3   29 1
   9    4    5 ar
  10    4    8 1
  11    5    6 ar
  12    5   30 1
  13    6    7 ar
  14    6   23 1
  15    7   31 1
  16    8    9 1
  17    8   32 1
  18    8   33 1
  19    9   10 1
  20    9   11 2
  21   10   14 am
  22   10   34 1
  23   11   12 1
  24   12   13 2
  25   12   15 1
  26   13   14 1
  27   13   24 1
  28   14   17 2
  29   15   16 1
  30   15   35 1
  31   16   18 1
  32   16   22 1
  33   16   36 1
  34   18   19 1
  35   18   37 1
  36   18   38 1
  37   19   20 1
  38   19   39 1
  39   19   40 1
  40   20   21 1
  41   20   41 1
  42   20   42 1
  43   21   22 1
  44   21   43 1
  45   21   44 1
  46   22   45 1
  47   22   46 1
  48   23   47 1
  49   23   48 1
  50   23   49 1
  51   24   25 3

#	End of record

