#	Name: ASD03331696
#	Creating user name:	WinNT
#	Creation time:	15. 06. 2019 20:39

#	Modifying user name:	WinNT
#	Modification time:	15. 06. 2019 20:39

#	Program:	/corina/corina34_cracker 3.40 0067  02.08.2006

@<TRIPOS>MOLECULE
ASD03331696
  43   46    0    0    0
SMALL
NO_CHARGES


@<TRIPOS>ATOM
   1 C1            -0.0166     1.3730     0.0096 C.ar    
   2 C2             0.0021    -0.0041     0.0020 C.ar    
   3 C3             1.2098    -0.6897    -0.0127 C.ar    
   4 C4             2.4057    -0.0061    -0.0200 C.ar    
   5 C5             1.1873     2.0799     0.0019 C.ar    
   6 C6             1.5311     3.5039     0.0063 C.2     
   7 C7             2.4101     1.3845    -0.0130 C.ar    
   8 N8             3.4136     2.3282    -0.0173 N.pl3   
   9 C9             2.8710     3.5842    -0.0061 C.2     
  10 S10            3.7943     5.0849    -0.0078 S.o2    
  11 O11            2.9455     6.0789     0.5495 O.2     
  12 O12            5.0741     4.7692     0.5230 O.2     
  13 N13            4.0362     5.5099    -1.5899 N.am    
  14 C14            2.8940     5.8650    -2.4358 C.3     
  15 C15            4.0437     6.4509    -5.9758 C.ar    
  16 C16            3.5912     5.8140    -4.8328 C.ar    
  17 C17            3.3869     6.5535    -3.6824 C.ar    
  18 N18            3.6164     7.8523    -3.6592 N.ar    
  19 C19            4.0473     8.5012    -4.7214 C.ar    
  20 C20            4.2774     7.8273    -5.9191 C.ar    
  21 C21            4.7633     8.5595    -7.1149 C.ar    
  22 C22            4.9936     9.9321    -7.0486 C.ar    
  23 C23            5.4459    10.6080    -8.1637 C.ar    
  24 C24            5.6703     9.9254    -9.3456 C.ar    
  25 C25            5.4430     8.5628    -9.4171 C.ar    
  26 C26            4.9965     7.8759    -8.3064 C.ar    
  27 Br27          -1.6256    -0.9666     0.0124 Br      
  28 H28           -0.9575     1.9032     0.0169 H       
  29 H29            1.2113    -1.7697    -0.0182 H       
  30 H30            3.3389    -0.5496    -0.0308 H       
  31 H31            0.8380     4.3321     0.0173 H       
  32 H32            4.3634     2.1316    -0.0263 H       
  33 H33            4.9341     5.5237    -1.9566 H       
  34 H34            2.3506     4.9610    -2.7108 H       
  35 H35            2.2310     6.5351    -1.8886 H       
  36 H36            4.2159     5.8971    -6.8869 H       
  37 H37            3.3995     4.7512    -4.8397 H       
  38 H38            4.2235     9.5651    -4.6636 H       
  39 H39            4.8180    10.4662    -6.1265 H       
  40 H40            5.6247    11.6719    -8.1134 H       
  41 H41            6.0240    10.4582   -10.2159 H       
  42 H42            5.6191     8.0349   -10.3427 H       
  43 H43            4.8240     6.8112    -8.3620 H       
@<TRIPOS>BOND
   1    1    2 ar
   2    1    5 ar
   3    1   28 1
   4    2    3 ar
   5    2   27 1
   6    3    4 ar
   7    3   29 1
   8    4    7 ar
   9    4   30 1
  10    5    7 ar
  11    5    6 1
  12    6    9 2
  13    6   31 1
  14    7    8 1
  15    8    9 1
  16    8   32 1
  17    9   10 1
  18   10   11 2
  19   10   12 2
  20   10   13 am
  21   13   14 1
  22   13   33 1
  23   14   17 1
  24   14   34 1
  25   14   35 1
  26   15   16 ar
  27   15   20 ar
  28   15   36 1
  29   16   17 ar
  30   16   37 1
  31   17   18 ar
  32   18   19 ar
  33   19   20 ar
  34   19   38 1
  35   20   21 1
  36   21   22 ar
  37   21   26 ar
  38   22   23 ar
  39   22   39 1
  40   23   24 ar
  41   23   40 1
  42   24   25 ar
  43   24   41 1
  44   25   26 ar
  45   25   42 1
  46   26   43 1

#	End of record

