#	Name: ASD04880162
#	Creating user name:	WinNT
#	Creation time:	15. 06. 2019 20:52

#	Modifying user name:	WinNT
#	Modification time:	15. 06. 2019 20:52

#	Program:	/corina/corina34_cracker 3.40 0067  02.08.2006

@<TRIPOS>MOLECULE
ASD04880162
  36   38    0    0    0
SMALL
NO_CHARGES


@<TRIPOS>ATOM
   1 C1            -0.0173     1.3927     0.0251 C.ar    
   2 C2            -1.2366     2.0686     0.0939 C.ar    
   3 C3            -2.4179     1.3559     0.1155 C.ar    
   4 C4            -2.3969    -0.0262     0.0696 C.ar    
   5 C5            -1.1903    -0.7048     0.0016 C.ar    
   6 C6            -0.0010    -0.0022    -0.0274 C.ar    
   7 F7            -1.1774    -2.0550    -0.0425 F       
   8 C8             1.2511     2.1509     0.0017 C.2     
   9 N9             1.2310     3.4952    -0.0927 N.am    
  10 O10            2.3129     1.5619     0.0675 O.2     
  11 N11            0.0940     4.2772    -0.2859 N.2     
  12 C12            0.3291     5.5428    -0.3430 C.2     
  13 C13            1.8116     5.7891    -0.1771 C.3     
  14 C14            2.4054     4.3773    -0.0020 C.3     
  15 C15           -0.6904     6.5893    -0.5406 C.ar    
  16 C16           -0.3241     7.9356    -0.5874 C.ar    
  17 C17           -2.0422     6.2474    -0.6900 C.ar    
  18 C18           -2.9592     7.2634    -0.8725 C.ar    
  19 C19           -2.5170     8.5813    -0.9020 C.ar    
  20 N20           -1.2333     8.8722    -0.7638 N.ar    
  21 O21           -3.4136     9.5830    -1.0814 O.3     
  22 C22           -2.9007    10.9166    -1.1029 C.3     
  23 H23           -1.2554     3.1478     0.1306 H       
  24 H24           -3.3614     1.8788     0.1688 H       
  25 H25           -3.3246    -0.5790     0.0872 H       
  26 H26            0.9391    -0.5311    -0.0808 H       
  27 H27            2.2206     6.2723    -1.0645 H       
  28 H28            2.0019     6.3929     0.7102 H       
  29 H29            2.8888     4.2824     0.9703 H       
  30 H30            3.1086     4.1547    -0.8045 H       
  31 H31            0.7142     8.2117    -0.4777 H       
  32 H32           -2.3580     5.2149    -0.6634 H       
  33 H33           -4.0085     7.0369    -0.9914 H       
  34 H34           -2.4073    11.1315    -0.1550 H       
  35 H35           -2.1829    11.0168    -1.9170 H       
  36 H36           -3.7207    11.6189    -1.2531 H       
@<TRIPOS>BOND
   1    1    2 ar
   2    1    8 1
   3    1    6 ar
   4    2    3 ar
   5    2   23 1
   6    3    4 ar
   7    3   24 1
   8    4    5 ar
   9    4   25 1
  10    5    6 ar
  11    5    7 1
  12    6   26 1
  13    8    9 am
  14    8   10 2
  15    9   11 1
  16    9   14 1
  17   11   12 2
  18   12   13 1
  19   12   15 1
  20   13   14 1
  21   13   27 1
  22   13   28 1
  23   14   29 1
  24   14   30 1
  25   15   16 ar
  26   15   17 ar
  27   16   20 ar
  28   16   31 1
  29   17   18 ar
  30   17   32 1
  31   18   19 ar
  32   18   33 1
  33   19   20 ar
  34   19   21 1
  35   21   22 1
  36   22   34 1
  37   22   35 1
  38   22   36 1

#	End of record

