#	Name: ASD03240709
#	Creating user name:	WinNT
#	Creation time:	15. 06. 2019 20:35

#	Modifying user name:	WinNT
#	Modification time:	15. 06. 2019 20:35

#	Program:	/corina/corina34_cracker 3.40 0067  02.08.2006

@<TRIPOS>MOLECULE
ASD03240709
  71   77    0    0    0
SMALL
NO_CHARGES


@<TRIPOS>ATOM
   1 C1            -0.0167     1.3833     0.0096 C.ar    
   2 C2             0.0021    -0.0041     0.0020 C.ar    
   3 C3             1.2081    -0.6771    -0.0131 C.ar    
   4 C4             2.3962     0.0305    -0.0202 C.ar    
   5 C5             2.3801     1.4128    -0.0126 C.ar    
   6 C6             1.1763     2.0908     0.0021 C.ar    
   7 O7            -1.2021     2.0479     0.0189 O.3     
   8 N8             2.7427    -4.6431    -0.0532 N.3     
   9 C9             2.0180    -4.2072    -1.2537 C.3     
  10 C10            1.9460    -2.6787    -1.2808 C.3     
  11 C11            1.2293    -2.1840    -0.0214 C.3     
  12 C12            1.9767    -2.6920     1.2146 C.3     
  13 C13            2.0479    -4.2201     1.1694 C.3     
  14 C14            2.9520    -6.0970    -0.0635 C.3     
  15 C15            3.9011    -6.4758     1.0441 C.ar    
  16 C16            3.4070    -6.7878     2.2981 C.ar    
  17 C17            4.2708    -7.1358     3.3162 C.ar    
  18 C18            5.6449    -7.1726     3.0790 C.ar    
  19 C19            6.1370    -6.8570     1.8125 C.ar    
  20 C20            5.2626    -6.5156     0.8012 C.ar    
  21 C21            7.6627    -7.4417     8.7321 C.2     
  22 N22            8.7920    -8.1406     8.5203 N.2     
  23 C23            9.1457    -8.5424     7.3268 C.2     
  24 C24            8.2882    -8.2238     6.1871 C.ar    
  25 C25            7.1047    -7.4897     6.4159 C.ar    
  26 N26            6.8140    -7.1079     7.7116 N.pl3   
  27 C27            8.6126    -8.6260     4.8874 C.ar    
  28 C28            7.7397    -8.2789     3.8611 C.ar    
  29 C29            6.5776    -7.5448     4.1674 C.ar    
  30 N30            6.3032    -7.1816     5.4115 N.ar    
  31 N31            5.7450    -6.3893     8.2602 N.2     
  32 C32            5.9258    -6.2853     9.5550 C.2     
  33 C33            7.1123    -6.9223     9.8960 C.2     
  34 C34            8.0296    -8.6763     2.4625 C.ar    
  35 C35            9.2831    -8.4218     1.9083 C.ar    
  36 C36            9.5474    -8.7944     0.6061 C.ar    
  37 C37            8.5712    -9.4191    -0.1491 C.ar    
  38 C38            7.3254    -9.6738     0.3954 C.ar    
  39 C39            7.0517    -9.3113     1.6986 C.ar    
  40 C40            5.0002    -5.5841    10.5155 C.3     
  41 H41           -0.9255    -0.5572     0.0083 H       
  42 H42            3.3382    -0.4976    -0.0313 H       
  43 H43            3.3093     1.9633    -0.0182 H       
  44 H44            1.1643     3.1708     0.0076 H       
  45 H45           -1.5410     2.2354     0.9049 H       
  46 H46            2.5405    -4.5620    -2.1421 H       
  47 H47            1.0086    -4.6181    -1.2377 H       
  48 H48            2.9549    -2.2673    -1.3107 H       
  49 H49            1.3945    -2.3560    -2.1639 H       
  50 H50            0.2072    -2.5627    -0.0114 H       
  51 H51            2.9862    -2.2808     1.2240 H       
  52 H52            1.4472    -2.3788     2.1144 H       
  53 H53            1.0383    -4.6310     1.1740 H       
  54 H54            2.5920    -4.5843     2.0409 H       
  55 H55            1.9981    -6.6025     0.0867 H       
  56 H56            3.3748    -6.3965    -1.0225 H       
  57 H57            2.3429    -6.7586     2.4806 H       
  58 H58            3.8839    -7.3789     4.2948 H       
  59 H59            7.1999    -6.8833     1.6229 H       
  60 H60            5.6420    -6.2749    -0.1809 H       
  61 H61           10.0586    -9.1021     7.1856 H       
  62 H62            9.5127    -9.1879     4.6866 H       
  63 H63            7.5306    -7.0009    10.8886 H       
  64 H64           10.0458    -7.9335     2.4968 H       
  65 H65           10.5182    -8.5977     0.1757 H       
  66 H66            8.7824    -9.7086    -1.1679 H       
  67 H67            6.5669   -10.1615    -0.1990 H       
  68 H68            6.0801    -9.5147     2.1241 H       
  69 H69            4.2609    -6.2921    10.8900 H       
  70 H70            5.5768    -5.1854    11.3501 H       
  71 H71            4.4933    -4.7676    10.0011 H       
@<TRIPOS>BOND
   1    1    2 ar
   2    1    6 ar
   3    1    7 1
   4    2    3 ar
   5    2   41 1
   6    3    4 ar
   7    3   11 1
   8    4    5 ar
   9    4   42 1
  10    5    6 ar
  11    5   43 1
  12    6   44 1
  13    7   45 1
  14    8    9 1
  15    8   13 1
  16    8   14 1
  17    9   10 1
  18    9   46 1
  19    9   47 1
  20   10   11 1
  21   10   48 1
  22   10   49 1
  23   11   12 1
  24   11   50 1
  25   12   13 1
  26   12   51 1
  27   12   52 1
  28   13   53 1
  29   13   54 1
  30   14   15 1
  31   14   55 1
  32   14   56 1
  33   15   16 ar
  34   15   20 ar
  35   16   17 ar
  36   16   57 1
  37   17   18 ar
  38   17   58 1
  39   18   19 ar
  40   18   29 1
  41   19   20 ar
  42   19   59 1
  43   20   60 1
  44   21   22 1
  45   21   26 1
  46   21   33 2
  47   22   23 2
  48   23   24 1
  49   23   61 1
  50   24   25 ar
  51   24   27 ar
  52   25   26 1
  53   25   30 ar
  54   26   31 1
  55   27   28 ar
  56   27   62 1
  57   28   29 ar
  58   28   34 1
  59   29   30 ar
  60   31   32 2
  61   32   33 1
  62   32   40 1
  63   33   63 1
  64   34   35 ar
  65   34   39 ar
  66   35   36 ar
  67   35   64 1
  68   36   37 ar
  69   36   65 1
  70   37   38 ar
  71   37   66 1
  72   38   39 ar
  73   38   67 1
  74   39   68 1
  75   40   69 1
  76   40   70 1
  77   40   71 1

#	End of record

