#	Name: ASD01140246
#	Creating user name:	WinNT
#	Creation time:	15. 06. 2019 19:00

#	Modifying user name:	WinNT
#	Modification time:	15. 06. 2019 19:00

#	Program:	/corina/corina34_cracker 3.40 0067  02.08.2006

@<TRIPOS>MOLECULE
ASD01140246
  36   39    0    0    0
SMALL
NO_CHARGES


@<TRIPOS>ATOM
   1 C1             0.2654     1.7654     0.5089 C.ar    
   2 C2             0.1332     0.3864     0.5085 C.ar    
   3 C3             1.2396    -0.4161     0.3432 C.ar    
   4 C4             2.5124     0.1500     0.1727 C.ar    
   5 C5             2.6325     1.5405     0.1504 C.ar    
   6 C6             1.5077     2.3383     0.3306 C.ar    
   7 C7             3.6583    -0.7585     0.0576 C.2     
   8 N8             4.6671    -0.6589    -0.7349 N.2     
   9 C9             4.7851     0.4392    -1.7011 C.3     
  10 C10            4.8248     1.7305    -0.9257 C.2     
  11 N11            3.8581     2.1720    -0.0827 N.pl3   
  12 C12            4.2898     3.3433     0.4588 C.2     
  13 C13            5.8153     2.6638    -0.9251 C.2     
  14 N14            5.4504     3.6412    -0.0526 N.2     
  15 C15            3.6539    -1.9311     0.9629 C.ar    
  16 C16            4.3577    -3.0848     0.6178 C.ar    
  17 C17            2.9507    -1.8839     2.1665 C.ar    
  18 C18            2.9508    -2.9791     3.0057 C.ar    
  19 C19            3.6468    -4.1224     2.6556 C.ar    
  20 C20            4.3502    -4.1736     1.4653 C.ar    
  21 Br21          -1.5729    -0.3965     0.7365 Br      
  22 C22            7.0524     2.6229    -1.7212 C.2     
  23 O23            7.2632     1.6882    -2.4690 O.2     
  24 O24            7.9516     3.6220    -1.6211 O.3     
  25 H25           -0.6041     2.3915     0.6442 H       
  26 H26            1.1271    -1.4903     0.3450 H       
  27 H27            1.6073     3.4137     0.3302 H       
  28 H28            5.7030     0.3265    -2.2781 H       
  29 H29            3.9247     0.4365    -2.3703 H       
  30 H30            3.7571     3.9302     1.1924 H       
  31 H31            4.9071    -3.1259    -0.3111 H       
  32 H32            2.4076    -0.9917     2.4412 H       
  33 H33            2.4066    -2.9438     3.9379 H       
  34 H34            3.6445    -4.9768     3.3161 H       
  35 H35            4.8914    -5.0689     1.1973 H       
  36 H36            8.7489     3.5511    -2.1636 H       
@<TRIPOS>BOND
   1    1    2 ar
   2    1    6 ar
   3    1   25 1
   4    2    3 ar
   5    2   21 1
   6    3    4 ar
   7    3   26 1
   8    4    5 ar
   9    4    7 1
  10    5    6 ar
  11    5   11 1
  12    6   27 1
  13    7    8 2
  14    7   15 1
  15    8    9 1
  16    9   10 1
  17    9   28 1
  18    9   29 1
  19   10   11 1
  20   10   13 2
  21   11   12 1
  22   12   14 2
  23   12   30 1
  24   13   14 1
  25   13   22 1
  26   15   16 ar
  27   15   17 ar
  28   16   20 ar
  29   16   31 1
  30   17   18 ar
  31   17   32 1
  32   18   19 ar
  33   18   33 1
  34   19   20 ar
  35   19   34 1
  36   20   35 1
  37   22   23 2
  38   22   24 1
  39   24   36 1

#	End of record

