#	Name: ASD01882137
#	Creating user name:	WinNT
#	Creation time:	15. 06. 2019 19:44

#	Modifying user name:	WinNT
#	Modification time:	15. 06. 2019 19:44

#	Program:	/corina/corina34_cracker 3.40 0067  02.08.2006

@<TRIPOS>MOLECULE
ASD01882137
  34   34    0    0    0
SMALL
NO_CHARGES


@<TRIPOS>ATOM
   1 K1             0.0000     0.0000     0.0000 Du      
   2 B2             6.9863     8.5162     6.1076 Du      
   3 F3             7.2359     7.1735     5.9982 F       
   4 F4             8.1725     9.1947     6.2044 F       
   5 F5             6.3038     8.9455     5.0000 F       
   6 C6             6.1084     8.7898     7.4132 C.3     
   7 N7             6.7326     8.1332     8.5695 N.3     
   8 C8             8.1798     8.3812     8.5976 C.3     
   9 C9             8.7719     7.8082     9.8873 C.3     
  10 C10            8.4916     6.3041     9.9476 C.3     
  11 C11            6.9804     6.0708     9.8679 C.3     
  12 C12            6.4402     6.6942     8.5788 C.3     
  13 C13            6.0269    10.2739     7.6618 C.ar    
  14 C14            6.4860    11.1610     6.7062 C.ar    
  15 C15            6.4113    12.5224     6.9342 C.ar    
  16 C16            5.8770    12.9967     8.1176 C.ar    
  17 C17            5.4171    12.1096     9.0728 C.ar    
  18 C18            5.4878    10.7483     8.8430 C.ar    
  19 H19            5.1049     8.3904     7.2665 H       
  20 H20            8.6473     7.9004     7.7384 H       
  21 H21            8.3651     9.4546     8.5585 H       
  22 H22            9.8484     7.9786     9.9005 H       
  23 H23            8.3146     8.2983    10.7468 H       
  24 H24            8.9814     5.8084     9.1094 H       
  25 H25            8.8737     5.8996    10.8849 H       
  26 H26            6.7770     5.0000     9.8673 H       
  27 H27            6.4950     6.5336    10.7271 H       
  28 H28            5.3621     6.5423     8.5260 H       
  29 H29            6.9159     6.2214     7.7197 H       
  30 H30            6.9034    10.7905     5.7816 H       
  31 H31            6.7707    13.2154     6.1879 H       
  32 H32            5.8193    14.0603     8.2961 H       
  33 H33            5.0000    12.4802     9.9976 H       
  34 H34            5.1251    10.0554     9.5877 H       
@<TRIPOS>BOND
   1    2    3 1
   2    2    4 1
   3    2    5 1
   4    2    6 1
   5    6    7 1
   6    6   13 1
   7    6   19 1
   8    7    8 1
   9    7   12 1
  10    8    9 1
  11    8   20 1
  12    8   21 1
  13    9   10 1
  14    9   22 1
  15    9   23 1
  16   10   11 1
  17   10   24 1
  18   10   25 1
  19   11   12 1
  20   11   26 1
  21   11   27 1
  22   12   28 1
  23   12   29 1
  24   13   14 ar
  25   13   18 ar
  26   14   15 ar
  27   14   30 1
  28   15   16 ar
  29   15   31 1
  30   16   17 ar
  31   16   32 1
  32   17   18 ar
  33   17   33 1
  34   18   34 1

#	End of record

