#	Name: ASD01410591
#	Creating user name:	WinNT
#	Creation time:	15. 06. 2019 19:18

#	Modifying user name:	WinNT
#	Modification time:	15. 06. 2019 19:18

#	Program:	/corina/corina34_cracker 3.40 0067  02.08.2006

@<TRIPOS>MOLECULE
ASD01410591
  68   70    0    0    0
SMALL
NO_CHARGES


@<TRIPOS>ATOM
   1 C1             3.5164     0.3391    -2.3037 C.2     
   2 C2             2.9810    -0.8722    -1.9944 C.2     
   3 O3             2.5781    -1.2410    -0.7552 O.3     
   4 C4             1.9843    -2.4555    -0.6122 C.ar    
   5 C5             2.7390    -3.6153    -0.7434 C.ar    
   6 C6             2.1460    -4.8534    -0.6007 C.ar    
   7 C7             0.7891    -4.9485    -0.3246 C.ar    
   8 C8             0.0216    -3.7815    -0.1905 C.ar    
   9 C9             0.6322    -2.5330    -0.3312 C.ar    
  10 N10            0.1907    -6.1994    -0.1815 N.am    
  11 C11            0.1194    -6.7772     1.0340 C.2     
  12 C12           -0.3607    -6.8859    -1.3524 C.3     
  13 O13           -0.3229    -7.9009     1.1463 O.2     
  14 C14            0.5892    -6.0270     2.2537 C.3     
  15 C15            1.2065    -7.0098     3.2506 C.3     
  16 C16            1.6834    -6.2481     4.4889 C.3     
  17 C17            0.4946    -5.5394     5.1410 C.3     
  18 C18           -0.1227    -4.5566     4.1441 C.3     
  19 C19           -0.5997    -5.3183     2.9058 C.3     
  20 C20            0.9715    -4.7778     6.3793 C.3     
  21 C21           -0.3499    -5.9366    -2.5522 C.3     
  22 O22            0.3715    -9.0644    -0.6051 O.3     
  23 C23            0.4899    -8.1176    -1.6689 C.3     
  24 C24            1.1314   -10.2584    -0.8025 C.3     
  25 O25           -1.2367    -4.8440    -2.3032 O.3     
  26 C26           -1.3011    -3.8934    -3.3682 C.3     
  27 S27            2.8852    -1.8638    -3.3794 S.3     
  28 C28            3.5849    -0.6072    -4.3901 C.2     
  29 C29            3.8535     0.4984    -3.6197 C.2     
  30 C30            3.8314    -0.7165    -5.7701 C.2     
  31 O31            4.3211     0.2165    -6.3757 O.2     
  32 C32            3.4884    -1.9906    -6.4982 C.3     
  33 C33           -1.4201    -3.8724     0.1021 C.2     
  34 O34           -1.9306    -4.9551     0.3109 O.2     
  35 O35           -2.1721    -2.7547     0.1381 O.3     
  36 H36            3.6602     1.1167    -1.5681 H       
  37 H37            3.7952    -3.5473    -0.9586 H       
  38 H38            2.7390    -5.7500    -0.7044 H       
  39 H39            0.0481    -1.6303    -0.2294 H       
  40 H40           -1.3847    -7.1954    -1.1432 H       
  41 H41            1.3361    -5.2890     1.9610 H       
  42 H42            0.4595    -7.7477     3.5433 H       
  43 H43            2.0534    -7.5147     2.7860 H       
  44 H44            2.1232    -6.9483     5.1991 H       
  45 H45            2.4304    -5.5102     4.1962 H       
  46 H46           -0.2524    -6.2773     5.4337 H       
  47 H47           -0.9697    -4.0517     4.6087 H       
  48 H48            0.6242    -3.8187     3.8514 H       
  49 H49           -1.0395    -4.6181     2.1956 H       
  50 H50           -1.3466    -6.0562     3.1985 H       
  51 H51            1.7185    -4.0398     6.0866 H       
  52 H52            0.1246    -4.2729     6.8439 H       
  53 H53            1.4113    -5.4779     7.0895 H       
  54 H54            0.6602    -5.5569    -2.7060 H       
  55 H55           -0.6759    -6.4733    -3.4431 H       
  56 H56            0.1429    -8.5698    -2.5980 H       
  57 H57            1.5331    -7.8208    -1.7767 H       
  58 H58            2.1879   -10.0060    -0.8923 H       
  59 H59            0.9881   -10.9250     0.0479 H       
  60 H60            0.7977   -10.7550    -1.7136 H       
  61 H61           -1.6468    -4.3877    -4.2760 H       
  62 H62           -1.9949    -3.0960    -3.1019 H       
  63 H63           -0.3107    -3.4713    -3.5389 H       
  64 H64            4.2880     1.4048    -4.0148 H       
  65 H65            2.4201    -2.1859    -6.4053 H       
  66 H66            3.7488    -1.8884    -7.5517 H       
  67 H67            4.0483    -2.8190    -6.0643 H       
  68 H68           -3.1127    -2.8646     0.3341 H       
@<TRIPOS>BOND
   1    1    2 2
   2    1   29 1
   3    1   36 1
   4    2    3 1
   5    2   27 1
   6    3    4 1
   7    4    5 ar
   8    4    9 ar
   9    5    6 ar
  10    5   37 1
  11    6    7 ar
  12    6   38 1
  13    7    8 ar
  14    7   10 1
  15    8    9 ar
  16    8   33 1
  17    9   39 1
  18   10   11 am
  19   10   12 1
  20   11   13 2
  21   11   14 1
  22   12   21 1
  23   12   23 1
  24   12   40 1
  25   14   15 1
  26   14   19 1
  27   14   41 1
  28   15   16 1
  29   15   42 1
  30   15   43 1
  31   16   17 1
  32   16   44 1
  33   16   45 1
  34   17   18 1
  35   17   20 1
  36   17   46 1
  37   18   19 1
  38   18   47 1
  39   18   48 1
  40   19   49 1
  41   19   50 1
  42   20   51 1
  43   20   52 1
  44   20   53 1
  45   21   25 1
  46   21   54 1
  47   21   55 1
  48   22   23 1
  49   22   24 1
  50   23   56 1
  51   23   57 1
  52   24   58 1
  53   24   59 1
  54   24   60 1
  55   25   26 1
  56   26   61 1
  57   26   62 1
  58   26   63 1
  59   27   28 1
  60   28   29 2
  61   28   30 1
  62   29   64 1
  63   30   31 2
  64   30   32 1
  65   32   65 1
  66   32   66 1
  67   32   67 1
  68   33   34 2
  69   33   35 1
  70   35   68 1

#	End of record

