#	Name: ASD03091323
#	Creating user name:	WinNT
#	Creation time:	15. 06. 2019 20:30

#	Modifying user name:	WinNT
#	Modification time:	15. 06. 2019 20:30

#	Program:	/corina/corina34_cracker 3.40 0067  02.08.2006

@<TRIPOS>MOLECULE
ASD03091323
  44   46    0    0    0
SMALL
NO_CHARGES


@<TRIPOS>ATOM
   1 C1            -0.0167     1.3806     0.0096 C.ar    
   2 C2             0.0021    -0.0041     0.0020 C.ar    
   3 C3             1.2082    -0.6780    -0.0131 C.ar    
   4 C4             2.3961     0.0295    -0.0202 C.ar    
   5 C5             2.3786     1.4116    -0.0126 C.ar    
   6 C6             1.1733     2.0880     0.0021 C.ar    
   7 C7             3.6742     2.1813    -0.0203 C.3     
   8 C8             3.9242     3.1319    -1.1929 C.3     
   9 C9             3.5981     3.6946     0.1920 C.3     
  10 C10            2.8560     3.2267    -2.2517 C.2     
  11 N11            3.0240     4.0483    -3.3068 N.am    
  12 O12            1.8452     2.5636    -2.1544 O.2     
  13 C13            1.9856     4.1405    -4.3361 C.3     
  14 C14            2.6047     4.5864    -5.6357 C.ar    
  15 C15            3.5901     5.5564    -5.6338 C.ar    
  16 C16            2.1904     4.0208    -6.8274 C.ar    
  17 C17            2.7567     4.4275    -8.0200 C.ar    
  18 C18            3.7415     5.4046    -8.0213 C.ar    
  19 C19            4.1592     5.9668    -6.8238 C.ar    
  20 C20            0.9256     5.1547    -3.9017 C.3     
  21 O21            1.5105     6.4570    -3.8370 O.3     
  22 O22            4.3004     5.8060    -9.1932 O.3     
  23 C23            5.3085     6.8161    -9.1187 C.3     
  24 F24           -1.1955     2.0406     0.0188 F       
  25 H25           -0.9257    -0.5570     0.0083 H       
  26 H26            1.2231    -1.7579    -0.0191 H       
  27 H27            3.3384    -0.4981    -0.0313 H       
  28 H28            1.1599     3.1679     0.0076 H       
  29 H29            4.5349     1.6572     0.3950 H       
  30 H30            4.9495     3.2333    -1.5488 H       
  31 H31            2.6110     4.1335     0.3372 H       
  32 H32            4.4088     4.1663     0.7472 H       
  33 H33            3.8325     4.5787    -3.3846 H       
  34 H34            1.5204     3.1641    -4.4713 H       
  35 H35            3.9149     5.9937    -4.7013 H       
  36 H36            1.4237     3.2602    -6.8258 H       
  37 H37            2.4332     3.9849    -8.9505 H       
  38 H38            4.9286     6.7247    -6.8218 H       
  39 H39            0.1090     5.1586    -4.6237 H       
  40 H40            0.5408     4.8801    -2.9195 H       
  41 H41            0.8945     7.1518    -3.5674 H       
  42 H42            4.8882     7.7167    -8.6711 H       
  43 H43            6.1366     6.4586    -8.5067 H       
  44 H44            5.6698     7.0435   -10.1217 H       
@<TRIPOS>BOND
   1    1    2 ar
   2    1    6 ar
   3    1   24 1
   4    2    3 ar
   5    2   25 1
   6    3    4 ar
   7    3   26 1
   8    4    5 ar
   9    4   27 1
  10    5    6 ar
  11    5    7 1
  12    6   28 1
  13    7    8 1
  14    7    9 1
  15    7   29 1
  16    8    9 1
  17    8   10 1
  18    8   30 1
  19    9   31 1
  20    9   32 1
  21   10   11 am
  22   10   12 2
  23   11   13 1
  24   11   33 1
  25   13   14 1
  26   13   20 1
  27   13   34 1
  28   14   16 ar
  29   14   15 ar
  30   15   19 ar
  31   15   35 1
  32   16   17 ar
  33   16   36 1
  34   17   18 ar
  35   17   37 1
  36   18   19 ar
  37   18   22 1
  38   19   38 1
  39   20   21 1
  40   20   39 1
  41   20   40 1
  42   21   41 1
  43   22   23 1
  44   23   42 1
  45   23   43 1
  46   23   44 1

#	End of record

