#	Name: ASD01720160
#	Creating user name:	WinNT
#	Creation time:	15. 06. 2019 19:23

#	Modifying user name:	WinNT
#	Modification time:	15. 06. 2019 19:23

#	Program:	/corina/corina34_cracker 3.40 0067  02.08.2006

@<TRIPOS>MOLECULE
ASD01720160
  52   55    0    0    0
SMALL
NO_CHARGES


@<TRIPOS>ATOM
   1 C1            -0.0179     1.3873     0.0344 C.ar    
   2 C2             0.0006    -0.0034     0.0319 C.ar    
   3 C3             1.2115    -0.6631     0.0149 C.ar    
   4 C4             2.4054     0.0453     0.0003 C.ar    
   5 C5             2.4082     1.4246     0.0029 C.ar    
   6 C6             1.1984     2.1093     0.0195 C.ar    
   7 C7            -1.2621     2.1692     0.0460 C.2     
   8 C8             1.1137     3.5787     0.0224 C.2     
   9 N9            -0.0654     4.1516     0.0385 N.2     
  10 N10           -1.1752     3.5153     0.0470 N.am    
  11 O11           -2.3460     1.6150     0.0540 O.2     
  12 C12           -2.4185     4.2902     0.0585 C.3     
  13 C13           -2.8327     4.5540     1.4833 C.ar    
  14 C14            2.3417     4.3975     0.0079 C.2     
  15 O15            3.4316     3.8587    -0.0066 O.2     
  16 N16            2.2549     5.7425     0.0107 N.am    
  17 C17            3.4144     6.5177     0.1097 C.ar    
  18 C18            3.5004     7.7305    -0.5623 C.ar    
  19 C19            4.6469     8.4936    -0.4624 C.ar    
  20 C20            5.7088     8.0517     0.3056 C.ar    
  21 C21            5.6266     6.8449     0.9754 C.ar    
  22 C22            4.4803     6.0797     0.8847 C.ar    
  23 C23           -3.6513     3.6562     2.1426 C.ar    
  24 C24           -2.3895     5.6910     2.1327 C.ar    
  25 C25           -2.7695     5.9330     3.4395 C.ar    
  26 C26           -3.5931     5.0383     4.0968 C.ar    
  27 C27           -4.0313     3.8982     3.4495 C.ar    
  28 S28            4.7573    10.0318    -1.3148 S.o2    
  29 O29            6.1426    10.2950    -1.4898 O.2     
  30 O30            3.8375     9.9585    -2.3955 O.2     
  31 N31            4.1845    11.2013    -0.2919 N.am    
  32 C32            4.8990    11.5008     0.9515 C.3     
  33 H33           -0.9242    -0.5612     0.0436 H       
  34 H34            1.2314    -1.7429     0.0132 H       
  35 H35            3.3433    -0.4901    -0.0130 H       
  36 H36            3.3416     1.9677    -0.0079 H       
  37 H37           -2.2604     5.2383    -0.4554 H       
  38 H38           -3.2019     3.7277    -0.4494 H       
  39 H39            1.3881     6.1727    -0.0560 H       
  40 H40            2.6716     8.0760    -1.1625 H       
  41 H41            6.6044     8.6505     0.3821 H       
  42 H42            6.4578     6.5026     1.5740 H       
  43 H43            4.4149     5.1394     1.4119 H       
  44 H44           -3.9943     2.7658     1.6366 H       
  45 H45           -1.7461     6.3900     1.6191 H       
  46 H46           -2.4227     6.8210     3.9471 H       
  47 H47           -3.8897     5.2272     5.1180 H       
  48 H48           -4.6711     3.1969     3.9645 H       
  49 H49            3.3760    11.6881    -0.5159 H       
  50 H50            4.9399    10.6054     1.5718 H       
  51 H51            5.9124    11.8279     0.7185 H       
  52 H52            4.3765    12.2919     1.4894 H       
@<TRIPOS>BOND
   1    1    2 ar
   2    1    6 ar
   3    1    7 1
   4    2    3 ar
   5    2   33 1
   6    3    4 ar
   7    3   34 1
   8    4    5 ar
   9    4   35 1
  10    5    6 ar
  11    5   36 1
  12    6    8 1
  13    7   10 am
  14    7   11 2
  15    8    9 2
  16    8   14 1
  17    9   10 1
  18   10   12 1
  19   12   13 1
  20   12   37 1
  21   12   38 1
  22   13   24 ar
  23   13   23 ar
  24   14   15 2
  25   14   16 am
  26   16   17 1
  27   16   39 1
  28   17   18 ar
  29   17   22 ar
  30   18   19 ar
  31   18   40 1
  32   19   20 ar
  33   19   28 1
  34   20   21 ar
  35   20   41 1
  36   21   22 ar
  37   21   42 1
  38   22   43 1
  39   23   27 ar
  40   23   44 1
  41   24   25 ar
  42   24   45 1
  43   25   26 ar
  44   25   46 1
  45   26   27 ar
  46   26   47 1
  47   27   48 1
  48   28   29 2
  49   28   30 2
  50   28   31 am
  51   31   32 1
  52   31   49 1
  53   32   50 1
  54   32   51 1
  55   32   52 1

#	End of record

