#	Name: ASD01916412
#	Creating user name:	WinNT
#	Creation time:	15. 06. 2019 20:07

#	Modifying user name:	WinNT
#	Modification time:	15. 06. 2019 20:07

#	Program:	/corina/corina34_cracker 3.40 0067  02.08.2006

@<TRIPOS>MOLECULE
ASD01916412
  32   34    0    0    0
SMALL
NO_CHARGES


@<TRIPOS>ATOM
   1 N1            -0.0169     1.3954     0.0097 N.2     
   2 N2             0.0021    -0.0041     0.0020 N.pl3   
   3 C3             1.2675    -0.4441    -0.0124 C.2     
   4 C4             2.1010     0.6586    -0.0145 C.ar    
   5 C5             3.5002     0.8488    -0.0272 C.ar    
   6 C6             4.0040     2.1098    -0.0256 C.ar    
   7 C7             3.1732     3.2321    -0.0112 C.ar    
   8 C8             1.8213     3.1213     0.0015 C.ar    
   9 C9             1.2261     1.8413     0.0002 C.ar    
  10 C10           -1.1861    -0.8611     0.0092 C.3     
  11 C11           -2.0722    -0.4944     1.2013 C.3     
  12 C12           -3.2661    -1.3555     1.2085 C.1     
  13 C13           -4.2182    -2.0423     1.2143 C.1     
  14 C14           -5.3796    -2.8800     1.2213 C.ar    
  15 C15           -6.3380    -2.7264     2.2238 C.ar    
  16 C16           -7.4544    -3.5434     2.2167 C.ar    
  17 C17           -7.5779    -4.4886     1.2076 C.ar    
  18 C18           -6.5902    -4.5869     0.2450 C.ar    
  19 N19           -5.5389    -3.7934     0.2705 N.ar    
  20 Cl20           4.5685    -0.5195    -0.0442 Cl      
  21 H21            1.5809    -1.4776    -0.0206 H       
  22 H22            5.0750     2.2483    -0.0354 H       
  23 H23            3.6194     4.2156    -0.0098 H       
  24 H24            1.2038     4.0073     0.0122 H       
  25 H25           -1.7438    -0.7167    -0.9161 H       
  26 H26           -0.8810    -1.9044     0.0906 H       
  27 H27           -1.5145    -0.6387     2.1266 H       
  28 H28           -2.3773     0.5489     1.1199 H       
  29 H29           -6.2099    -1.9807     2.9944 H       
  30 H30           -8.2129    -3.4482     2.9797 H       
  31 H31           -8.4376    -5.1415     1.1747 H       
  32 H32           -6.6838    -5.3217    -0.5409 H       
@<TRIPOS>BOND
   1    1    2 1
   2    1    9 2
   3    2    3 1
   4    2   10 1
   5    3    4 2
   6    3   21 1
   7    4    5 ar
   8    4    9 ar
   9    5    6 ar
  10    5   20 1
  11    6    7 ar
  12    6   22 1
  13    7    8 ar
  14    7   23 1
  15    8    9 ar
  16    8   24 1
  17   10   11 1
  18   10   25 1
  19   10   26 1
  20   11   12 1
  21   11   27 1
  22   11   28 1
  23   12   13 3
  24   13   14 1
  25   14   15 ar
  26   14   19 ar
  27   15   16 ar
  28   15   29 1
  29   16   17 ar
  30   16   30 1
  31   17   18 ar
  32   17   31 1
  33   18   19 ar
  34   18   32 1

#	End of record

