#	Name: ASD01880552
#	Creating user name:	WinNT
#	Creation time:	15. 06. 2019 19:40

#	Modifying user name:	WinNT
#	Modification time:	15. 06. 2019 19:40

#	Program:	/corina/corina34_cracker 3.40 0067  02.08.2006

@<TRIPOS>MOLECULE
ASD01880552
  51   54    0    0    0
SMALL
NO_CHARGES


@<TRIPOS>ATOM
   1 N1            -0.0116     1.2869    -0.2163 N.ar    
   2 C2             0.0406    -0.0293    -0.2358 C.ar    
   3 N3             1.1660    -0.6837    -0.0306 N.ar    
   4 C4             2.2994    -0.0361     0.2055 C.ar    
   5 C5             2.2919     1.3468     0.2353 C.ar    
   6 C6             1.0830     2.0072     0.0139 C.ar    
   7 C7             3.5576     2.1205     0.5007 C.3     
   8 O8             4.2814     2.2833    -0.7207 O.3     
   9 C9             5.4540     2.9633    -0.6560 C.ar    
  10 C10            6.2091     3.1579    -1.8085 C.ar    
  11 C11            7.3949     3.8463    -1.7418 C.ar    
  12 C12            7.8505     4.3547    -0.5209 C.ar    
  13 C13            7.0881     4.1568     0.6336 C.ar    
  14 C14            5.8968     3.4696     0.5601 C.ar    
  15 C15            8.4290     4.2244    -2.7729 C.3     
  16 N16            9.4724     4.9648    -2.0543 N.am    
  17 C17            9.1346     5.0376    -0.7554 C.2     
  18 O18            9.7949     5.5890     0.1038 O.2     
  19 Cl19           3.7732    -0.9131     0.4744 Cl      
  20 N20            1.0234     3.3913     0.0335 N.3     
  21 C21           -0.2349     3.8560     0.6352 C.3     
  22 C22           -0.2331     5.3859     0.6913 C.3     
  23 O23           -0.0387     5.9060    -0.6267 O.3     
  24 C24            1.1777     5.4741    -1.2424 C.3     
  25 C25            1.1902     3.9450    -1.3181 C.3     
  26 C26           11.6670     7.5539    -3.7411 C.3     
  27 C27           10.4025     6.9626    -3.1149 C.3     
  28 C28           10.6832     5.5310    -2.6539 C.3     
  29 H29           -0.8643    -0.5877    -0.4249 H       
  30 H30            3.3061     3.1001     0.9073 H       
  31 H31            4.1725     1.5765     1.2177 H       
  32 H32            5.8630     2.7675    -2.7541 H       
  33 H33            7.4310     4.5448     1.5813 H       
  34 H34            5.3079     3.3173     1.4525 H       
  35 H35            8.8509     3.3277    -3.2267 H       
  36 H36            7.9806     4.8571    -3.5388 H       
  37 H37           -1.0753     3.5149     0.0306 H       
  38 H38           -0.3256     3.4549     1.6447 H       
  39 H39           -1.1874     5.7369     1.0840 H       
  40 H40            0.5749     5.7254     1.3394 H       
  41 H41            1.2437     5.8888    -2.2483 H       
  42 H42            2.0267     5.8162    -0.6506 H       
  43 H43            2.1398     3.6090    -1.7345 H       
  44 H44            0.3726     3.6054    -1.9540 H       
  45 H45           12.4690     7.5606    -3.0030 H       
  46 H46           11.9659     6.9486    -4.5969 H       
  47 H47           11.4671     8.5738    -4.0696 H       
  48 H48           10.1036     7.5679    -2.2591 H       
  49 H49            9.6005     6.9559    -3.8531 H       
  50 H50           11.4852     5.5376    -1.9158 H       
  51 H51           10.9821     4.9257    -3.5097 H       
@<TRIPOS>BOND
   1    1    2 ar
   2    1    6 ar
   3    2    3 ar
   4    2   29 1
   5    3    4 ar
   6    4    5 ar
   7    4   19 1
   8    5    6 ar
   9    5    7 1
  10    6   20 1
  11    7    8 1
  12    7   30 1
  13    7   31 1
  14    8    9 1
  15    9   10 ar
  16    9   14 ar
  17   10   11 ar
  18   10   32 1
  19   11   12 ar
  20   11   15 1
  21   12   13 ar
  22   12   17 1
  23   13   14 ar
  24   13   33 1
  25   14   34 1
  26   15   16 1
  27   15   35 1
  28   15   36 1
  29   16   17 am
  30   16   28 1
  31   17   18 2
  32   20   21 1
  33   20   25 1
  34   21   22 1
  35   21   37 1
  36   21   38 1
  37   22   23 1
  38   22   39 1
  39   22   40 1
  40   23   24 1
  41   24   25 1
  42   24   41 1
  43   24   42 1
  44   25   43 1
  45   25   44 1
  46   26   27 1
  47   26   45 1
  48   26   46 1
  49   26   47 1
  50   27   28 1
  51   27   48 1
  52   27   49 1
  53   28   50 1
  54   28   51 1

#	End of record

