#	Name: ASD04370024
#	Creating user name:	WinNT
#	Creation time:	15. 06. 2019 20:49

#	Modifying user name:	WinNT
#	Modification time:	15. 06. 2019 20:49

#	Program:	/corina/corina34_cracker 3.40 0067  02.08.2006

@<TRIPOS>MOLECULE
ASD04370024
  70   70    0    0    0
SMALL
NO_CHARGES


@<TRIPOS>ATOM
   1 C1             3.2665    -0.4331    -0.7076 C.2     
   2 C2             1.9337     0.2213    -0.9655 C.3     
   3 C3             0.9276    -0.2366     0.0924 C.3     
   4 C4            -0.4556     0.3252    -0.2424 C.3     
   5 O5             3.4224    -1.1302     0.2804 O.co2   
   6 O6             4.1875    -0.2694    -1.4897 O.co2   
   7 N7            -1.4387    -0.1875     0.7212 N.4     
   8 C8            -1.1266     0.3285     2.0607 C.3     
   9 C9            -2.7843     0.2517     0.3285 C.3     
  10 C10           -1.3882    -1.6556     0.7380 C.3     
  11 N11            1.3472     0.2508     1.4087 N.am    
  12 C12            1.5401     1.5696     1.6089 C.2     
  13 C13            2.0815     2.0603     2.9269 C.3     
  14 C14            2.2039     3.5850     2.8920 C.3     
  15 C15            2.7536     4.0833     4.2301 C.3     
  16 C16            2.8761     5.6080     4.1952 C.3     
  17 C17            3.4257     6.1062     5.5333 C.3     
  18 C18            3.5482     7.6309     5.4984 C.3     
  19 C19            4.0978     8.1292     6.8365 C.3     
  20 C20            4.2203     9.6539     6.8016 C.3     
  21 C21            4.7700    10.1521     8.1397 C.3     
  22 O22            1.2780     2.3614     0.7284 O.2     
  23 C23            4.8905    11.6539     8.1053 C.ar    
  24 C24            3.8288    12.4410     8.5115 C.ar    
  25 C25            3.9368    13.8179     8.4809 C.ar    
  26 C26            5.1119    14.4108     8.0423 C.ar    
  27 C27            6.1757    13.6188     7.6353 C.ar    
  28 C28            6.0647    12.2423     7.6731 C.ar    
  29 O29            5.2204    15.7650     8.0109 O.3     
  30 C30            6.4594    16.3060     7.5478 C.3     
  31 H31            2.0452     1.3045    -0.9162 H       
  32 H32            1.5751    -0.0624    -1.9549 H       
  33 H33            0.8841    -1.3256     0.1051 H       
  34 H34           -0.4283     1.4136    -0.1892 H       
  35 H35           -0.7388     0.0176    -1.2490 H       
  36 H36           -0.9681     1.4056     2.0073 H       
  37 H37           -1.9568     0.1163     2.7343 H       
  38 H38           -0.2232    -0.1536     2.4344 H       
  39 H39           -3.0159    -0.1312    -0.6654 H       
  40 H40           -3.5138    -0.1288     1.0435 H       
  41 H41           -2.8218     1.3410     0.3161 H       
  42 H42           -0.3897    -1.9815     1.0293 H       
  43 H43           -2.1177    -2.0361     1.4530 H       
  44 H44           -1.6198    -2.0385    -0.2560 H       
  45 H45            1.4862    -0.3756     2.1361 H       
  46 H46            1.4040     1.7685     3.7293 H       
  47 H47            3.0634     1.6209     3.1025 H       
  48 H48            2.8815     3.8769     2.0895 H       
  49 H49            1.2220     4.0245     2.7163 H       
  50 H50            2.0761     3.7915     5.0325 H       
  51 H51            3.7356     3.6439     4.4058 H       
  52 H52            3.5536     5.8998     3.3927 H       
  53 H53            1.8941     6.0474     4.0195 H       
  54 H54            2.7482     5.8144     6.3357 H       
  55 H55            4.4077     5.6668     5.7090 H       
  56 H56            4.2257     7.9228     4.6960 H       
  57 H57            2.5662     8.0704     5.3227 H       
  58 H58            3.4203     7.8374     7.6389 H       
  59 H59            5.0798     7.6898     7.0122 H       
  60 H60            4.8978     9.9457     5.9992 H       
  61 H61            3.2383    10.0933     6.6259 H       
  62 H62            4.0924     9.8603     8.9421 H       
  63 H63            5.7519     9.7127     8.3154 H       
  64 H64            2.9141    11.9790     8.8525 H       
  65 H65            3.1071    14.4323     8.7979 H       
  66 H66            7.0915    14.0779     7.2934 H       
  67 H67            6.8943    11.6253     7.3609 H       
  68 H68            7.2691    15.9621     8.1913 H       
  69 H69            6.6415    15.9738     6.5257 H       
  70 H70            6.4125    17.3947     7.5731 H       
@<TRIPOS>BOND
   1    1    2 1
   2    1    5 ar
   3    1    6 ar
   4    2    3 1
   5    2   31 1
   6    2   32 1
   7    3    4 1
   8    3   11 1
   9    3   33 1
  10    4    7 1
  11    4   34 1
  12    4   35 1
  13    7    8 1
  14    7    9 1
  15    7   10 1
  16    8   36 1
  17    8   37 1
  18    8   38 1
  19    9   39 1
  20    9   40 1
  21    9   41 1
  22   10   42 1
  23   10   43 1
  24   10   44 1
  25   11   12 am
  26   11   45 1
  27   12   13 1
  28   12   22 2
  29   13   14 1
  30   13   46 1
  31   13   47 1
  32   14   15 1
  33   14   48 1
  34   14   49 1
  35   15   16 1
  36   15   50 1
  37   15   51 1
  38   16   17 1
  39   16   52 1
  40   16   53 1
  41   17   18 1
  42   17   54 1
  43   17   55 1
  44   18   19 1
  45   18   56 1
  46   18   57 1
  47   19   20 1
  48   19   58 1
  49   19   59 1
  50   20   21 1
  51   20   60 1
  52   20   61 1
  53   21   23 1
  54   21   62 1
  55   21   63 1
  56   23   24 ar
  57   23   28 ar
  58   24   25 ar
  59   24   64 1
  60   25   26 ar
  61   25   65 1
  62   26   27 ar
  63   26   29 1
  64   27   28 ar
  65   27   66 1
  66   28   67 1
  67   29   30 1
  68   30   68 1
  69   30   69 1
  70   30   70 1

#	End of record

