#	Name: ASD01916710
#	Creating user name:	WinNT
#	Creation time:	15. 06. 2019 20:07

#	Modifying user name:	WinNT
#	Modification time:	15. 06. 2019 20:07

#	Program:	/corina/corina34_cracker 3.40 0067  02.08.2006

@<TRIPOS>MOLECULE
ASD01916710
  32   34    0    0    0
SMALL
NO_CHARGES


@<TRIPOS>ATOM
   1 O1            -0.0161     1.3382     0.0094 O.3     
   2 C2             0.0021    -0.0041     0.0020 C.2     
   3 N3             1.2258    -0.4389    -0.0120 N.2     
   4 C4             2.0701     0.6289    -0.0143 C.ar    
   5 C5             1.2611     1.7777    -0.0004 C.ar    
   6 C6             1.8430     3.0382     0.0004 C.ar    
   7 C7             3.2026     3.1672    -0.0128 C.ar    
   8 C8             4.0235     2.0326    -0.0267 C.ar    
   9 C9             3.4563     0.7607    -0.0273 C.ar    
  10 C10            5.4477     2.1805    -0.0404 C.1     
  11 N11            6.5776     2.2978    -0.0513 N.1     
  12 C12           -1.2231    -0.8815     0.0095 C.3     
  13 C13           -1.6238    -1.1857     1.4544 C.3     
  14 C14           -2.8205    -2.0428     1.4617 C.1     
  15 C15           -3.7749    -2.7264     1.4675 C.1     
  16 C16           -4.9391    -3.5602     1.4745 C.ar    
  17 C17           -5.4903    -3.9694     2.6894 C.ar    
  18 C18           -6.6151    -4.7748     2.6795 C.ar    
  19 C19           -7.1539    -5.1461     1.4552 C.ar    
  20 C20           -6.5568    -4.7046     0.2888 C.ar    
  21 N21           -5.4891    -3.9336     0.3249 N.ar    
  22 H22            1.2187     3.9194     0.0111 H       
  23 H23            3.6479     4.1512    -0.0128 H       
  24 H24            4.0865    -0.1163    -0.0376 H       
  25 H25           -2.0416    -0.3670    -0.4939 H       
  26 H26           -1.0053    -1.8141    -0.5112 H       
  27 H27           -0.8053    -1.7003     1.9578 H       
  28 H28           -1.8416    -0.2532     1.9750 H       
  29 H29           -5.0449    -3.6621     3.6241 H       
  30 H30           -7.0639    -5.1077     3.6037 H       
  31 H31           -8.0313    -5.7744     1.4140 H       
  32 H32           -6.9739    -4.9923    -0.6649 H       
@<TRIPOS>BOND
   1    1    2 1
   2    1    5 1
   3    2    3 2
   4    2   12 1
   5    3    4 1
   6    4    5 ar
   7    4    9 ar
   8    5    6 ar
   9    6    7 ar
  10    6   22 1
  11    7    8 ar
  12    7   23 1
  13    8    9 ar
  14    8   10 1
  15    9   24 1
  16   10   11 3
  17   12   13 1
  18   12   25 1
  19   12   26 1
  20   13   14 1
  21   13   27 1
  22   13   28 1
  23   14   15 3
  24   15   16 1
  25   16   17 ar
  26   16   21 ar
  27   17   18 ar
  28   17   29 1
  29   18   19 ar
  30   18   30 1
  31   19   20 ar
  32   19   31 1
  33   20   21 ar
  34   20   32 1

#	End of record

