#	Name: ASD01910173
#	Creating user name:	WinNT
#	Creation time:	15. 06. 2019 19:55

#	Modifying user name:	WinNT
#	Modification time:	15. 06. 2019 19:55

#	Program:	/corina/corina34_cracker 3.40 0067  02.08.2006

@<TRIPOS>MOLECULE
ASD01910173
  40   42    0    0    0
SMALL
NO_CHARGES


@<TRIPOS>ATOM
   1 C1             0.1649     1.6638    -0.3718 C.ar    
   2 C2             0.1012     0.2855    -0.3054 C.ar    
   3 C3             1.2655    -0.4592    -0.1612 C.ar    
   4 C4             2.4929     0.1830    -0.0843 C.ar    
   5 C5             2.5535     1.5678    -0.1518 C.ar    
   6 C6             1.3857     2.3065    -0.2955 C.ar    
   7 N7             3.7887     2.2191    -0.0742 N.am    
   8 C8             4.0026     3.3448    -0.7837 C.2     
   9 C9             5.2627     4.0983    -0.6122 C.ar    
  10 N10            1.2001    -1.8545    -0.0931 N.am    
  11 C11            2.1788    -2.6025    -0.6401 C.2     
  12 C12            5.4874     5.2644    -1.3454 C.ar    
  13 C13            6.6654     5.9638    -1.1807 C.ar    
  14 C14            7.6235     5.5116    -0.2914 C.ar    
  15 C15            7.4075     4.3553     0.4396 C.ar    
  16 C16            6.2306     3.6496     0.2882 C.ar    
  17 O17            3.1596    -2.0656    -1.1171 O.2     
  18 O18            3.1593     3.7406    -1.5647 O.2     
  19 C19            2.0596    -4.0750    -0.6598 C.ar    
  20 Cl20           8.6163     3.7955     1.5528 Cl      
  21 C21            3.0722    -4.8535    -1.2259 C.ar    
  22 C22            2.9537    -6.2298    -1.2401 C.ar    
  23 C23            1.8364    -6.8360    -0.6959 C.ar    
  24 C24            0.8297    -6.0699    -0.1340 C.ar    
  25 C25            0.9371    -4.6954    -0.1076 C.ar    
  26 Cl26           4.4751    -4.0935    -1.9100 Cl      
  27 H27           -0.7411     2.2401    -0.4880 H       
  28 H28           -0.8546    -0.2138    -0.3653 H       
  29 H29            3.3992    -0.3935     0.0281 H       
  30 H30            1.4322     3.3842    -0.3485 H       
  31 H31            4.4914     1.8606     0.4902 H       
  32 H32            0.4503    -2.2840     0.3477 H       
  33 H33            4.7407     5.6185    -2.0407 H       
  34 H34            6.8399     6.8662    -1.7477 H       
  35 H35            8.5440     6.0624    -0.1668 H       
  36 H36            6.0629     2.7479     0.8585 H       
  37 H37            3.7351    -6.8335    -1.6776 H       
  38 H38            1.7487    -7.9123    -0.7095 H       
  39 H39           -0.0404    -6.5503     0.2886 H       
  40 H40            0.1506    -4.0995     0.3313 H       
@<TRIPOS>BOND
   1    1    2 ar
   2    1    6 ar
   3    1   27 1
   4    2    3 ar
   5    2   28 1
   6    3    4 ar
   7    3   10 1
   8    4    5 ar
   9    4   29 1
  10    5    6 ar
  11    5    7 1
  12    6   30 1
  13    7    8 am
  14    7   31 1
  15    8    9 1
  16    8   18 2
  17    9   12 ar
  18    9   16 ar
  19   10   11 am
  20   10   32 1
  21   11   17 2
  22   11   19 1
  23   12   13 ar
  24   12   33 1
  25   13   14 ar
  26   13   34 1
  27   14   15 ar
  28   14   35 1
  29   15   16 ar
  30   15   20 1
  31   16   36 1
  32   19   21 ar
  33   19   25 ar
  34   21   22 ar
  35   21   26 1
  36   22   23 ar
  37   22   37 1
  38   23   24 ar
  39   23   38 1
  40   24   25 ar
  41   24   39 1
  42   25   40 1

#	End of record

