#	Name: ASD04590584
#	Creating user name:	WinNT
#	Creation time:	15. 06. 2019 20:51

#	Modifying user name:	WinNT
#	Modification time:	15. 06. 2019 20:51

#	Program:	/corina/corina34_cracker 3.40 0067  02.08.2006

@<TRIPOS>MOLECULE
ASD04590584
  73   78    0    0    0
SMALL
NO_CHARGES


@<TRIPOS>ATOM
   1 N1             1.1487    -0.6594     0.0113 N.ar    
   2 C2             0.0024    -0.0047     0.0096 C.ar    
   3 C3            -0.0158     1.3864     0.0099 C.ar    
   4 C4             1.1867     2.0658     0.0065 C.ar    
   5 C5             2.3736     1.3361     0.0068 C.ar    
   6 C6             3.6723     2.1005    -0.0119 C.3     
   7 N7             4.7871     1.1864     0.2598 N.am    
   8 C8             4.7797    -0.1124    -0.4336 C.3     
   9 C9             3.5608    -0.8968     0.0491 C.3     
  10 C10            2.3229    -0.0379     0.0161 C.ar    
  11 C11            5.7781     1.5221     1.1093 C.2     
  12 O12            6.6899     0.7459     1.3164 O.2     
  13 O13            5.7579     2.7174     1.7286 O.3     
  14 N14           -1.1969    -0.7114     0.0071 N.pl3   
  15 C15           -1.1870    -2.0923    -0.1050 C.ar    
  16 N16           -2.3302    -2.7496     0.0027 N.ar    
  17 C17           -2.3613    -4.0750    -0.0992 C.ar    
  18 C18           -1.1501    -4.7599    -0.3240 C.ar    
  19 C19            0.0270    -4.0257    -0.4300 C.ar    
  20 N20           -0.0323    -2.7086    -0.3219 N.ar    
  21 N21           -3.3754    -4.9980    -0.0309 N.pl3   
  22 C22           -1.4859    -6.1879    -0.3914 C.ar    
  23 C23           -2.8770    -6.2778    -0.2034 C.ar    
  24 C24           -3.4675    -7.5343    -0.2212 C.ar    
  25 C25           -0.7583    -7.3607    -0.5871 C.ar    
  26 C26           -1.4299    -8.5653    -0.5890 C.ar    
  27 N27           -2.7379    -8.6152    -0.4102 N.ar    
  28 C28           -4.7863    -4.6739     0.1935 C.3     
  29 C29           -4.9379    -3.9587     1.5375 C.3     
  30 C30           -6.4115    -3.6203     1.7719 C.3     
  31 C31           -6.9099    -2.7077     0.6495 C.3     
  32 C32           -6.7584    -3.4229    -0.6945 C.3     
  33 C33           -5.2848    -3.7614    -0.9289 C.3     
  34 C34           -8.3835    -2.3693     0.8838 C.3     
  35 C35            6.8577     3.0116     2.6298 C.3     
  36 C36            8.1765     2.9722     1.8551 C.3     
  37 C37            6.6630     4.4034     3.2348 C.3     
  38 C38            6.8925     1.9693     3.7493 C.3     
  39 H39           -0.9521     1.9246     0.0123 H       
  40 H40            1.2065     3.1456     0.0034 H       
  41 H41            3.8094     2.5588    -0.9913 H       
  42 H42            3.6465     2.8781     0.7515 H       
  43 H43            4.7142     0.0449    -1.5102 H       
  44 H44            5.6901    -0.6625    -0.1955 H       
  45 H45            3.4133    -1.7628    -0.5960 H       
  46 H46            3.7345    -1.2367     1.0701 H       
  47 H47           -2.0395    -0.2370     0.0839 H       
  48 H48            0.9708    -4.5216    -0.6022 H       
  49 H49           -4.5340    -7.6266    -0.0786 H       
  50 H50            0.3110    -7.3267    -0.7348 H       
  51 H51           -0.8783    -9.4815    -0.7395 H       
  52 H52           -5.3731    -5.5925     0.2026 H       
  53 H53           -4.5828    -4.6088     2.3371 H       
  54 H54           -4.3511    -3.0401     1.5285 H       
  55 H55           -6.9982    -4.5388     1.7809 H       
  56 H56           -6.5194    -3.1107     2.7294 H       
  57 H57           -6.3231    -1.7892     0.6405 H       
  58 H58           -7.3451    -4.3415    -0.6855 H       
  59 H59           -7.1135    -2.7728    -1.4941 H       
  60 H60           -4.6980    -2.8428    -0.9379 H       
  61 H61           -5.1768    -4.2709    -1.8864 H       
  62 H62           -8.4914    -1.8598     1.8414 H       
  63 H63           -8.7386    -1.7192     0.0842 H       
  64 H64           -8.9702    -3.2878     0.8929 H       
  65 H65            8.1517     3.7148     1.0576 H       
  66 H66            9.0020     3.1931     2.5317 H       
  67 H67            8.3152     1.9807     1.4242 H       
  68 H68            5.7234     4.4315     3.7867 H       
  69 H69            7.4885     4.6242     3.9114 H       
  70 H70            6.6382     5.1460     2.4373 H       
  71 H71            7.0312     0.9777     3.3183 H       
  72 H72            7.7180     2.1901     4.4259 H       
  73 H73            5.9530     1.9973     4.3012 H       
@<TRIPOS>BOND
   1    1    2 ar
   2    1   10 ar
   3    2    3 ar
   4    2   14 1
   5    3    4 ar
   6    3   39 1
   7    4    5 ar
   8    4   40 1
   9    5    6 1
  10    5   10 ar
  11    6    7 1
  12    6   41 1
  13    6   42 1
  14    7    8 1
  15    7   11 am
  16    8    9 1
  17    8   43 1
  18    8   44 1
  19    9   10 1
  20    9   45 1
  21    9   46 1
  22   11   12 2
  23   11   13 1
  24   13   35 1
  25   14   15 1
  26   14   47 1
  27   15   16 ar
  28   15   20 ar
  29   16   17 ar
  30   17   18 ar
  31   17   21 1
  32   18   19 ar
  33   18   22 1
  34   19   20 ar
  35   19   48 1
  36   21   23 1
  37   21   28 1
  38   22   23 ar
  39   22   25 ar
  40   23   24 ar
  41   24   27 ar
  42   24   49 1
  43   25   26 ar
  44   25   50 1
  45   26   27 ar
  46   26   51 1
  47   28   29 1
  48   28   33 1
  49   28   52 1
  50   29   30 1
  51   29   53 1
  52   29   54 1
  53   30   31 1
  54   30   55 1
  55   30   56 1
  56   31   32 1
  57   31   34 1
  58   31   57 1
  59   32   33 1
  60   32   58 1
  61   32   59 1
  62   33   60 1
  63   33   61 1
  64   34   62 1
  65   34   63 1
  66   34   64 1
  67   35   36 1
  68   35   38 1
  69   35   37 1
  70   36   65 1
  71   36   66 1
  72   36   67 1
  73   37   68 1
  74   37   69 1
  75   37   70 1
  76   38   71 1
  77   38   72 1
  78   38   73 1

#	End of record

