#	Name: ASD01140396
#	Creating user name:	WinNT
#	Creation time:	15. 06. 2019 19:00

#	Modifying user name:	WinNT
#	Modification time:	15. 06. 2019 19:00

#	Program:	/corina/corina34_cracker 3.40 0067  02.08.2006

@<TRIPOS>MOLECULE
ASD01140396
  45   49    0    0    0
SMALL
NO_CHARGES


@<TRIPOS>ATOM
   1 S1            -0.0211     1.7051     0.0114 S.3     
   2 C2             0.0021    -0.0041     0.0020 C.2     
   3 N3             1.2236    -0.4381    -0.0120 N.2     
   4 C4             2.1812     0.4653    -0.0163 C.2     
   5 C5             1.7403     1.7410    -0.0052 C.2     
   6 O6            -1.0994    -0.7929     0.0083 O.3     
   7 C7            -1.8752    -4.4220     0.5828 C.3     
   8 C8            -2.0390    -2.9005     0.7281 C.3     
   9 C9            -0.8856    -2.2058    -0.0013 C.3     
  10 C10           -0.8166    -2.7007    -1.4489 C.3     
  11 C11           -0.7355    -4.2357    -1.4466 C.3     
  12 C12            0.3454    -4.6507    -0.4221 C.3     
  13 C13           -0.4077    -4.7738     0.9189 C.3     
  14 N14           -2.0059    -4.7432    -0.8634 N.3     
  15 C15           -2.1389    -6.1914    -1.0710 C.3     
  16 N16            2.6861     5.9644    -1.9211 N.pl3   
  17 C17            1.6204     5.3821    -2.5519 C.2     
  18 C18            1.3620     4.1848    -1.9999 C.2     
  19 C19            2.3405     3.9865    -0.9315 C.ar    
  20 C20            2.5842     2.9515    -0.0075 C.ar    
  21 C21            3.6280     3.0819     0.9033 C.ar    
  22 C22            4.4182     4.2192     0.8993 C.ar    
  23 C23            4.1868     5.2374    -0.0011 C.ar    
  24 C24            3.1495     5.1348    -0.9241 C.ar    
  25 H25            3.2300     0.2078    -0.0271 H       
  26 H26           -2.5832    -4.9722     1.2024 H       
  27 H27           -2.9875    -2.5919     0.2886 H       
  28 H28           -2.0187    -2.6304     1.7839 H       
  29 H29            0.0528    -2.4339     0.5041 H       
  30 H30           -1.7101    -2.3831    -1.9863 H       
  31 H31            0.0687    -2.2891    -1.9336 H       
  32 H32           -0.5377    -4.6378    -2.4402 H       
  33 H33            0.7837    -5.6091    -0.7004 H       
  34 H34            1.1179    -3.8846    -0.3544 H       
  35 H35           -0.0054    -4.0683     1.6460 H       
  36 H36           -0.3396    -5.7928     1.3000 H       
  37 H37           -3.0261    -6.5530    -0.5511 H       
  38 H38           -2.2329    -6.3984    -2.1371 H       
  39 H39           -1.2566    -6.6972    -0.6791 H       
  40 H40            3.0617     6.8301    -2.1454 H       
  41 H41            1.0691     5.8199    -3.3710 H       
  42 H42            0.5797     3.4990    -2.2899 H       
  43 H43            3.8223     2.2938     1.6158 H       
  44 H44            5.2257     4.3098     1.6107 H       
  45 H45            4.8122     6.1179     0.0100 H       
@<TRIPOS>BOND
   1    1    2 1
   2    1    5 1
   3    2    3 2
   4    2    6 1
   5    3    4 1
   6    4    5 2
   7    4   25 1
   8    5   20 1
   9    6    9 1
  10    7    8 1
  11    7   13 1
  12    7   14 1
  13    7   26 1
  14    8    9 1
  15    8   27 1
  16    8   28 1
  17    9   10 1
  18    9   29 1
  19   10   11 1
  20   10   30 1
  21   10   31 1
  22   11   12 1
  23   11   14 1
  24   11   32 1
  25   12   13 1
  26   12   33 1
  27   12   34 1
  28   13   35 1
  29   13   36 1
  30   14   15 1
  31   15   37 1
  32   15   38 1
  33   15   39 1
  34   16   17 1
  35   16   24 1
  36   16   40 1
  37   17   18 2
  38   17   41 1
  39   18   19 1
  40   18   42 1
  41   19   20 ar
  42   19   24 ar
  43   20   21 ar
  44   21   22 ar
  45   21   43 1
  46   22   23 ar
  47   22   44 1
  48   23   24 ar
  49   23   45 1

#	End of record

