#	Name: ASD03330762
#	Creating user name:	WinNT
#	Creation time:	15. 06. 2019 20:37

#	Modifying user name:	WinNT
#	Modification time:	15. 06. 2019 20:37

#	Program:	/corina/corina34_cracker 3.40 0067  02.08.2006

@<TRIPOS>MOLECULE
ASD03330762
  63   65    0    0    0
SMALL
NO_CHARGES


@<TRIPOS>ATOM
   1 C1            -0.5838     2.9906    -0.9760 C.2     
   2 N2            -0.9262     1.6789    -0.8738 N.pl3   
   3 C3             0.6567     3.1242    -0.4301 C.2     
   4 N4             1.0608     1.9018    -0.0207 N.2     
   5 C5             0.1195     1.0272    -0.2882 C.2     
   6 C6             0.1817    -0.4227    -0.0018 C.ar    
   7 C7             1.4218     4.3778    -0.3086 C.2     
   8 O8             0.9488     5.4209    -0.7176 O.2     
   9 C9             3.4462     5.5947     0.2895 C.3     
  10 N10            2.6456     4.3683     0.2559 N.am    
  11 C11            4.2296     5.7283    -1.0179 C.3     
  12 C12            4.4084     5.5348     1.4478 C.2     
  13 O13            4.4010     4.5784     2.1936 O.2     
  14 C14           -2.1992     1.0966    -1.3074 C.3     
  15 C15           -2.5294     1.6027    -2.7151 C.3     
  16 C16           -3.2933     2.9198    -2.6236 C.3     
  17 N17           -2.8454     3.7101    -1.4752 N.3     
  18 C18           -1.4260     4.0741    -1.5980 C.3     
  19 C19           -0.9870    -1.1313     0.2799 C.ar    
  20 C20            1.4083    -1.0872    -0.0180 C.ar    
  21 C21            1.4605    -2.4412     0.2502 C.ar    
  22 C22            0.2953    -3.1390     0.5352 C.ar    
  23 C23           -0.9249    -2.4831     0.5465 C.ar    
  24 C24           -3.6820     4.9048    -1.2999 C.3     
  25 N25            5.2773     6.5441     1.6550 N.am    
  26 C26            6.2127     6.4859     2.7810 C.3     
  27 C27            5.0214     4.4439    -1.2715 C.3     
  28 C28            5.8926     4.1328    -0.0529 C.3     
  29 C29            4.0510     3.2861    -1.5138 C.3     
  30 C30            5.9123     4.6286    -2.5016 C.3     
  31 F31            0.3504    -4.4633     0.7971 F       
  32 F32            2.6471    -3.0870     0.2347 F       
  33 H33            2.7879     6.4553     0.4082 H       
  34 H34            2.9962     3.5495     0.6399 H       
  35 H35            3.5358     5.8961    -1.8416 H       
  36 H36            4.9175     6.5707    -0.9448 H       
  37 H37           -2.1169     0.0098    -1.3210 H       
  38 H38           -2.9895     1.3945    -0.6185 H       
  39 H39           -1.6046     1.7580    -3.2707 H       
  40 H40           -3.1418     0.8636    -3.2316 H       
  41 H41           -3.1304     3.4919    -3.5369 H       
  42 H42           -4.3578     2.7093    -2.5196 H       
  43 H43           -1.2457     5.0172    -1.0822 H       
  44 H44           -1.1662     4.1781    -2.6515 H       
  45 H45           -1.9391    -0.6216     0.2894 H       
  46 H46            2.3150    -0.5442    -0.2402 H       
  47 H47           -1.8289    -3.0305     0.7692 H       
  48 H48           -4.7163     4.6030    -1.1344 H       
  49 H49           -3.3276     5.4736    -0.4403 H       
  50 H50           -3.6230     5.5242    -2.1948 H       
  51 H51            5.2833     7.3090     1.0585 H       
  52 H52            6.8308     7.3836     2.7866 H       
  53 H53            5.6538     6.4237     3.7148 H       
  54 H54            6.8494     5.6070     2.6794 H       
  55 H55            5.2693     3.7325     0.7467 H       
  56 H56            6.6499     3.3978    -0.3258 H       
  57 H57            6.3793     5.0463     0.2886 H       
  58 H58            3.2197     3.6313    -2.1284 H       
  59 H59            4.5712     2.4774    -2.0272 H       
  60 H60            3.6709     2.9246    -0.5583 H       
  61 H61            6.6036     5.4534    -2.3291 H       
  62 H62            6.4764     3.7135    -2.6824 H       
  63 H63            5.2916     4.8502    -3.3698 H       
@<TRIPOS>BOND
   1    1    2 1
   2    1    3 2
   3    1   18 1
   4    2   14 1
   5    2    5 1
   6    3    4 1
   7    3    7 1
   8    4    5 2
   9    5    6 1
  10    6   20 ar
  11    6   19 ar
  12    7    8 2
  13    7   10 am
  14    9   10 1
  15    9   11 1
  16    9   12 1
  17    9   33 1
  18   10   34 1
  19   11   27 1
  20   11   35 1
  21   11   36 1
  22   12   13 2
  23   12   25 am
  24   14   15 1
  25   14   37 1
  26   14   38 1
  27   15   16 1
  28   15   39 1
  29   15   40 1
  30   16   17 1
  31   16   41 1
  32   16   42 1
  33   17   18 1
  34   17   24 1
  35   18   43 1
  36   18   44 1
  37   19   23 ar
  38   19   45 1
  39   20   21 ar
  40   20   46 1
  41   21   22 ar
  42   21   32 1
  43   22   23 ar
  44   22   31 1
  45   23   47 1
  46   24   48 1
  47   24   49 1
  48   24   50 1
  49   25   26 1
  50   25   51 1
  51   26   52 1
  52   26   53 1
  53   26   54 1
  54   27   29 1
  55   27   30 1
  56   27   28 1
  57   28   55 1
  58   28   56 1
  59   28   57 1
  60   29   58 1
  61   29   59 1
  62   29   60 1
  63   30   61 1
  64   30   62 1
  65   30   63 1

#	End of record

