#	Name: ASD03730754
#	Creating user name:	WinNT
#	Creation time:	15. 06. 2019 20:44

#	Modifying user name:	WinNT
#	Modification time:	15. 06. 2019 20:44

#	Program:	/corina/corina34_cracker 3.40 0067  02.08.2006

@<TRIPOS>MOLECULE
ASD03730754
  53   57    0    0    0
SMALL
NO_CHARGES


@<TRIPOS>ATOM
   1 O1            -0.0175     1.4360     0.0099 O.3     
   2 C2             0.0021    -0.0041     0.0020 C.3     
   3 C3             1.3443    -0.3164    -0.6736 C.3     
   4 C4             2.1584     0.9221    -0.4112 C.ar    
   5 C5             1.2612     1.9063     0.0003 C.ar    
   6 C6             1.7465     3.1703     0.3294 C.ar    
   7 C7             3.0920     3.4475     0.2397 C.ar    
   8 C8             3.9835     2.4622    -0.1814 C.ar    
   9 C9             3.5029     1.1937    -0.5060 C.ar    
  10 N10            2.1539    -2.4047    -1.1296 N.am    
  11 C11            1.9834    -1.5493    -0.1019 C.2     
  12 C12            1.1833    -0.5947    -2.1386 C.ar    
  13 C13            0.6717     0.1271    -3.1938 C.ar    
  14 C14            0.6623    -0.4168    -4.4659 C.ar    
  15 C15            1.1675    -1.6871    -4.6751 C.ar    
  16 C16            1.6809    -2.4143    -3.6215 C.ar    
  17 C17            1.6948    -1.8745    -2.3377 C.ar    
  18 O18            2.2872    -1.7380     1.0570 O.2     
  19 C19            7.2846     4.2616    -0.0704 C.ar    
  20 C20            5.9296     4.0269     0.0385 C.ar    
  21 C21            5.4327     2.7604    -0.2834 C.ar    
  22 C22            6.3392     1.7826    -0.7038 C.ar    
  23 C23            7.6787     2.1023    -0.7841 C.ar    
  24 N24            8.1066     3.3106    -0.4713 N.ar    
  25 C25            2.7517    -3.7354    -0.9953 C.3     
  26 C26            1.6546    -4.7598    -0.6988 C.3     
  27 C27            2.2789    -6.1496    -0.5585 C.3     
  28 C28            1.1818    -7.1739    -0.2619 C.3     
  29 C29            1.8061    -8.5637    -0.1217 C.3     
  30 H30           -0.0200    -0.3968     1.0186 H       
  31 H31           -0.8274    -0.3990    -0.5845 H       
  32 H32            1.0618     3.9386     0.6570 H       
  33 H33            3.4577     4.4309     0.4960 H       
  34 H34            4.1872     0.4245    -0.8323 H       
  35 H35            0.2770     1.1187    -3.0282 H       
  36 H36            0.2611     0.1492    -5.2935 H       
  37 H37            1.1597    -2.1119    -5.6680 H       
  38 H38            2.0736    -3.4057    -3.7926 H       
  39 H39            7.6773     5.2381     0.1718 H       
  40 H40            5.2625     4.8099     0.3676 H       
  41 H41            5.9959     0.7916    -0.9614 H       
  42 H42            8.3866     1.3536    -1.1078 H       
  43 H43            3.2566    -4.0023    -1.9237 H       
  44 H44            3.4732    -3.7289    -0.1783 H       
  45 H45            1.1497    -4.4929     0.2296 H       
  46 H46            0.9332    -4.7663    -1.5158 H       
  47 H47            2.7838    -6.4164    -1.4869 H       
  48 H48            3.0004    -6.1430     0.2586 H       
  49 H49            0.6769    -6.9071     0.6665 H       
  50 H50            0.4604    -7.1805    -1.0790 H       
  51 H51            1.0245    -9.2935     0.0896 H       
  52 H52            2.3110    -8.8306    -1.0501 H       
  53 H53            2.5276    -8.5572     0.6954 H       
@<TRIPOS>BOND
   1    1    2 1
   2    1    5 1
   3    2    3 1
   4    2   30 1
   5    2   31 1
   6    3    4 1
   7    3   11 1
   8    3   12 1
   9    4    5 ar
  10    4    9 ar
  11    5    6 ar
  12    6    7 ar
  13    6   32 1
  14    7    8 ar
  15    7   33 1
  16    8    9 ar
  17    8   21 1
  18    9   34 1
  19   10   11 am
  20   10   17 1
  21   10   25 1
  22   11   18 2
  23   12   13 ar
  24   12   17 ar
  25   13   14 ar
  26   13   35 1
  27   14   15 ar
  28   14   36 1
  29   15   16 ar
  30   15   37 1
  31   16   17 ar
  32   16   38 1
  33   19   20 ar
  34   19   24 ar
  35   19   39 1
  36   20   21 ar
  37   20   40 1
  38   21   22 ar
  39   22   23 ar
  40   22   41 1
  41   23   24 ar
  42   23   42 1
  43   25   26 1
  44   25   43 1
  45   25   44 1
  46   26   27 1
  47   26   45 1
  48   26   46 1
  49   27   28 1
  50   27   47 1
  51   27   48 1
  52   28   29 1
  53   28   49 1
  54   28   50 1
  55   29   51 1
  56   29   52 1
  57   29   53 1

#	End of record

