#	Name: ASD00431099
#	Creating user name:	WinNT
#	Creation time:	15. 06. 2019 18:35

#	Modifying user name:	WinNT
#	Modification time:	15. 06. 2019 18:35

#	Program:	/corina/corina34_cracker 3.40 0067  02.08.2006

@<TRIPOS>MOLECULE
ASD00431099
  59   63    0    0    0
SMALL
NO_CHARGES


@<TRIPOS>ATOM
   1 C1            -3.4664     0.5500    -0.6387 C.2     
   2 N2            -2.3773     0.3118     0.1142 N.am    
   3 C3            -2.2687     1.2132     1.1069 C.2     
   4 C4            -3.4028     2.1565     1.0126 C.ar    
   5 C5            -3.8054     3.2622     1.7444 C.ar    
   6 C6            -4.9546     3.9462     1.3799 C.ar    
   7 C7            -5.7008     3.5329     0.2922 C.ar    
   8 C8            -5.3103     2.4287    -0.4491 C.ar    
   9 C9            -4.1638     1.7352    -0.0965 C.ar    
  10 O10           -3.8153    -0.0972    -1.6053 O.2     
  11 O11           -1.3869     1.2460     1.9413 O.2     
  12 C12           -1.4339    -0.7850    -0.1163 C.3     
  13 C13           -0.0651    -0.2110    -0.4876 C.3     
  14 C14           -1.3086    -1.6117     1.1374 C.ar    
  15 C15           -2.3806    -1.7223     1.9990 C.ar    
  16 C16           -2.2630    -2.4887     3.1595 C.ar    
  17 C17           -1.0598    -3.1388     3.4404 C.ar    
  18 C18            0.0041    -3.0200     2.5706 C.ar    
  19 C19           -0.1209    -2.2628     1.4190 C.ar    
  20 S20           -4.9887    -1.8615     3.8871 S.3     
  21 C21           -5.5185    -2.5611     5.3541 C.2     
  22 N22           -4.5688    -3.2662     5.8855 N.2     
  23 C23           -3.4246    -3.3166     5.2366 C.2     
  24 C24           -3.4070    -2.6112     4.0872 C.2     
  25 O25           -6.7541    -2.4012     5.8860 O.3     
  26 C26           -7.0619    -3.1046     7.0081 C.ar    
  27 C27           -6.5427    -2.7162     8.2346 C.ar    
  28 C28           -6.8554    -3.4309     9.3743 C.ar    
  29 C29           -7.6885    -4.5368     9.2928 C.ar    
  30 C30           -8.2077    -4.9253     8.0666 C.ar    
  31 C31           -7.8997    -4.2074     6.9275 C.ar    
  32 O32           -7.9960    -5.2406    10.4149 O.3     
  33 C33           -8.7465    -6.4441    10.2406 C.3     
  34 C34           -8.3154    -7.4705    11.2902 C.3     
  35 C35          -10.2377    -6.1434    10.4038 C.3     
  36 H36           -3.2265     3.5894     2.5954 H       
  37 H37           -5.2693     4.8078     1.9499 H       
  38 H38           -6.5945     4.0739     0.0183 H       
  39 H39           -5.8974     2.1101    -1.2978 H       
  40 H40           -1.7977    -1.4122    -0.9302 H       
  41 H41           -0.1557     0.3870    -1.3944 H       
  42 H42            0.2987     0.4162     0.3263 H       
  43 H43            0.6368    -1.0271    -0.6591 H       
  44 H44           -3.3085    -1.2166     1.7761 H       
  45 H45           -0.9622    -3.7331     4.3369 H       
  46 H46            0.9354    -3.5224     2.7867 H       
  47 H47            0.7138    -2.1763     0.7392 H       
  48 H48           -2.5723    -3.8751     5.5943 H       
  49 H49           -5.8937    -1.8553     8.2980 H       
  50 H50           -6.4509    -3.1287    10.3291 H       
  51 H51           -8.8562    -5.7866     8.0031 H       
  52 H52           -8.3076    -4.5071     5.9735 H       
  53 H53           -8.5636    -6.8452     9.2437 H       
  54 H54           -8.4982    -7.0694    12.2871 H       
  55 H55           -8.8878    -8.3885    11.1573 H       
  56 H56           -7.2530    -7.6847    11.1740 H       
  57 H57          -10.5448    -5.4122     9.6560 H       
  58 H58          -10.8102    -7.0614    10.2708 H       
  59 H59          -10.4205    -5.7423    11.4007 H       
@<TRIPOS>BOND
   1    1    2 am
   2    1    9 1
   3    1   10 2
   4    2    3 am
   5    2   12 1
   6    3    4 1
   7    3   11 2
   8    4    5 ar
   9    4    9 ar
  10    5    6 ar
  11    5   36 1
  12    6    7 ar
  13    6   37 1
  14    7    8 ar
  15    7   38 1
  16    8    9 ar
  17    8   39 1
  18   12   13 1
  19   12   14 1
  20   12   40 1
  21   13   41 1
  22   13   42 1
  23   13   43 1
  24   14   15 ar
  25   14   19 ar
  26   15   16 ar
  27   15   44 1
  28   16   17 ar
  29   16   24 1
  30   17   18 ar
  31   17   45 1
  32   18   19 ar
  33   18   46 1
  34   19   47 1
  35   20   21 1
  36   20   24 1
  37   21   22 2
  38   21   25 1
  39   22   23 1
  40   23   24 2
  41   23   48 1
  42   25   26 1
  43   26   27 ar
  44   26   31 ar
  45   27   28 ar
  46   27   49 1
  47   28   29 ar
  48   28   50 1
  49   29   30 ar
  50   29   32 1
  51   30   31 ar
  52   30   51 1
  53   31   52 1
  54   32   33 1
  55   33   34 1
  56   33   35 1
  57   33   53 1
  58   34   54 1
  59   34   55 1
  60   34   56 1
  61   35   57 1
  62   35   58 1
  63   35   59 1

#	End of record

