#	Name: ASD05430616
#	Creating user name:	WinNT
#	Creation time:	15. 06. 2019 21:00

#	Modifying user name:	WinNT
#	Modification time:	15. 06. 2019 21:00

#	Program:	/corina/corina34_cracker 3.40 0067  02.08.2006

@<TRIPOS>MOLECULE
ASD05430616
  39   40    0    0    0
SMALL
NO_CHARGES


@<TRIPOS>ATOM
   1 C1            -0.0168     1.3883     0.0097 C.ar    
   2 C2             0.0021    -0.0041     0.0020 C.ar    
   3 C3            -1.1916    -0.7102     0.0101 C.ar    
   4 C4            -2.3954    -0.0319     0.0257 C.ar    
   5 C5            -2.4137     1.3509     0.0329 C.ar    
   6 C6            -1.2281     2.0614     0.0307 C.ar    
   7 C7            -3.7297     2.0850     0.0494 C.3     
   8 C8            -4.5386     1.7098    -1.1939 C.3     
   9 C9            -4.5142     1.6972     1.3044 C.3     
  10 O10            1.1502     2.0857     0.0023 O.3     
  11 C11            1.0540     3.5114     0.0109 C.3     
  12 N12            1.2260    -0.6911    -0.0143 N.pl3   
  13 C13            2.2649    -0.4693    -0.8601 C.2     
  14 C14            1.6004    -1.7085     0.8244 C.2     
  15 C15            2.8445    -2.0752     0.4618 C.2     
  16 N16            3.2251    -1.3036    -0.5671 N.2     
  17 C17            3.6681    -3.1618     1.1036 C.3     
  18 O18            2.9249    -3.7559     2.1698 O.3     
  19 C19            3.6193    -4.8041     2.8488 C.3     
  20 H20           -1.1803    -1.7902     0.0038 H       
  21 H21           -3.3242    -0.5829     0.0320 H       
  22 H22           -1.2458     3.1412     0.0362 H       
  23 H23           -3.5464     3.1595     0.0530 H       
  24 H24           -4.7219     0.6353    -1.1975 H       
  25 H25           -5.4905     2.2408    -1.1820 H       
  26 H26           -3.9797     1.9861    -2.0880 H       
  27 H27           -3.9380     1.9645     2.1902 H       
  28 H28           -5.4661     2.2282     1.3164 H       
  29 H29           -4.6976     0.6228     1.3008 H       
  30 H30            0.5254     3.8346     0.9077 H       
  31 H31            2.0548     3.9432     0.0036 H       
  32 H32            0.5084     3.8441    -0.8722 H       
  33 H33            2.2919     0.2727    -1.6444 H       
  34 H34            1.0110    -2.1341     1.6231 H       
  35 H35            3.9087    -3.9222     0.3606 H       
  36 H36            4.5901    -2.7342     1.4976 H       
  37 H37            2.9885    -5.2027     3.6433 H       
  38 H38            3.8589    -5.5986     2.1420 H       
  39 H39            4.5403    -4.4106     3.2790 H       
@<TRIPOS>BOND
   1    1    2 ar
   2    1   10 1
   3    1    6 ar
   4    2    3 ar
   5    2   12 1
   6    3    4 ar
   7    3   20 1
   8    4    5 ar
   9    4   21 1
  10    5    6 ar
  11    5    7 1
  12    6   22 1
  13    7    8 1
  14    7    9 1
  15    7   23 1
  16    8   24 1
  17    8   25 1
  18    8   26 1
  19    9   27 1
  20    9   28 1
  21    9   29 1
  22   10   11 1
  23   11   30 1
  24   11   31 1
  25   11   32 1
  26   12   13 1
  27   12   14 1
  28   13   16 2
  29   13   33 1
  30   14   15 2
  31   14   34 1
  32   15   16 1
  33   15   17 1
  34   17   18 1
  35   17   35 1
  36   17   36 1
  37   18   19 1
  38   19   37 1
  39   19   38 1
  40   19   39 1

#	End of record

