#	Name: ASD08178026
#	Creating user name:	WinNT
#	Creation time:	15. 06. 2019 21:18

#	Modifying user name:	WinNT
#	Modification time:	15. 06. 2019 21:18

#	Program:	/corina/corina34_cracker 3.40 0067  02.08.2006

@<TRIPOS>MOLECULE
ASD08178026
  67   70    0    0    0
SMALL
NO_CHARGES


@<TRIPOS>ATOM
   1 N1            -0.0155     1.2947     0.0092 N.2     
   2 C2             0.0021    -0.0041     0.0020 C.2     
   3 N3            -1.1168    -0.8300     0.0076 N.am    
   4 N4             1.0945     1.8960     0.0018 N.2     
   5 C5             2.1557     1.1534    -0.0123 C.2     
   6 S6             1.6320    -0.5310    -0.0164 S.3     
   7 C7             3.5816     1.6410    -0.0241 C.3     
   8 C8             4.0787     1.7984     1.4143 C.3     
   9 C9             6.1989     2.5079     3.1644 C.3     
  10 C10            7.6391     2.9988     3.3250 C.3     
  11 C11            7.9746     3.1008     4.7906 C.2     
  12 N12            8.4834     2.1629     5.5249 N.2     
  13 N13            8.6933     2.4459     6.7372 N.2     
  14 C14            8.3839     3.6414     7.1397 C.2     
  15 S15            7.7520     4.5212     5.8126 S.3     
  16 N16            8.5433     4.1281     8.4328 N.am    
  17 C17           -2.3521    -0.2911     0.0220 C.2     
  18 O18           -2.4879     0.9140     0.0301 O.2     
  19 C19           -3.5646    -1.1861     0.0280 C.3     
  20 C20            9.0592     3.3348     9.3925 C.2     
  21 C21            9.2319     3.8621    10.7936 C.3     
  22 O22            9.3844     2.1966     9.1285 O.2     
  23 S23            5.7950     2.3852     1.4002 S.3     
  24 C24           -3.8617    -1.7010    -1.4025 C.3     
  25 C25           -5.3776    -2.0186    -1.3106 C.3     
  26 C26           -5.9069    -0.9107    -0.3756 C.3     
  27 N27           -4.7652    -0.4209     0.4107 N.am    
  28 C28           -4.8091     0.5639     1.3297 C.2     
  29 O29           -3.8008     0.8869     1.9211 O.2     
  30 C30           -6.1112     1.2639     1.6224 C.3     
  31 F31           -5.9058     2.2397     2.6036 F       
  32 F32           -6.5878     1.8696     0.4548 F       
  33 F33           -7.0488     0.3321     2.0805 F       
  34 N34            9.3774     2.7422    11.7350 N.am    
  35 C35           10.6995     2.8359    12.3805 C.3     
  36 C36           11.0854     4.3327    12.2784 C.3     
  37 C37           10.5215     4.7052    10.8818 C.3     
  38 C38            8.4547     1.7883    11.9695 C.2     
  39 O39            7.3958     1.8105    11.3786 O.2     
  40 F40            7.6402    -0.1696    13.0359 F       
  41 F41            9.8702    -0.0225    12.5621 F       
  42 C42            8.7386     0.6940    12.9661 C.3     
  43 F43            8.9689     1.2584    14.2253 F       
  44 H44           -1.0082    -1.7939     0.0010 H       
  45 H45            4.2081     0.9191    -0.5480 H       
  46 H46            3.6324     2.6033    -0.5334 H       
  47 H47            3.4522     2.5202     1.9383 H       
  48 H48            4.0279     0.8360     1.9237 H       
  49 H49            6.0951     1.5278     3.6299 H       
  50 H50            5.5194     3.2120     3.6446 H       
  51 H51            8.3186     2.2947     2.8448 H       
  52 H52            7.7429     3.9790     2.8595 H       
  53 H53            8.2832     5.0384     8.6439 H       
  54 H54           -3.4135    -2.0237     0.7089 H       
  55 H55            8.3698     4.4691    11.0701 H       
  56 H56           -3.6692    -0.9261    -2.1445 H       
  57 H57           -3.2866    -2.6007    -1.6212 H       
  58 H58           -5.8461    -1.9509    -2.2925 H       
  59 H59           -5.5395    -3.0032    -0.8720 H       
  60 H60           -6.3268    -0.0965    -0.9662 H       
  61 H61           -6.6673    -1.3193     0.2899 H       
  62 H62           10.6342     2.5313    13.4250 H       
  63 H63           11.4254     2.2199    11.8496 H       
  64 H64           10.6023     4.9151    13.0629 H       
  65 H65           12.1675     4.4601    12.3095 H       
  66 H66           11.2214     4.4228    10.0954 H       
  67 H67           10.2908     5.7693    10.8304 H       
@<TRIPOS>BOND
   1    1    2 2
   2    1    4 1
   3    2    3 1
   4    2    6 1
   5    3   17 am
   6    3   44 1
   7    4    5 2
   8    5    6 1
   9    5    7 1
  10    7    8 1
  11    7   45 1
  12    7   46 1
  13    8   23 1
  14    8   47 1
  15    8   48 1
  16    9   10 1
  17    9   23 1
  18    9   49 1
  19    9   50 1
  20   10   11 1
  21   10   51 1
  22   10   52 1
  23   11   12 2
  24   11   15 1
  25   12   13 1
  26   13   14 2
  27   14   15 1
  28   14   16 1
  29   16   20 am
  30   16   53 1
  31   17   18 2
  32   17   19 1
  33   19   24 1
  34   19   27 1
  35   19   54 1
  36   20   22 2
  37   20   21 1
  38   21   34 1
  39   21   37 1
  40   21   55 1
  41   24   25 1
  42   24   56 1
  43   24   57 1
  44   25   26 1
  45   25   58 1
  46   25   59 1
  47   26   27 1
  48   26   60 1
  49   26   61 1
  50   27   28 am
  51   28   29 2
  52   28   30 1
  53   30   31 1
  54   30   32 1
  55   30   33 1
  56   34   35 1
  57   34   38 am
  58   35   36 1
  59   35   62 1
  60   35   63 1
  61   36   37 1
  62   36   64 1
  63   36   65 1
  64   37   66 1
  65   37   67 1
  66   38   39 2
  67   38   42 1
  68   40   42 1
  69   41   42 1
  70   42   43 1

#	End of record

