#	Name: ASD01948284
#	Creating user name:	WinNT
#	Creation time:	15. 06. 2019 20:14

#	Modifying user name:	WinNT
#	Modification time:	15. 06. 2019 20:14

#	Program:	/corina/corina34_cracker 3.40 0067  02.08.2006

@<TRIPOS>MOLECULE
ASD01948284
  52   55    0    0    0
SMALL
NO_CHARGES


@<TRIPOS>ATOM
   1 C1             1.2865     5.2073    -2.0189 C.ar    
   2 C2             1.8841     4.9542    -3.2410 C.ar    
   3 C3             2.9175     4.0397    -3.3328 C.ar    
   4 C4             3.3573     3.3750    -2.2040 C.ar    
   5 C5             2.7609     3.6255    -0.9758 C.ar    
   6 C6             1.7214     4.5459    -0.8855 C.ar    
   7 N7             3.7922     0.6637    -0.0220 N.am    
   8 C8             4.1676     1.9722     0.0627 C.2     
   9 N9             3.2041     2.9541     0.1686 N.pl3   
  10 C10            4.7109    -0.3143    -0.1262 C.2     
  11 C11            6.0835     0.0008    -0.1495 C.2     
  12 C12            6.4798     1.3323    -0.0633 C.2     
  13 C13            5.5059     2.3242     0.0437 C.2     
  14 N14            5.8819     3.6772     0.1316 N.am    
  15 I15            1.2215     5.9581    -4.9563 I       
  16 O16            4.3531    -1.4796    -0.2004 O.2     
  17 F17            1.1383     4.7932     0.3078 F       
  18 C18            2.3690     0.3175     0.0069 C.3     
  19 S19            7.4670     4.1110    -0.0731 S.o2    
  20 O20            7.5175     5.4655     0.3535 O.2     
  21 O21            8.1976     3.1006     0.6084 O.2     
  22 C22            7.7401     3.9966    -1.8627 C.3     
  23 C23            7.0967    -1.0756    -0.2637 C.2     
  24 C24            6.8441    -2.4082    -0.3539 C.2     
  25 N25            8.4343    -0.9084    -0.3027 N.2     
  26 C26            9.0100    -2.0737    -0.4074 C.2     
  27 N27            8.0597    -3.0327    -0.4424 N.pl3   
  28 C28            9.0720     4.6702    -2.2368 C.3     
  29 C29            9.9549     3.5773    -2.8738 C.3     
  30 C30            8.9428     2.5262    -3.3931 C.3     
  31 C31            7.8601     2.5179    -2.2855 C.3     
  32 H32            0.4827     5.9253    -1.9496 H       
  33 H33            3.3813     3.8444    -4.2884 H       
  34 H34            4.1641     2.6609    -2.2774 H       
  35 H35            2.8341     3.1788     1.0366 H       
  36 H36            7.5276     1.5936    -0.0796 H       
  37 H37            5.2128     4.3558     0.3121 H       
  38 H38            1.9561     0.3932    -0.9990 H       
  39 H39            2.2506    -0.7025     0.3724 H       
  40 H40            1.8414     1.0042     0.6689 H       
  41 H41            6.9179     4.4729    -2.3968 H       
  42 H42            5.8737    -2.8822    -0.3552 H       
  43 H43           10.0751    -2.2442    -0.4604 H       
  44 H44            8.2105    -3.9881    -0.5162 H       
  45 H45            8.8963     5.4728    -2.9530 H       
  46 H46            9.5543     5.0659    -1.3429 H       
  47 H47           10.5350     3.9889    -3.6998 H       
  48 H48           10.6140     3.1356    -2.1264 H       
  49 H49            8.5172     2.8380    -4.3470 H       
  50 H50            9.4134     1.5469    -3.4805 H       
  51 H51            8.1808     1.9051    -1.4431 H       
  52 H52            6.9113     2.1563    -2.6821 H       
@<TRIPOS>BOND
   1    1    2 ar
   2    1    6 ar
   3    1   32 1
   4    2    3 ar
   5    2   15 1
   6    3    4 ar
   7    3   33 1
   8    4    5 ar
   9    4   34 1
  10    5    6 ar
  11    5    9 1
  12    6   17 1
  13    7    8 1
  14    7   10 am
  15    7   18 1
  16    8    9 1
  17    8   13 2
  18    9   35 1
  19   10   11 1
  20   10   16 2
  21   11   12 2
  22   11   23 1
  23   12   13 1
  24   12   36 1
  25   13   14 1
  26   14   19 am
  27   14   37 1
  28   18   38 1
  29   18   39 1
  30   18   40 1
  31   19   20 2
  32   19   21 2
  33   19   22 1
  34   22   28 1
  35   22   31 1
  36   22   41 1
  37   23   24 2
  38   23   25 1
  39   24   27 1
  40   24   42 1
  41   25   26 2
  42   26   27 1
  43   26   43 1
  44   27   44 1
  45   28   29 1
  46   28   45 1
  47   28   46 1
  48   29   30 1
  49   29   47 1
  50   29   48 1
  51   30   31 1
  52   30   49 1
  53   30   50 1
  54   31   51 1
  55   31   52 1

#	End of record

