#	Name: ASD01870450
#	Creating user name:	WinNT
#	Creation time:	15. 06. 2019 19:39

#	Modifying user name:	WinNT
#	Modification time:	15. 06. 2019 19:39

#	Program:	/corina/corina34_cracker 3.40 0067  02.08.2006

@<TRIPOS>MOLECULE
ASD01870450
  28   30    0    0    0
SMALL
NO_CHARGES


@<TRIPOS>ATOM
   1 C1            -0.0162     1.3436     0.0094 C.2     
   2 N2             0.0021    -0.0041     0.0020 N.am    
   3 O3             1.0292     1.9663     0.0028 O.2     
   4 C4             1.2110    -0.6803    -0.0132 C.2     
   5 O5             2.4265    -0.1115    -0.0212 O.3     
   6 C6             3.3443    -1.1020    -0.0355 C.2     
   7 C7             2.6750    -2.2648    -0.0360 C.2     
   8 N8             1.3589    -1.9817    -0.0163 N.2     
   9 C9            -1.2971     2.0600     0.0194 C.2     
  10 C10           -2.4826     1.4365     0.0221 C.2     
  11 S11           -3.7847     2.5297     0.0347 S.3     
  12 C12           -2.7266     3.9336     0.0369 C.ar    
  13 C13           -1.3944     3.5206     0.0336 C.ar    
  14 C14           -0.3760     4.4906     0.0399 C.ar    
  15 C15           -0.6925     5.8268     0.0535 C.ar    
  16 C16           -2.0190     6.2325     0.0615 C.ar    
  17 C17           -3.0286     5.2985     0.0458 C.ar    
  18 C18            3.2871    -3.6418    -0.0503 C.3     
  19 F19            3.4895    -4.0759     1.2641 F       
  20 F20            2.4263    -4.5280    -0.7067 F       
  21 F21            4.5138    -3.5999    -0.7217 F       
  22 H22           -0.8313    -0.5005     0.0073 H       
  23 H23            4.4174    -0.9807    -0.0448 H       
  24 H24           -2.5981     0.3627     0.0163 H       
  25 H25            0.6593     4.1832     0.0344 H       
  26 H26            0.0953     6.5655     0.0582 H       
  27 H27           -2.2599     7.2852     0.0729 H       
  28 H28           -4.0593     5.6209     0.0528 H       
@<TRIPOS>BOND
   1    1    2 am
   2    1    3 2
   3    1    9 1
   4    2    4 1
   5    2   22 1
   6    4    5 1
   7    4    8 2
   8    5    6 1
   9    6    7 2
  10    6   23 1
  11    7    8 1
  12    7   18 1
  13    9   10 2
  14    9   13 1
  15   10   11 1
  16   10   24 1
  17   11   12 1
  18   12   17 ar
  19   12   13 ar
  20   13   14 ar
  21   14   15 ar
  22   14   25 1
  23   15   16 ar
  24   15   26 1
  25   16   17 ar
  26   16   27 1
  27   17   28 1
  28   18   19 1
  29   18   20 1
  30   18   21 1

#	End of record

