#	Name: ASD04750005
#	Creating user name:	WinNT
#	Creation time:	15. 06. 2019 20:52

#	Modifying user name:	WinNT
#	Modification time:	15. 06. 2019 20:52

#	Program:	/corina/corina34_cracker 3.40 0067  02.08.2006

@<TRIPOS>MOLECULE
ASD04750005
  47   50    0    0    0
SMALL
NO_CHARGES


@<TRIPOS>ATOM
   1 C1             0.3495     2.4343    -3.5339 C.ar    
   2 C2            -0.1897     1.1909    -3.2553 C.ar    
   3 C3             0.4619     0.3288    -2.3996 C.ar    
   4 C4             1.6723     0.7102    -1.8098 C.ar    
   5 C5             2.2081     1.9649    -2.0963 C.ar    
   6 C6             1.5458     2.8190    -2.9549 C.ar    
   7 C7             2.5595    -0.0122    -0.8730 C.2     
   8 C8             3.7057     0.8417    -0.5632 C.2     
   9 C9             3.5038     2.1221    -1.3389 C.3     
  10 C10            4.7394     0.5446     0.2547 C.2     
  11 C11            5.7346     1.5752     0.5860 C.ar    
  12 C12            5.3329     2.8994     0.7940 C.ar    
  13 C13            7.0873     1.2355     0.7003 C.ar    
  14 C14            8.0142     2.2068     1.0110 C.ar    
  15 C15            7.6096     3.5170     1.2105 C.ar    
  16 C16            6.2712     3.8599     1.1041 C.ar    
  17 O17            2.3677    -1.1309    -0.4330 O.2     
  18 N18            4.6152     2.3224    -2.2785 N.3     
  19 C19            4.6808     1.2288    -3.2571 C.3     
  20 C20            4.7681     1.8122    -4.6688 C.3     
  21 C21            5.9180     0.3717    -2.9821 C.3     
  22 C22            5.9863    -0.7673    -4.0013 C.3     
  23 C23            6.0736    -0.1838    -5.4130 C.3     
  24 C24            4.8363     0.6732    -5.6881 C.3     
  25 Cl25           8.7843     4.7335     1.6026 Cl      
  26 H26           -0.1625     3.1045    -4.2084 H       
  27 H27           -1.1239     0.8952    -3.7094 H       
  28 H28            0.0382    -0.6409    -2.1840 H       
  29 H29            1.9629     3.7904    -3.1756 H       
  30 H30            3.4361     2.9673    -0.6539 H       
  31 H31            4.8347    -0.4498     0.6652 H       
  32 H32            4.2901     3.1681     0.7115 H       
  33 H33            7.4040     0.2146     0.5459 H       
  34 H34            9.0585     1.9461     1.0996 H       
  35 H35            5.9632     4.8831     1.2609 H       
  36 H36            4.5419     3.2167    -2.7399 H       
  37 H37            3.7858     0.6122    -3.1735 H       
  38 H38            3.8866     2.4228    -4.8647 H       
  39 H39            5.6630     2.4288    -4.7524 H       
  40 H40            6.8130     0.9883    -3.0657 H       
  41 H41            5.8558    -0.0439    -1.9764 H       
  42 H42            6.8677    -1.3778    -3.8054 H       
  43 H43            5.0913    -1.3838    -3.9177 H       
  44 H44            6.9685     0.4327    -5.4966 H       
  45 H45            6.1222    -0.9952    -6.1392 H       
  46 H46            3.9414     0.0567    -5.6044 H       
  47 H47            4.8985     1.0889    -6.6938 H       
@<TRIPOS>BOND
   1    1    2 ar
   2    1    6 ar
   3    1   26 1
   4    2    3 ar
   5    2   27 1
   6    3    4 ar
   7    3   28 1
   8    4    5 ar
   9    4    7 1
  10    5    6 ar
  11    5    9 1
  12    6   29 1
  13    7    8 1
  14    7   17 2
  15    8    9 1
  16    8   10 2
  17    9   18 1
  18    9   30 1
  19   10   11 1
  20   10   31 1
  21   11   12 ar
  22   11   13 ar
  23   12   16 ar
  24   12   32 1
  25   13   14 ar
  26   13   33 1
  27   14   15 ar
  28   14   34 1
  29   15   16 ar
  30   15   25 1
  31   16   35 1
  32   18   19 1
  33   18   36 1
  34   19   20 1
  35   19   21 1
  36   19   37 1
  37   20   24 1
  38   20   38 1
  39   20   39 1
  40   21   22 1
  41   21   40 1
  42   21   41 1
  43   22   23 1
  44   22   42 1
  45   22   43 1
  46   23   24 1
  47   23   44 1
  48   23   45 1
  49   24   46 1
  50   24   47 1

#	End of record

