#	Name: ASD04590282
#	Creating user name:	WinNT
#	Creation time:	15. 06. 2019 20:50

#	Modifying user name:	WinNT
#	Modification time:	15. 06. 2019 20:50

#	Program:	/corina/corina34_cracker 3.40 0067  02.08.2006

@<TRIPOS>MOLECULE
ASD04590282
  33   36    0    0    0
SMALL
NO_CHARGES


@<TRIPOS>ATOM
   1 C1            -0.0115     1.3916    -0.2026 C.ar    
   2 C2             0.0058     0.0044    -0.2108 C.ar    
   3 C3             1.1995    -0.6801    -0.1854 C.ar    
   4 C4             2.4051     0.0275    -0.1516 C.ar    
   5 C5             2.3816     1.4335    -0.1439 C.ar    
   6 C6             1.1682     2.1055    -0.1694 C.ar    
   7 N7             3.7063    -0.3517    -0.1218 N.2     
   8 C8             4.4743     0.7107    -0.0967 C.2     
   9 N9             3.7018     1.8410    -0.1090 N.pl3   
  10 C10            5.9511     0.6911    -0.0604 C.2     
  11 C11            6.7669    -0.4637    -0.0476 C.2     
  12 C12            8.0592    -0.0567    -0.0141 C.2     
  13 N13            8.0678     1.3029    -0.0058 N.pl3   
  14 N14            6.7402     1.7477    -0.0401 N.2     
  15 N15            6.3183    -1.7945    -0.0659 N.pl3   
  16 C16            7.2327    -2.8347    -0.1847 C.ar    
  17 N17            8.5126    -2.5631    -0.3898 N.ar    
  18 C18            9.4126    -3.5208    -0.5082 C.ar    
  19 C19            9.0483    -4.8494    -0.4221 C.ar    
  20 C20            7.7157    -5.1771    -0.2075 C.ar    
  21 C21            6.7961    -4.1520    -0.0813 C.ar    
  22 H22           -0.9552     1.9163    -0.2269 H       
  23 H23           -0.9250    -0.5428    -0.2369 H       
  24 H24            1.2051    -1.7601    -0.1913 H       
  25 H25            1.1474     3.1853    -0.1639 H       
  26 H26            4.0214     2.7568    -0.0963 H       
  27 H27            8.9279    -0.6982     0.0031 H       
  28 H28            8.8566     1.8670     0.0165 H       
  29 H29            5.3703    -1.9878     0.0043 H       
  30 H30           10.4477    -3.2618    -0.6750 H       
  31 H31            9.7919    -5.6264    -0.5210 H       
  32 H32            7.4054    -6.2091    -0.1367 H       
  33 H33            5.7519    -4.3710     0.0862 H       
@<TRIPOS>BOND
   1    1    2 ar
   2    1    6 ar
   3    1   22 1
   4    2    3 ar
   5    2   23 1
   6    3    4 ar
   7    3   24 1
   8    4    5 ar
   9    4    7 1
  10    5    6 ar
  11    5    9 1
  12    6   25 1
  13    7    8 2
  14    8    9 1
  15    8   10 1
  16    9   26 1
  17   10   11 1
  18   10   14 2
  19   11   12 2
  20   11   15 1
  21   12   13 1
  22   12   27 1
  23   13   14 1
  24   13   28 1
  25   15   16 1
  26   15   29 1
  27   16   17 ar
  28   16   21 ar
  29   17   18 ar
  30   18   19 ar
  31   18   30 1
  32   19   20 ar
  33   19   31 1
  34   20   21 ar
  35   20   32 1
  36   21   33 1

#	End of record

