#	Name: ASD01903190
#	Creating user name:	WinNT
#	Creation time:	15. 06. 2019 19:54

#	Modifying user name:	WinNT
#	Modification time:	15. 06. 2019 19:54

#	Program:	/corina/corina34_cracker 3.40 0067  02.08.2006

@<TRIPOS>MOLECULE
ASD01903190
  28   30    0    0    0
SMALL
NO_CHARGES


@<TRIPOS>ATOM
   1 S1            -0.0211     1.7049     0.0114 S.3     
   2 C2             0.0021    -0.0041     0.0020 C.2     
   3 N3             1.2221    -0.4387    -0.0120 N.2     
   4 C4             2.1845     0.4751    -0.0162 C.2     
   5 C5             1.7399     1.7439    -0.0052 C.2     
   6 N6            -1.1265    -0.8116     0.0092 N.pl3   
   7 C7            -2.3885    -0.2388     0.0246 C.ar    
   8 N8            -3.4552    -1.0244     0.0312 N.ar    
   9 C9            -4.6737    -0.5101     0.0459 C.ar    
  10 C10           -4.8260     0.8677     0.0543 C.ar    
  11 C11           -3.6886     1.6600     0.0470 C.ar    
  12 N12           -2.4993     1.0814     0.0377 N.ar    
  13 C13            3.6284     0.1262    -0.0319 C.2     
  14 C14            4.6494     0.8395    -0.6887 C.2     
  15 N15            5.7812     0.2233    -0.4705 N.2     
  16 N16            5.5296    -0.8990     0.3280 N.pl3   
  17 C17            4.2064    -0.9398     0.5921 C.2     
  18 C18            2.5979     2.9828    -0.0072 C.3     
  19 H19           -1.0321    -1.7770     0.0034 H       
  20 H20           -5.5395    -1.1557     0.0509 H       
  21 H21           -5.8093     1.3140     0.0659 H       
  22 H22           -3.7726     2.7367     0.0532 H       
  23 H23            4.5197     1.7391    -1.2720 H       
  24 H24            6.1921    -1.5348     0.6408 H       
  25 H25            3.6968    -1.6854     1.1843 H       
  26 H26            2.7946     3.2868    -1.0353 H       
  27 H27            2.0783     3.7855     0.5160 H       
  28 H28            3.5415     2.7720     0.4962 H       
@<TRIPOS>BOND
   1    1    2 1
   2    1    5 1
   3    2    3 2
   4    2    6 1
   5    3    4 1
   6    4    5 2
   7    4   13 1
   8    5   18 1
   9    6    7 1
  10    6   19 1
  11    7    8 ar
  12    7   12 ar
  13    8    9 ar
  14    9   10 ar
  15    9   20 1
  16   10   11 ar
  17   10   21 1
  18   11   12 ar
  19   11   22 1
  20   13   14 1
  21   13   17 2
  22   14   15 2
  23   14   23 1
  24   15   16 1
  25   16   17 1
  26   16   24 1
  27   17   25 1
  28   18   26 1
  29   18   27 1
  30   18   28 1

#	End of record

