#	Name: ASD01881237
#	Creating user name:	WinNT
#	Creation time:	15. 06. 2019 19:42

#	Modifying user name:	WinNT
#	Modification time:	15. 06. 2019 19:42

#	Program:	/corina/corina34_cracker 3.40 0067  02.08.2006

@<TRIPOS>MOLECULE
ASD01881237
  51   54    0    0    0
SMALL
NO_CHARGES


@<TRIPOS>ATOM
   1 N1             0.0437     1.3483    -0.5148 N.ar    
   2 C2             0.0789     0.0415    -0.6763 C.ar    
   3 N3             1.1839    -0.6531    -0.4944 N.ar    
   4 C4             2.3165    -0.0540    -0.1376 C.ar    
   5 C5             2.3237     1.3235     0.0431 C.ar    
   6 C6             1.1359     2.0215    -0.1583 C.ar    
   7 C7             3.5844     2.0435     0.4471 C.3     
   8 O8             4.3025     2.4397    -0.7231 O.3     
   9 C9             5.4703     3.1047    -0.5337 C.ar    
  10 C10            6.2197     3.5195    -1.6308 C.ar    
  11 C11            7.4004     4.1924    -1.4391 C.ar    
  12 C12            7.8577     4.4656    -0.1453 C.ar    
  13 C13            7.1010     4.0468     0.9543 C.ar    
  14 C14            5.9130     3.3757     0.7547 C.ar    
  15 C15            8.4270     4.7667    -2.3833 C.3     
  16 N16            9.4676     5.3671    -1.5408 N.am    
  17 C17            9.1348     5.1908    -0.2506 C.2     
  18 O18            9.7945     5.5760     0.6954 O.2     
  19 Cl19           7.6535     4.3766     2.5666 Cl      
  20 N20            1.0912     3.3978     0.0090 N.pl3   
  21 C21           -0.1292     4.0736    -0.0812 C.ar    
  22 C22           -1.3008     3.4532     0.3335 C.ar    
  23 C23           -2.5047     4.1238     0.2435 C.ar    
  24 C24           -2.5447     5.4115    -0.2589 C.ar    
  25 C25           -1.3803     6.0319    -0.6732 C.ar    
  26 C26           -0.1722     5.3691    -0.5805 C.ar    
  27 C27           10.3767     7.5375    -2.2072 C.3     
  28 C28           10.6711     6.0471    -2.0261 C.3     
  29 O29            3.4478    -0.7773     0.0475 O.3     
  30 C30            3.3564    -2.1886    -0.1579 C.3     
  31 H31           -0.8240    -0.4756    -0.9658 H       
  32 H32            3.3269     2.9267     1.0318 H       
  33 H33            4.2059     1.3789     1.0472 H       
  34 H34            5.8727     3.3115    -2.6322 H       
  35 H35            5.3286     3.0527     1.6035 H       
  36 H36            8.8539     3.9752    -2.9993 H       
  37 H37            7.9704     5.5287    -3.0149 H       
  38 H38            1.9067     3.8913     0.1886 H       
  39 H39           -1.2702     2.4473     0.7257 H       
  40 H40           -3.4160     3.6418     0.5655 H       
  41 H41           -3.4875     5.9337    -0.3283 H       
  42 H42           -1.4150     7.0376    -1.0654 H       
  43 H43            0.7368     5.8542    -0.9042 H       
  44 H44           11.2721     8.0435    -2.5683 H       
  45 H45            9.5714     7.6635    -2.9309 H       
  46 H46           10.0768     7.9674    -1.2515 H       
  47 H47           11.4764     5.9212    -1.3024 H       
  48 H48           10.9709     5.6172    -2.9818 H       
  49 H49            4.3292    -2.6458     0.0227 H       
  50 H50            2.6238    -2.6092     0.5309 H       
  51 H51            3.0464    -2.3871    -1.1838 H       
@<TRIPOS>BOND
   1    1    2 ar
   2    1    6 ar
   3    2    3 ar
   4    2   31 1
   5    3    4 ar
   6    4    5 ar
   7    4   29 1
   8    5    6 ar
   9    5    7 1
  10    6   20 1
  11    7    8 1
  12    7   32 1
  13    7   33 1
  14    8    9 1
  15    9   10 ar
  16    9   14 ar
  17   10   11 ar
  18   10   34 1
  19   11   12 ar
  20   11   15 1
  21   12   13 ar
  22   12   17 1
  23   13   14 ar
  24   13   19 1
  25   14   35 1
  26   15   16 1
  27   15   36 1
  28   15   37 1
  29   16   17 am
  30   16   28 1
  31   17   18 2
  32   20   21 1
  33   20   38 1
  34   21   22 ar
  35   21   26 ar
  36   22   23 ar
  37   22   39 1
  38   23   24 ar
  39   23   40 1
  40   24   25 ar
  41   24   41 1
  42   25   26 ar
  43   25   42 1
  44   26   43 1
  45   27   28 1
  46   27   44 1
  47   27   45 1
  48   27   46 1
  49   28   47 1
  50   28   48 1
  51   29   30 1
  52   30   49 1
  53   30   50 1
  54   30   51 1

#	End of record

