#	Name: ASD02560285
#	Creating user name:	WinNT
#	Creation time:	15. 06. 2019 20:25

#	Modifying user name:	WinNT
#	Modification time:	15. 06. 2019 20:25

#	Program:	/corina/corina34_cracker 3.40 0067  02.08.2006

@<TRIPOS>MOLECULE
ASD02560285
  31   33    0    0    0
SMALL
NO_CHARGES


@<TRIPOS>ATOM
   1 C1             0.0176     1.3065     0.3301 C.2     
   2 O2             0.0208    -0.0314     0.1723 O.3     
   3 C3            -1.2698    -0.4128     0.1527 C.2     
   4 N4            -1.9970     0.6683     0.2945 N.2     
   5 N5            -1.2232     1.6901     0.4055 N.2     
   6 N6            -1.7414    -1.7061     0.0091 N.pl3   
   7 C7             1.2312     2.1963     0.4112 C.3     
   8 C8             1.6634     2.3266     1.8490 C.ar    
   9 C9             2.5717     1.4299     2.3824 C.ar    
  10 C10            2.9685     1.5503     3.7024 C.ar    
  11 C11            2.4576     2.5663     4.4880 C.ar    
  12 C12            1.5497     3.4623     3.9557 C.ar    
  13 C13            1.1564     3.3463     2.6343 C.ar    
  14 C14           -3.1049    -1.9674     0.1259 C.ar    
  15 C15           -3.6880    -3.0406    -0.5474 C.ar    
  16 C16           -5.0411    -3.2655    -0.4050 C.ar    
  17 N17           -5.7811    -2.4806     0.3556 N.ar    
  18 C18           -5.2669    -1.4553     1.0087 C.ar    
  19 C19           -3.9211    -1.1661     0.9238 C.ar    
  20 Cl20           3.2131     0.1535     1.3960 Cl      
  21 Cl21           0.0166     4.4721     1.9657 Cl      
  22 H22           -1.1226    -2.4305    -0.1729 H       
  23 H23            2.0411     1.7603    -0.1736 H       
  24 H24            0.9863     3.1817     0.0147 H       
  25 H25            3.6774     0.8501     4.1191 H       
  26 H26            2.7677     2.6599     5.5183 H       
  27 H27            1.1503     4.2555     4.5703 H       
  28 H28           -3.0883    -3.6862    -1.1719 H       
  29 H29           -5.5012    -4.0941    -0.9226 H       
  30 H30           -5.9074    -0.8376     1.6207 H       
  31 H31           -3.5067    -0.3258     1.4611 H       
@<TRIPOS>BOND
   1    1    2 1
   2    1    7 1
   3    1    5 2
   4    2    3 1
   5    3    4 2
   6    3    6 1
   7    4    5 1
   8    6   14 1
   9    6   22 1
  10    7    8 1
  11    7   23 1
  12    7   24 1
  13    8    9 ar
  14    8   13 ar
  15    9   10 ar
  16    9   20 1
  17   10   11 ar
  18   10   25 1
  19   11   12 ar
  20   11   26 1
  21   12   13 ar
  22   12   27 1
  23   13   21 1
  24   14   15 ar
  25   14   19 ar
  26   15   16 ar
  27   15   28 1
  28   16   17 ar
  29   16   29 1
  30   17   18 ar
  31   18   19 ar
  32   18   30 1
  33   19   31 1

#	End of record

