#	Name: ASD01151067
#	Creating user name:	WinNT
#	Creation time:	15. 06. 2019 19:05

#	Modifying user name:	WinNT
#	Modification time:	15. 06. 2019 19:05

#	Program:	/corina/corina34_cracker 3.40 0067  02.08.2006

@<TRIPOS>MOLECULE
ASD01151067
  52   55    0    0    0
SMALL
NO_CHARGES


@<TRIPOS>ATOM
   1 C1            -0.0269     1.3848    -0.0037 C.ar    
   2 C2            -0.0039    -0.0076    -0.0057 C.ar    
   3 C3             1.2105    -0.6769    -0.0189 C.ar    
   4 C4             2.3994     0.0420    -0.0301 C.ar    
   5 C5             2.3758     1.4241    -0.0282 C.ar    
   6 C6             1.1713     2.0980    -0.0150 C.ar    
   7 C7            -1.3221     2.1071     0.0042 C.2     
   8 N8            -2.4490     1.4344     0.0094 N.2     
   9 N9            -3.6959     2.0631     0.0169 N.am    
  10 C10           -3.8026     3.4105     0.0192 C.2     
  11 C11           -2.5902     4.2097     0.0138 C.2     
  12 C12           -2.2333     5.6238     0.0136 C.2     
  13 N13           -0.9299     5.6477     0.0066 N.2     
  14 O14           -0.4338     4.5433     0.0025 O.3     
  15 C15           -1.3442     3.5643     0.0123 C.2     
  16 O16           -4.8979     3.9457     0.0254 O.2     
  17 C17           -4.9120     1.2463     0.0219 C.3     
  18 C18           -5.3364     0.9685    -1.3972 C.ar    
  19 C19           -3.1702     6.8041     0.0201 C.3     
  20 C20           -6.1940     1.8382    -2.0446 C.ar    
  21 C21           -4.8634    -0.1528    -2.0529 C.ar    
  22 C22           -5.2519    -0.4078    -3.3545 C.ar    
  23 C23           -6.1144     0.4594    -4.0013 C.ar    
  24 C24           -6.5833     1.5842    -3.3463 C.ar    
  25 Cl25          -6.6028     0.1398    -5.6362 Cl      
  26 N26            1.2386    -2.0760    -0.0205 N.am    
  27 C27            0.3008    -2.7696     0.6547 C.2     
  28 C28            0.2585    -4.2728     0.5558 C.3     
  29 O29           -0.5091    -2.1840     1.3419 O.2     
  30 C30           -2.9156     7.6504     1.2691 C.3     
  31 C31           -2.9291     7.6536    -1.2293 C.3     
  32 H32           -0.9292    -0.5646     0.0035 H       
  33 H33            3.3445    -0.4804    -0.0401 H       
  34 H34            3.3027     1.9783    -0.0370 H       
  35 H35            1.1568     3.1779    -0.0139 H       
  36 H36           -4.7148     0.3041     0.5332 H       
  37 H37           -5.7072     1.7817     0.5408 H       
  38 H38           -4.2009     6.4498     0.0253 H       
  39 H39           -6.5603     2.7161    -1.5331 H       
  40 H40           -4.1899    -0.8295    -1.5480 H       
  41 H41           -4.8821    -1.2837    -3.8668 H       
  42 H42           -7.2536     2.2636    -3.8519 H       
  43 H43            1.9331    -2.5466    -0.5074 H       
  44 H44            1.0573    -4.6163    -0.1014 H       
  45 H45            0.3919    -4.7060     1.5470 H       
  46 H46           -0.7045    -4.5832     0.1502 H       
  47 H47           -1.8848     8.0048     1.2640 H       
  48 H48           -3.5932     8.5042     1.2738 H       
  49 H49           -3.0873     7.0453     2.1593 H       
  50 H50           -3.1104     7.0507    -2.1191 H       
  51 H51           -3.6067     8.5073    -1.2246 H       
  52 H52           -1.8983     8.0079    -1.2345 H       
@<TRIPOS>BOND
   1    1    2 ar
   2    1    6 ar
   3    1    7 1
   4    2    3 ar
   5    2   32 1
   6    3    4 ar
   7    3   26 1
   8    4    5 ar
   9    4   33 1
  10    5    6 ar
  11    5   34 1
  12    6   35 1
  13    7    8 2
  14    7   15 1
  15    8    9 1
  16    9   10 am
  17    9   17 1
  18   10   11 1
  19   10   16 2
  20   11   12 1
  21   11   15 2
  22   12   13 2
  23   12   19 1
  24   13   14 1
  25   14   15 1
  26   17   18 1
  27   17   36 1
  28   17   37 1
  29   18   21 ar
  30   18   20 ar
  31   19   30 1
  32   19   31 1
  33   19   38 1
  34   20   24 ar
  35   20   39 1
  36   21   22 ar
  37   21   40 1
  38   22   23 ar
  39   22   41 1
  40   23   24 ar
  41   23   25 1
  42   24   42 1
  43   26   27 am
  44   26   43 1
  45   27   28 1
  46   27   29 2
  47   28   44 1
  48   28   45 1
  49   28   46 1
  50   30   47 1
  51   30   48 1
  52   30   49 1
  53   31   50 1
  54   31   51 1
  55   31   52 1

#	End of record

