#	Name: ASD03731642
#	Creating user name:	WinNT
#	Creation time:	15. 06. 2019 20:46

#	Modifying user name:	WinNT
#	Modification time:	15. 06. 2019 20:46

#	Program:	/corina/corina34_cracker 3.40 0067  02.08.2006

@<TRIPOS>MOLECULE
ASD03731642
  37   38    0    0    0
SMALL
NO_CHARGES


@<TRIPOS>ATOM
   1 C1            -0.1361     1.4672     0.0333 C.2     
   2 C2            -0.0850    -0.0063     0.0191 C.ar    
   3 C3             1.1402    -0.6648    -0.1384 C.ar    
   4 C4             1.1828    -2.0445    -0.1510 C.ar    
   5 C5             0.0129    -2.7784    -0.0079 C.ar    
   6 C6            -1.2079    -2.1271     0.1491 C.ar    
   7 C7            -1.2595    -0.7502     0.1687 C.ar    
   8 O8             0.8870     2.1123    -0.0920 O.2     
   9 N9            -1.3176     2.0991     0.1795 N.am    
  10 O10            0.0593    -4.1349    -0.0213 O.3     
  11 C11           -0.1523    -4.7691    -1.2052 C.ar    
  12 C12           -0.0462    -6.1551    -1.2830 C.ar    
  13 C13           -0.2632    -6.7965    -2.4915 C.ar    
  14 C14           -0.5844    -6.0603    -3.6171 C.ar    
  15 C15           -0.6897    -4.6842    -3.5400 C.ar    
  16 C16           -0.4796    -4.0380    -2.3358 C.ar    
  17 O17            0.2701    -6.8776    -0.1753 O.3     
  18 C18            0.3616    -8.2953    -0.3296 C.3     
  19 F19            1.3505    -8.5990    -1.2715 F       
  20 F20            0.6928    -8.8777     0.8985 F       
  21 F21           -0.8689    -8.7971    -0.7670 F       
  22 S22           -1.3750     3.7540     0.1954 S.o2    
  23 O23           -2.7501     4.0551     0.3891 O.2     
  24 O24           -0.4001     4.1292     1.1587 O.2     
  25 C25           -0.8451     4.2413    -1.4697 C.3     
  26 F26           -2.3431    -2.8464     0.2875 F       
  27 F27            2.2789     0.0487    -0.2782 F       
  28 H28            2.1274    -2.5537    -0.2728 H       
  29 H29           -2.2064    -0.2463     0.2949 H       
  30 H30           -2.1342     1.5845     0.2754 H       
  31 H31           -0.1812    -7.8715    -2.5547 H       
  32 H32           -0.7530    -6.5616    -4.5588 H       
  33 H33           -0.9404    -4.1128    -4.4216 H       
  34 H34           -0.5665    -2.9631    -2.2774 H       
  35 H35           -1.5273     3.8176    -2.2066 H       
  36 H36           -0.8531     5.3283    -1.5499 H       
  37 H37            0.1635     3.8709    -1.6529 H       
@<TRIPOS>BOND
   1    1    2 1
   2    1    8 2
   3    1    9 am
   4    2    3 ar
   5    2    7 ar
   6    3    4 ar
   7    3   27 1
   8    4    5 ar
   9    4   28 1
  10    5    6 ar
  11    5   10 1
  12    6    7 ar
  13    6   26 1
  14    7   29 1
  15    9   22 am
  16    9   30 1
  17   10   11 1
  18   11   12 ar
  19   11   16 ar
  20   12   13 ar
  21   12   17 1
  22   13   14 ar
  23   13   31 1
  24   14   15 ar
  25   14   32 1
  26   15   16 ar
  27   15   33 1
  28   16   34 1
  29   17   18 1
  30   18   19 1
  31   18   20 1
  32   18   21 1
  33   22   23 2
  34   22   24 2
  35   22   25 1
  36   25   35 1
  37   25   36 1
  38   25   37 1

#	End of record

