#	Name: ASD05940095
#	Creating user name:	WinNT
#	Creation time:	15. 06. 2019 21:04

#	Modifying user name:	WinNT
#	Modification time:	15. 06. 2019 21:04

#	Program:	/corina/corina34_cracker 3.40 0067  02.08.2006

@<TRIPOS>MOLECULE
ASD05940095
  56   59    0    0    0
SMALL
NO_CHARGES


@<TRIPOS>ATOM
   1 C1             2.4236     1.3707     0.6565 C.ar    
   2 C2             2.5344    -0.0052     0.6660 C.ar    
   3 C3             1.3001     1.9730     0.1055 C.ar    
   4 C4             0.2881     1.1911    -0.4359 C.ar    
   5 C5             0.3990    -0.1849    -0.4263 C.ar    
   6 C6             1.5225    -0.7872     0.1247 C.ar    
   7 N7             1.6349    -2.1833     0.1344 N.am    
   8 C8             1.1617    -2.9048    -0.9010 C.2     
   9 C9             1.3744    -4.3962    -0.9399 C.3     
  10 O10            0.5646    -2.3536    -1.8015 O.2     
  11 N11            1.1874     3.3691     0.0962 N.am    
  12 C12            2.2896     4.1333    -0.0369 C.2     
  13 C13            2.1840     5.6329     0.0680 C.3     
  14 O14            3.3666     3.6140    -0.2412 O.2     
  15 C15            3.5688     6.2561    -0.1190 C.3     
  16 C16            3.4615     7.7786    -0.0124 C.3     
  17 C17            2.5168     8.3004    -1.0969 C.3     
  18 C18            1.1320     7.6773    -0.9099 C.3     
  19 C19            1.2393     6.1548    -1.0165 C.3     
  20 C20            0.5847     8.0548     0.4680 C.3     
  21 C21            1.6367     6.0105     1.4460 C.3     
  22 C22            1.5294     7.5330     1.5525 C.3     
  23 C23            2.9142     8.1561     1.3655 C.3     
  24 C24            0.7439    -4.9683    -2.2112 C.3     
  25 C25            0.9599    -6.4824    -2.2507 C.3     
  26 C26            0.3294    -7.0545    -3.5219 C.3     
  27 H27            3.2085     1.9786     1.0815 H       
  28 H28            3.4083    -0.4736     1.0942 H       
  29 H29           -0.5857     1.6594    -0.8641 H       
  30 H30           -0.3882    -0.7930    -0.8470 H       
  31 H31            2.0534    -2.6310     0.8863 H       
  32 H32            2.4430    -4.6110    -0.9359 H       
  33 H33            0.9088    -4.8525    -0.0664 H       
  34 H34            0.3161     3.7860     0.1855 H       
  35 H35            4.2418     5.8843     0.6536 H       
  36 H36            3.9587     5.9871    -1.1007 H       
  37 H37            4.4481     8.2225    -0.1456 H       
  38 H38            2.4404     9.3851    -1.0210 H       
  39 H39            2.9067     8.0315    -2.0786 H       
  40 H40            0.4590     8.0490    -1.6825 H       
  41 H41            1.6292     5.8858    -1.9982 H       
  42 H42            0.2527     5.7108    -0.8833 H       
  43 H43            0.5083     9.1395     0.5439 H       
  44 H44           -0.4019     7.6109     0.6012 H       
  45 H45            0.6501     5.5665     1.5792 H       
  46 H46            2.3097     5.6387     2.2186 H       
  47 H47            1.1395     7.8019     2.5342 H       
  48 H48            3.5872     7.7843     2.1381 H       
  49 H49            2.8378     9.2408     1.4414 H       
  50 H50           -0.3247    -4.7534    -2.2152 H       
  51 H51            1.2096    -4.5119    -3.0847 H       
  52 H52            2.0285    -6.6973    -2.2467 H       
  53 H53            0.4943    -6.9387    -1.3771 H       
  54 H54           -0.7392    -6.8397    -3.5260 H       
  55 H55            0.7951    -6.5982    -4.3955 H       
  56 H56            0.4833    -8.1332    -3.5501 H       
@<TRIPOS>BOND
   1    1    2 ar
   2    1    3 ar
   3    1   27 1
   4    2    6 ar
   5    2   28 1
   6    3    4 ar
   7    3   11 1
   8    4    5 ar
   9    4   29 1
  10    5    6 ar
  11    5   30 1
  12    6    7 1
  13    7    8 am
  14    7   31 1
  15    8    9 1
  16    8   10 2
  17    9   24 1
  18    9   32 1
  19    9   33 1
  20   11   12 am
  21   11   34 1
  22   12   13 1
  23   12   14 2
  24   13   15 1
  25   13   21 1
  26   13   19 1
  27   15   16 1
  28   15   35 1
  29   15   36 1
  30   16   17 1
  31   16   23 1
  32   16   37 1
  33   17   18 1
  34   17   38 1
  35   17   39 1
  36   18   19 1
  37   18   20 1
  38   18   40 1
  39   19   41 1
  40   19   42 1
  41   20   22 1
  42   20   43 1
  43   20   44 1
  44   21   22 1
  45   21   45 1
  46   21   46 1
  47   22   23 1
  48   22   47 1
  49   23   48 1
  50   23   49 1
  51   24   25 1
  52   24   50 1
  53   24   51 1
  54   25   26 1
  55   25   52 1
  56   25   53 1
  57   26   54 1
  58   26   55 1
  59   26   56 1

#	End of record

