#	Name: ASD03090256
#	Creating user name:	WinNT
#	Creation time:	15. 06. 2019 20:28

#	Modifying user name:	WinNT
#	Modification time:	15. 06. 2019 20:28

#	Program:	/corina/corina34_cracker 3.40 0067  02.08.2006

@<TRIPOS>MOLECULE
ASD03090256
  49   51    0    0    0
SMALL
NO_CHARGES


@<TRIPOS>ATOM
   1 C1             0.2725     1.1463     0.7993 C.ar    
   2 N2            -0.8385     1.5637     1.3851 N.ar    
   3 C3            -1.9789     0.9183     1.2502 C.ar    
   4 C4            -2.0530    -0.2394     0.4770 C.ar    
   5 C5            -0.8952    -0.7083    -0.1568 C.ar    
   6 C6             0.2769     0.0036     0.0075 C.ar    
   7 C7            -3.3348    -0.9620     0.3285 C.2     
   8 N8            -6.8378    -1.2296     0.4589 N.pl3   
   9 C9            -7.3455    -0.0365     0.9837 C.ar    
  10 C10           -6.6094     0.6814     1.9171 C.ar    
  11 C11           -7.1127     1.8594     2.4339 C.ar    
  12 C12           -8.3503     2.3241     2.0224 C.ar    
  13 C13           -9.0863     1.6096     1.0920 C.ar    
  14 C14           -8.5841     0.4349     0.5676 C.ar    
  15 N15           -4.5352    -0.4670     0.5572 N.2     
  16 C16           -5.4591    -1.4006     0.3206 C.2     
  17 N17           -4.8629    -2.5057    -0.0626 N.2     
  18 N18           -3.4831    -2.2450    -0.0713 N.pl3   
  19 C19           -2.4153    -3.1808    -0.4325 C.3     
  20 F20           -8.8408     3.4762     2.5296 F       
  21 C21           -2.1559    -3.0991    -1.9148 C.2     
  22 N22           -1.2086    -3.8757    -2.4769 N.am    
  23 O23           -2.7996    -2.3346    -2.6018 O.2     
  24 C24           -0.9565    -3.7963    -3.9179 C.3     
  25 O25            1.4215     1.8463     0.9693 O.3     
  26 C26            1.3540     3.0150     1.7888 C.3     
  27 C27            2.7363     3.6666     1.8627 C.3     
  28 C28          -10.4332     2.1178     0.6464 C.3     
  29 F29          -10.9793     1.2329    -0.2895 F       
  30 F30          -11.2853     2.2116     1.7520 F       
  31 F31          -10.2854     3.3808     0.0631 F       
  32 H32           -2.8650     1.2895     1.7436 H       
  33 H33           -0.9194    -1.6021    -0.7626 H       
  34 H34            1.1887    -0.3287    -0.4665 H       
  35 H35           -7.4437    -1.9382     0.1912 H       
  36 H36           -5.6443     0.3188     2.2389 H       
  37 H37           -6.5406     2.4180     3.1599 H       
  38 H38           -9.1583    -0.1218    -0.1582 H       
  39 H39           -1.5062    -2.9217     0.1102 H       
  40 H40           -2.7175    -4.1951    -0.1719 H       
  41 H41           -0.6938    -4.4872    -1.9274 H       
  42 H42           -1.8656    -4.0554    -4.4606 H       
  43 H43           -0.6543    -2.7820    -4.1785 H       
  44 H44           -0.1620    -4.4926    -4.1866 H       
  45 H45            0.6426     3.7199     1.3585 H       
  46 H46            1.0291     2.7373     2.7915 H       
  47 H47            3.4477     2.9617     2.2930 H       
  48 H48            3.0612     3.9442     0.8600 H       
  49 H49            2.6848     4.5580     2.4878 H       
@<TRIPOS>BOND
   1    1    2 ar
   2    1   25 1
   3    1    6 ar
   4    2    3 ar
   5    3    4 ar
   6    3   32 1
   7    4    5 ar
   8    4    7 1
   9    5    6 ar
  10    5   33 1
  11    6   34 1
  12    7   15 2
  13    7   18 1
  14    8    9 1
  15    8   16 1
  16    8   35 1
  17    9   10 ar
  18    9   14 ar
  19   10   11 ar
  20   10   36 1
  21   11   12 ar
  22   11   37 1
  23   12   13 ar
  24   12   20 1
  25   13   14 ar
  26   13   28 1
  27   14   38 1
  28   15   16 1
  29   16   17 2
  30   17   18 1
  31   18   19 1
  32   19   21 1
  33   19   39 1
  34   19   40 1
  35   21   22 am
  36   21   23 2
  37   22   24 1
  38   22   41 1
  39   24   42 1
  40   24   43 1
  41   24   44 1
  42   25   26 1
  43   26   27 1
  44   26   45 1
  45   26   46 1
  46   27   47 1
  47   27   48 1
  48   27   49 1
  49   28   29 1
  50   28   30 1
  51   28   31 1

#	End of record

