#	Name: ASD06170085
#	Creating user name:	WinNT
#	Creation time:	15. 06. 2019 21:05

#	Modifying user name:	WinNT
#	Modification time:	15. 06. 2019 21:05

#	Program:	/corina/corina34_cracker 3.40 0067  02.08.2006

@<TRIPOS>MOLECULE
ASD06170085
  60   64    0    0    0
SMALL
NO_CHARGES


@<TRIPOS>ATOM
   1 N1             0.0284    -1.9538     0.7847 N.pl3   
   2 N2             0.1853    -0.7198     0.1467 N.am    
   3 C3             1.5027    -0.4993    -0.0440 C.2     
   4 C4             2.2065    -1.6672     0.5091 C.2     
   5 C5             1.2332    -2.5158     0.9993 C.2     
   6 C6             3.6575    -1.8876     0.5339 C.2     
   7 O7             4.1101    -2.9050     1.0249 O.2     
   8 N8             4.4885    -0.9632     0.0130 N.am    
   9 C9            -0.8498     0.1417    -0.2309 C.ar    
  10 C10           -0.7108     1.5131    -0.0612 C.ar    
  11 C11           -1.7346     2.3610    -0.4356 C.ar    
  12 C12           -2.8974     1.8459    -0.9786 C.ar    
  13 C13           -3.0390     0.4809    -1.1489 C.ar    
  14 C14           -2.0166    -0.3721    -0.7818 C.ar    
  15 O15            2.0093     0.4740    -0.5703 O.2     
  16 C16            1.4783    -3.8463     1.6633 C.3     
  17 C17           -1.2559    -2.5450     1.1685 C.3     
  18 C18            5.8747    -1.1196     0.1354 C.ar    
  19 C19            6.4384    -2.3876     0.0778 C.ar    
  20 C20            7.8068    -2.5409     0.1982 C.ar    
  21 C21            8.6173    -1.4261     0.3770 C.ar    
  22 C22            8.0534    -0.1608     0.4344 C.ar    
  23 C23            6.6863    -0.0066     0.3088 C.ar    
  24 O24            9.9636    -1.5764     0.4960 O.3     
  25 N25           12.1715    -1.8704    -2.9750 N.ar    
  26 C26           10.8608    -1.8257    -3.0282 C.ar    
  27 C27           10.0844    -1.7270    -1.8808 C.ar    
  28 C28           10.6961    -1.6733    -0.6405 C.ar    
  29 C29           12.1080    -1.7221    -0.5951 C.ar    
  30 C30           12.7986    -1.6730     0.6245 C.ar    
  31 C31           14.1586    -1.7225     0.6353 C.ar    
  32 C32           14.8800    -1.8222    -0.5578 C.ar    
  33 C33           14.2312    -1.8719    -1.7709 C.ar    
  34 C34           12.8286    -1.8230    -1.8102 C.ar    
  35 O35           16.2370    -1.8699    -0.5199 O.3     
  36 C36           16.8523    -1.8139     0.7686 C.3     
  37 F37            8.3562    -3.7739     0.1427 F       
  38 H38            4.1264    -0.1896    -0.4467 H       
  39 H39            0.1969     1.9160     0.3634 H       
  40 H40           -1.6271     3.4276    -0.3039 H       
  41 H41           -3.6968     2.5110    -1.2699 H       
  42 H42           -3.9484     0.0817    -1.5732 H       
  43 H43           -2.1262    -1.4377    -0.9189 H       
  44 H44            1.4827    -4.6334     0.9093 H       
  45 H45            2.4416    -3.8260     2.1730 H       
  46 H46            0.6879    -4.0418     2.3880 H       
  47 H47           -1.6755    -3.0848     0.3197 H       
  48 H48           -1.1048    -3.2346     1.9990 H       
  49 H49           -1.9430    -1.7553     1.4725 H       
  50 H50            5.8079    -3.2534    -0.0608 H       
  51 H51            8.6836     0.7052     0.5733 H       
  52 H52            6.2483     0.9798     0.3495 H       
  53 H53           10.3726    -1.8669    -3.9906 H       
  54 H54            9.0076    -1.6916    -1.9563 H       
  55 H55           12.2525    -1.5957     1.5531 H       
  56 H56           14.6866    -1.6841     1.5766 H       
  57 H57           14.7978    -1.9482    -2.6871 H       
  58 H58           17.9355    -1.8607     0.6564 H       
  59 H59           16.5782    -0.8813     1.2619 H       
  60 H60           16.5126    -2.6567     1.3705 H       
@<TRIPOS>BOND
   1    1    2 1
   2    1    5 1
   3    1   17 1
   4    2    3 am
   5    2    9 1
   6    3    4 1
   7    3   15 2
   8    4    5 2
   9    4    6 1
  10    5   16 1
  11    6    7 2
  12    6    8 am
  13    8   18 1
  14    8   38 1
  15    9   10 ar
  16    9   14 ar
  17   10   11 ar
  18   10   39 1
  19   11   12 ar
  20   11   40 1
  21   12   13 ar
  22   12   41 1
  23   13   14 ar
  24   13   42 1
  25   14   43 1
  26   16   44 1
  27   16   45 1
  28   16   46 1
  29   17   47 1
  30   17   48 1
  31   17   49 1
  32   18   19 ar
  33   18   23 ar
  34   19   20 ar
  35   19   50 1
  36   20   21 ar
  37   20   37 1
  38   21   22 ar
  39   21   24 1
  40   22   23 ar
  41   22   51 1
  42   23   52 1
  43   24   28 1
  44   25   26 ar
  45   25   34 ar
  46   26   27 ar
  47   26   53 1
  48   27   28 ar
  49   27   54 1
  50   28   29 ar
  51   29   30 ar
  52   29   34 ar
  53   30   31 ar
  54   30   55 1
  55   31   32 ar
  56   31   56 1
  57   32   33 ar
  58   32   35 1
  59   33   34 ar
  60   33   57 1
  61   35   36 1
  62   36   58 1
  63   36   59 1
  64   36   60 1

#	End of record

