#	Name: ASD01884129
#	Creating user name:	WinNT
#	Creation time:	15. 06. 2019 19:47

#	Modifying user name:	WinNT
#	Modification time:	15. 06. 2019 19:47

#	Program:	/corina/corina34_cracker 3.40 0067  02.08.2006

@<TRIPOS>MOLECULE
ASD01884129
  46   50    0    0    0
SMALL
NO_CHARGES


@<TRIPOS>ATOM
   1 C1             0.0169     1.2998     0.1066 C.2     
   2 C2            -0.0324    -0.0493    -0.1171 C.2     
   3 C3            -1.2846    -0.6955    -0.2074 C.2     
   4 C4            -2.4244     0.0105    -0.0747 C.2     
   5 N5            -2.3862     1.3561     0.1481 N.pl3   
   6 C6            -1.1847     2.0147     0.2480 C.2     
   7 N7            -1.4642     3.2914     0.4619 N.2     
   8 C8            -3.3476     2.3086     0.3188 C.2     
   9 N9            -2.7403     3.4519     0.4983 N.2     
  10 C10           -4.8376     2.0841     0.3007 C.3     
  11 N11            1.1441    -0.7797    -0.2553 N.pl3   
  12 C12            1.5336    -1.7989     0.7334 C.3     
  13 C13            1.5332    -3.1567     0.0330 C.3     
  14 C14            2.2640    -3.0821    -1.2817 C.ar    
  15 C15            2.4940    -1.8960    -1.9426 C.ar    
  16 C16            2.0434    -0.5696    -1.3950 C.3     
  17 C17           -5.3236     1.7716     1.7175 C.3     
  18 C18           -6.8316     1.6266     1.9312 C.3     
  19 C19           -5.9315     0.3899     1.9671 C.3     
  20 C20            2.7162    -4.2732    -1.8358 C.ar    
  21 C21            3.3861    -4.2766    -3.0417 C.ar    
  22 C22            3.6098    -3.0860    -3.7073 C.ar    
  23 C23            3.1642    -1.9011    -3.1580 C.ar    
  24 C24            1.3429     2.0088     0.2062 C.3     
  25 F25            1.7848     2.3537    -1.0756 F       
  26 F26            1.1954     3.1676     0.9762 F       
  27 F27            2.2795     1.1634     0.8106 F       
  28 H28           -1.3289    -1.7601    -0.3839 H       
  29 H29           -3.3771    -0.4932    -0.1458 H       
  30 H30           -5.3360     2.9821    -0.0645 H       
  31 H31           -5.0709     1.2463    -0.3564 H       
  32 H32            2.5312    -1.5807     1.1145 H       
  33 H33            0.8178    -1.8077     1.5554 H       
  34 H34            2.0220    -3.8907     0.6736 H       
  35 H35            0.5039    -3.4674    -0.1462 H       
  36 H36            1.5227    -0.0133    -2.1744 H       
  37 H37            2.9116    -0.0006    -1.0625 H       
  38 H38           -4.7417     2.2188     2.5234 H       
  39 H39           -7.2418     1.9782     2.8779 H       
  40 H40           -7.4776     1.7539     1.0625 H       
  41 H41           -5.9853    -0.2964     1.1220 H       
  42 H42           -5.7496    -0.0721     2.9374 H       
  43 H43            2.5421    -5.2047    -1.3177 H       
  44 H44            3.7353    -5.2071    -3.4645 H       
  45 H45            4.1313    -3.0831    -4.6531 H       
  46 H46            3.3379    -0.9706    -3.6781 H       
@<TRIPOS>BOND
   1    1    2 2
   2    1   24 1
   3    1    6 1
   4    2    3 1
   5    2   11 1
   6    3    4 2
   7    3   28 1
   8    4    5 1
   9    4   29 1
  10    5    6 1
  11    5    8 1
  12    6    7 2
  13    7    9 1
  14    8    9 2
  15    8   10 1
  16   10   17 1
  17   10   30 1
  18   10   31 1
  19   11   12 1
  20   11   16 1
  21   12   13 1
  22   12   32 1
  23   12   33 1
  24   13   14 1
  25   13   34 1
  26   13   35 1
  27   14   15 ar
  28   14   20 ar
  29   15   16 1
  30   15   23 ar
  31   16   36 1
  32   16   37 1
  33   17   18 1
  34   17   19 1
  35   17   38 1
  36   18   19 1
  37   18   39 1
  38   18   40 1
  39   19   41 1
  40   19   42 1
  41   20   21 ar
  42   20   43 1
  43   21   22 ar
  44   21   44 1
  45   22   23 ar
  46   22   45 1
  47   23   46 1
  48   24   25 1
  49   24   26 1
  50   24   27 1

#	End of record

