#	Name: ASD01901267
#	Creating user name:	WinNT
#	Creation time:	15. 06. 2019 19:53

#	Modifying user name:	WinNT
#	Modification time:	15. 06. 2019 19:53

#	Program:	/corina/corina34_cracker 3.40 0067  02.08.2006

@<TRIPOS>MOLECULE
ASD01901267
  45   48    0    0    0
SMALL
NO_CHARGES


@<TRIPOS>ATOM
   1 C1             0.8620     1.3401     0.9708 C.ar    
   2 C2             0.8197    -0.0365     0.8983 C.ar    
   3 C3             0.9126    -0.6713    -0.3278 C.ar    
   4 C4             1.0484     0.0686    -1.4893 C.ar    
   5 C5             1.0921     1.4459    -1.4324 C.ar    
   6 C6             0.9985     2.0940    -0.1979 C.ar    
   7 C7             1.0427     3.5238    -0.1307 C.1     
   8 C8             1.0789     4.6959    -0.0756 C.1     
   9 C9             1.1231     6.1257    -0.0085 C.ar    
  10 C10            1.0839     8.1643     1.2401 C.ar    
  11 C11            1.0361     6.7834     1.2273 C.ar    
  12 C12            1.2594     6.8863    -1.1721 C.ar    
  13 N13            1.3007     8.2010    -1.1134 N.ar    
  14 C14            1.2161     8.8515     0.0367 C.ar    
  15 N15            1.2644    10.2447     0.0430 N.am    
  16 N16            2.5558    12.2182     0.0595 N.am    
  17 C17            2.4450    10.8728     0.1131 C.2     
  18 C18            0.1216    10.9576    -0.0400 C.2     
  19 C19            0.1904    12.4166     0.1523 C.ar    
  20 C20            1.4615    13.0255     0.3041 C.ar    
  21 C21            1.4913    14.3356     0.7428 C.ar    
  22 C22           -0.9705    13.1848     0.1505 C.ar    
  23 C23           -0.8953    14.5301     0.4355 C.ar    
  24 C24            0.3263    15.0897     0.7610 C.ar    
  25 C25            3.8583    12.7388    -0.3689 C.3     
  26 O26            3.4590    10.2148     0.2291 O.2     
  27 O27           -0.9397    10.4088    -0.2684 O.2     
  28 Cl28           0.9808     9.0323     2.7400 Cl      
  29 C29            2.7299    15.0037     1.2878 C.3     
  30 H30            0.7853     1.8344     1.9280 H       
  31 H31            0.7143    -0.6205     1.8006 H       
  32 H32            0.8792    -1.7496    -0.3785 H       
  33 H33            1.1206    -0.4337    -2.4426 H       
  34 H34            1.1988     2.0221    -2.3396 H       
  35 H35            0.9339     6.2245     2.1458 H       
  36 H36            1.3318     6.3912    -2.1292 H       
  37 H37           -1.9242    12.7287    -0.0741 H       
  38 H38           -1.7840    15.1413     0.4048 H       
  39 H39            0.3836    16.1333     1.0365 H       
  40 H40            4.5317    11.9072    -0.5761 H       
  41 H41            3.7314    13.3370    -1.2713 H       
  42 H42            4.2796    13.3592     0.4220 H       
  43 H43            3.2768    15.4761     0.4719 H       
  44 H44            2.4432    15.7598     2.0187 H       
  45 H45            3.3643    14.2578     1.7666 H       
@<TRIPOS>BOND
   1    1    2 ar
   2    1    6 ar
   3    1   30 1
   4    2    3 ar
   5    2   31 1
   6    3    4 ar
   7    3   32 1
   8    4    5 ar
   9    4   33 1
  10    5    6 ar
  11    5   34 1
  12    6    7 1
  13    7    8 3
  14    8    9 1
  15    9   12 ar
  16    9   11 ar
  17   10   11 ar
  18   10   14 ar
  19   10   28 1
  20   11   35 1
  21   12   13 ar
  22   12   36 1
  23   13   14 ar
  24   14   15 1
  25   15   18 am
  26   15   17 am
  27   16   17 am
  28   16   20 1
  29   16   25 1
  30   17   26 2
  31   18   19 1
  32   18   27 2
  33   19   22 ar
  34   19   20 ar
  35   20   21 ar
  36   21   24 ar
  37   21   29 1
  38   22   23 ar
  39   22   37 1
  40   23   24 ar
  41   23   38 1
  42   24   39 1
  43   25   40 1
  44   25   41 1
  45   25   42 1
  46   29   43 1
  47   29   44 1
  48   29   45 1

#	End of record

