#	Name: ASD02508429
#	Creating user name:	WinNT
#	Creation time:	15. 06. 2019 20:24

#	Modifying user name:	WinNT
#	Modification time:	15. 06. 2019 20:24

#	Program:	/corina/corina34_cracker 3.40 0067  02.08.2006

@<TRIPOS>MOLECULE
ASD02508429
  36   38    0    0    0
SMALL
NO_CHARGES


@<TRIPOS>ATOM
   1 N1            -0.2074     1.6927     0.3012 N.2     
   2 C2            -0.1698     0.3590     0.4399 C.2     
   3 C3             1.1185    -0.0308     0.4121 C.2     
   4 N4             1.8732     1.1033     0.2522 N.pl3   
   5 C5             1.0093     2.1506     0.1879 C.2     
   6 C6             3.2679     1.1696     0.1710 C.ar    
   7 C7             3.9623     2.0713     0.9700 C.ar    
   8 N8             3.9146     0.3702    -0.6610 N.ar    
   9 C9             5.2291     0.3996    -0.7685 C.ar    
  10 C10            5.9826     1.2735    -0.0097 C.ar    
  11 C11            5.3434     2.1260     0.8797 C.ar    
  12 S12            1.7197    -1.6810     0.5540 S.o2    
  13 O13            1.6672    -2.2408    -0.7511 O.2     
  14 O14            2.9136    -1.6085     1.3211 O.2     
  15 N15            0.6266    -2.5240     1.4687 N.am    
  16 C16            0.3789    -2.1419     2.7892 C.ar    
  17 C17           -0.9256    -2.0771     3.2619 C.ar    
  18 C18           -1.1677    -1.6994     4.5683 C.ar    
  19 C19           -0.1135    -1.3854     5.4057 C.ar    
  20 C20            1.1879    -1.4484     4.9382 C.ar    
  21 C21            1.4370    -1.8315     3.6340 C.ar    
  22 Cl22           2.5086    -1.0526     5.9932 Cl      
  23 Cl23           3.1100     3.1145     2.0650 Cl      
  24 C24            7.4836     1.2969    -0.1415 C.3     
  25 F25            7.8833     0.3491    -1.0896 F       
  26 F26            7.8959     2.5693    -0.5517 F       
  27 F27            8.0651     0.9942     1.0944 F       
  28 H28           -1.0254    -0.2901     0.5544 H       
  29 H29            1.2837     3.1877     0.0634 H       
  30 H30            5.7224    -0.2687    -1.4587 H       
  31 H31            5.9095     2.8188     1.4847 H       
  32 H32            0.1583    -3.2832     1.0875 H       
  33 H33           -1.7499    -2.3215     2.6083 H       
  34 H34           -2.1820    -1.6489     4.9359 H       
  35 H35           -0.3057    -1.0900     6.4266 H       
  36 H36            2.4524    -1.8810     3.2695 H       
@<TRIPOS>BOND
   1    1    2 1
   2    1    5 2
   3    2    3 2
   4    2   28 1
   5    3    4 1
   6    3   12 1
   7    4    5 1
   8    4    6 1
   9    5   29 1
  10    6    7 ar
  11    6    8 ar
  12    7   23 1
  13    7   11 ar
  14    8    9 ar
  15    9   10 ar
  16    9   30 1
  17   10   11 ar
  18   10   24 1
  19   11   31 1
  20   12   13 2
  21   12   14 2
  22   12   15 am
  23   15   16 1
  24   15   32 1
  25   16   17 ar
  26   16   21 ar
  27   17   18 ar
  28   17   33 1
  29   18   19 ar
  30   18   34 1
  31   19   20 ar
  32   19   35 1
  33   20   21 ar
  34   20   22 1
  35   21   36 1
  36   24   25 1
  37   24   26 1
  38   24   27 1

#	End of record

