#	Name: ASD05660011
#	Creating user name:	WinNT
#	Creation time:	15. 06. 2019 21:01

#	Modifying user name:	WinNT
#	Modification time:	15. 06. 2019 21:01

#	Program:	/corina/corina34_cracker 3.40 0067  02.08.2006

@<TRIPOS>MOLECULE
ASD05660011
  51   54    0    0    0
SMALL
NO_CHARGES


@<TRIPOS>ATOM
   1 C1            -0.0188     1.4070    -0.1222 C.ar    
   2 C2             0.2263     0.2438     0.6184 C.ar    
   3 C3             1.4257    -0.4198     0.4747 C.ar    
   4 C4             2.3870     0.0605    -0.3982 C.ar    
   5 C5             2.1531     1.2095    -1.1342 C.ar    
   6 C6             0.9590     1.8855    -1.0033 C.ar    
   7 C7             3.6958    -0.6715    -0.5478 C.3     
   8 C8             3.8665    -1.1193    -2.0008 C.3     
   9 C9             4.8475     0.2591    -0.1622 C.3     
  10 C10           -1.2954     2.1170     0.0197 C.2     
  11 C11           -1.3111     3.4772     0.1302 C.2     
  12 C12           -2.4893     4.3501     0.0534 C.2     
  13 C13           -2.0937     5.6270     0.2090 C.2     
  14 C14           -0.6410     5.6792     0.3970 C.ar    
  15 C15           -0.1463     4.3584     0.3569 C.ar    
  16 C16            1.2137     4.1205     0.5163 C.ar    
  17 C17            2.0775     5.1786     0.7175 C.ar    
  18 C18            1.5964     6.4799     0.7621 C.ar    
  19 C19            0.2496     6.7371     0.5970 C.ar    
  20 C20           -3.9082     3.8916    -0.1643 C.3     
  21 C21           -3.0081     6.8248     0.1920 C.3     
  22 C22           -3.3989     7.1884     1.6258 C.3     
  23 C23           -4.3133     8.3862     1.6088 C.2     
  24 N24           -5.5372     8.4709     2.1626 N.pl3   
  25 N25           -5.9804     9.6590     1.9246 N.2     
  26 N26           -5.0925    10.3067     1.2541 N.2     
  27 N27           -4.0688     9.5496     1.0568 N.2     
  28 F28            2.4543     7.5044     0.9607 F       
  29 H29           -0.5222    -0.1318     1.3003 H       
  30 H30            1.6164    -1.3169     1.0450 H       
  31 H31            2.9084     1.5773    -1.8129 H       
  32 H32            0.7780     2.7815    -1.5784 H       
  33 H33            3.7003    -1.5447     0.1045 H       
  34 H34            3.8620    -0.2460    -2.6531 H       
  35 H35            4.8131    -1.6487    -2.1090 H       
  36 H36            3.0460    -1.7822    -2.2755 H       
  37 H37            4.7258     0.5781     0.8729 H       
  38 H38            5.7941    -0.2703    -0.2704 H       
  39 H39            4.8429     1.1323    -0.8145 H       
  40 H40           -2.2224     1.5630     0.0367 H       
  41 H41            1.5939     3.1101     0.4832 H       
  42 H42            3.1341     4.9926     0.8413 H       
  43 H43           -0.1161     7.7527     0.6348 H       
  44 H44           -3.9290     2.8057    -0.2566 H       
  45 H45           -4.5225     4.1960     0.6830 H       
  46 H46           -4.2994     4.3413    -1.0769 H       
  47 H47           -2.4938     7.6679    -0.2694 H       
  48 H48           -3.9052     6.5889    -0.3805 H       
  49 H49           -3.9132     6.3453     2.0872 H       
  50 H50           -2.5019     7.4242     2.1983 H       
  51 H51           -5.9992     7.7703     2.6489 H       
@<TRIPOS>BOND
   1    1    2 ar
   2    1    6 ar
   3    1   10 1
   4    2    3 ar
   5    2   29 1
   6    3    4 ar
   7    3   30 1
   8    4    5 ar
   9    4    7 1
  10    5    6 ar
  11    5   31 1
  12    6   32 1
  13    7    8 1
  14    7    9 1
  15    7   33 1
  16    8   34 1
  17    8   35 1
  18    8   36 1
  19    9   37 1
  20    9   38 1
  21    9   39 1
  22   10   11 2
  23   10   40 1
  24   11   12 1
  25   11   15 1
  26   12   13 2
  27   12   20 1
  28   13   14 1
  29   13   21 1
  30   14   19 ar
  31   14   15 ar
  32   15   16 ar
  33   16   17 ar
  34   16   41 1
  35   17   18 ar
  36   17   42 1
  37   18   19 ar
  38   18   28 1
  39   19   43 1
  40   20   44 1
  41   20   45 1
  42   20   46 1
  43   21   22 1
  44   21   47 1
  45   21   48 1
  46   22   23 1
  47   22   49 1
  48   22   50 1
  49   23   24 1
  50   23   27 2
  51   24   25 1
  52   24   51 1
  53   25   26 2
  54   26   27 1

#	End of record

