#	Name: ASD01813152
#	Creating user name:	WinNT
#	Creation time:	15. 06. 2019 19:29

#	Modifying user name:	WinNT
#	Modification time:	15. 06. 2019 19:29

#	Program:	/corina/corina34_cracker 3.40 0067  02.08.2006

@<TRIPOS>MOLECULE
ASD01813152
  43   44    0    0    0
SMALL
NO_CHARGES


@<TRIPOS>ATOM
   1 Cl1            0.0000     0.0000     0.0000 Cl      
   2 H2             0.0000     1.3700     0.0000 H       
   3 N3             6.1270    15.8055     6.0809 N.3     
   4 C4             6.0440    14.3444     5.9539 C.3     
   5 C5             6.7915    13.7131     7.0537 C.1     
   6 C6             7.3877    13.2096     7.9308 C.1     
   7 C7             8.1149    12.5954     9.0007 C.ar    
   8 C8             8.7548    13.3850     9.9568 C.ar    
   9 C9             9.4534    12.7870    10.9854 C.ar    
  10 C10            9.5203    11.4078    11.0701 C.ar    
  11 C11           10.2847    10.7615    12.1966 C.3     
  12 N12            9.4326    10.6882    13.3860 N.pl3   
  13 C13            9.4200    11.7271    14.2306 C.2     
  14 C14            8.6452    11.7367    15.3729 C.2     
  15 C15            8.6590    12.8966    16.2752 C.2     
  16 O16            7.8979    12.8942    17.3878 O.3     
  17 O17            9.3568    13.8583    16.0182 O.2     
  18 C18            7.8044    10.5659    15.6720 C.2     
  19 O19            7.1024    10.5259    16.6674 O.2     
  20 C20            7.8471     9.4446    14.7168 C.ar    
  21 C21            7.0821     8.2931    14.9194 C.ar    
  22 F22            6.2840     8.1894    16.0045 F       
  23 C23            7.1466     7.2623    14.0035 C.ar    
  24 C24            7.9648     7.3673    12.8891 C.ar    
  25 C25            8.7256     8.4989    12.6767 C.ar    
  26 F26            9.5174     8.5855    11.5855 F       
  27 C27            8.6732     9.5544    13.5853 C.ar    
  28 C28            8.8880    10.6193    10.1254 C.ar    
  29 C29            8.1818    11.2048     9.0948 C.ar    
  30 H30            7.0879    16.1123     6.1065 H       
  31 H31            5.6212    16.2624     5.3369 H       
  32 H32            5.0000    14.0344     5.9993 H       
  33 H33            6.4730    14.0376     5.0000 H       
  34 H34            8.7036    14.4618     9.8916 H       
  35 H35            9.9494    13.3970    11.7259 H       
  36 H36           10.5848     9.7559    11.9020 H       
  37 H37           11.1715    11.3542    12.4209 H       
  38 H38           10.0369    12.5859    14.0110 H       
  39 H39            7.9403    13.6796    17.9504 H       
  40 H40            6.5575     6.3700    14.1558 H       
  41 H41            8.0074     6.5542    12.1795 H       
  42 H42            8.9440     9.5432    10.1970 H       
  43 H43            7.6849    10.5882     8.3605 H       
@<TRIPOS>BOND
   1    1    2 1
   2    3    4 1
   3    3   30 1
   4    3   31 1
   5    4    5 1
   6    4   32 1
   7    4   33 1
   8    5    6 3
   9    6    7 1
  10    7   29 ar
  11    7    8 ar
  12    8    9 ar
  13    8   34 1
  14    9   10 ar
  15    9   35 1
  16   10   11 1
  17   10   28 ar
  18   11   12 1
  19   11   36 1
  20   11   37 1
  21   12   27 1
  22   12   13 1
  23   13   14 2
  24   13   38 1
  25   14   15 1
  26   14   18 1
  27   15   16 1
  28   15   17 2
  29   16   39 1
  30   18   19 2
  31   18   20 1
  32   20   27 ar
  33   20   21 ar
  34   21   22 1
  35   21   23 ar
  36   23   24 ar
  37   23   40 1
  38   24   25 ar
  39   24   41 1
  40   25   26 1
  41   25   27 ar
  42   28   29 ar
  43   28   42 1
  44   29   43 1

#	End of record

