#	Name: ASD00431261
#	Creating user name:	WinNT
#	Creation time:	15. 06. 2019 18:35

#	Modifying user name:	WinNT
#	Modification time:	15. 06. 2019 18:35

#	Program:	/corina/corina34_cracker 3.40 0067  02.08.2006

@<TRIPOS>MOLECULE
ASD00431261
  34   35    0    0    0
SMALL
NO_CHARGES


@<TRIPOS>ATOM
   1 S1            -0.0152     1.7021    -0.0238 S.3     
   2 C2            -0.0494     0.0128    -0.2808 C.2     
   3 N3             1.0755    -0.3951    -0.7938 N.2     
   4 C4             1.9958     0.5052    -1.0158 C.2     
   5 C5             1.6246     1.7794    -0.6639 C.2     
   6 C6             2.4130     2.9400    -0.7917 C.2     
   7 O7             1.9706     4.0164    -0.4428 O.2     
   8 O8            -1.0986    -0.7888     0.0090 O.3     
   9 C9            -0.9258    -2.1328    -0.1046 C.ar    
  10 C10           -2.0171    -2.9848     0.0019 C.ar    
  11 C11           -1.8408    -4.3504    -0.1141 C.ar    
  12 C12           -0.5737    -4.8696    -0.3369 C.ar    
  13 C13            0.5160    -4.0183    -0.4428 C.ar    
  14 C14            0.3395    -2.6524    -0.3326 C.ar    
  15 O15           -0.4002    -6.2133    -0.4511 O.3     
  16 C16            0.9315    -6.6783    -0.6800 C.3     
  17 C17            0.9285    -8.2050    -0.7799 C.3     
  18 C18            0.1323    -8.6338    -2.0140 C.3     
  19 C19            2.3674    -8.7111    -0.9001 C.3     
  20 Cl20          -3.6023    -2.3345     0.2814 Cl      
  21 H21            2.9616     0.2685    -1.4374 H       
  22 H22            3.4106     2.8728    -1.1999 H       
  23 H23           -2.6892    -5.0135    -0.0309 H       
  24 H24            1.5023    -4.4229    -0.6156 H       
  25 H25            1.1877    -1.9896    -0.4199 H       
  26 H26            1.3096    -6.2541    -1.6101 H       
  27 H27            1.5713    -6.3695     0.1467 H       
  28 H28            0.4685    -8.6267     0.1138 H       
  29 H29           -0.8928    -8.2733    -1.9284 H       
  30 H30            0.5923    -8.2121    -2.9077 H       
  31 H31            0.1302    -9.7215    -2.0852 H       
  32 H32            2.9346    -8.4056    -0.0208 H       
  33 H33            2.3652    -9.7988    -0.9712 H       
  34 H34            2.8274    -8.2894    -1.7938 H       
@<TRIPOS>BOND
   1    1    2 1
   2    1    5 1
   3    2    3 2
   4    2    8 1
   5    3    4 1
   6    4    5 2
   7    4   21 1
   8    5    6 1
   9    6    7 2
  10    6   22 1
  11    8    9 1
  12    9   10 ar
  13    9   14 ar
  14   10   11 ar
  15   10   20 1
  16   11   12 ar
  17   11   23 1
  18   12   13 ar
  19   12   15 1
  20   13   14 ar
  21   13   24 1
  22   14   25 1
  23   15   16 1
  24   16   17 1
  25   16   26 1
  26   16   27 1
  27   17   18 1
  28   17   19 1
  29   17   28 1
  30   18   29 1
  31   18   30 1
  32   18   31 1
  33   19   32 1
  34   19   33 1
  35   19   34 1

#	End of record

