#	Name: ASD03092062
#	Creating user name:	WinNT
#	Creation time:	15. 06. 2019 20:31

#	Modifying user name:	WinNT
#	Modification time:	15. 06. 2019 20:31

#	Program:	/corina/corina34_cracker 3.40 0067  02.08.2006

@<TRIPOS>MOLECULE
ASD03092062
  46   48    0    0    0
SMALL
NO_CHARGES


@<TRIPOS>ATOM
   1 N1             0.2787     0.9011    -0.3966 N.pl3   
   2 C2             0.0773    -0.3551     0.0935 C.2     
   3 C3            -1.2638    -0.5005     0.3080 C.2     
   4 C4            -1.8887     0.6972    -0.0614 C.2     
   5 N5            -0.9673     1.5358    -0.4763 N.2     
   6 N6            -3.2627     0.9584     0.0062 N.pl3   
   7 C7            -3.7456     2.2373    -0.2819 C.ar    
   8 C8            -5.0263     2.3984    -0.7944 C.ar    
   9 C9            -5.5008     3.6653    -1.0784 C.ar    
  10 C10           -4.7008     4.7717    -0.8524 C.ar    
  11 C11           -2.9475     3.3512    -0.0511 C.ar    
  12 C12            1.1197    -1.3738     0.3461 C.ar    
  13 C13            1.5698     1.4854    -0.7680 C.3     
  14 C14            2.3551    -1.3161    -0.3085 C.ar    
  15 C15            3.2987    -2.2866    -0.0428 C.ar    
  16 N16            3.0486    -3.2581     0.8142 N.ar    
  17 C17            1.8973    -3.3495     1.4526 C.ar    
  18 C18            0.8998    -2.4189     1.2509 C.ar    
  19 C19            1.6715    -4.4833     2.4194 C.3     
  20 C20            1.8073     1.2831    -2.2423 C.2     
  21 N21            2.9395     1.7418    -2.8117 N.am    
  22 C22           -3.4250     4.6136    -0.3426 C.ar    
  23 Cl23          -7.1012     3.8686    -1.7195 Cl      
  24 O24            0.9796     0.7074    -2.9165 O.2     
  25 C25            3.1704     1.5450    -4.2450 C.3     
  26 C26            3.9392     2.4371    -1.9974 C.3     
  27 H27           -1.7547    -1.3817     0.6937 H       
  28 H28           -3.8792     0.2515     0.2531 H       
  29 H29           -5.6506     1.5350    -0.9712 H       
  30 H30           -5.0734     5.7607    -1.0749 H       
  31 H31           -1.9528     3.2293     0.3515 H       
  32 H32            1.5637     2.5522    -0.5440 H       
  33 H33            2.3647     0.9999    -0.2019 H       
  34 H34            2.5665    -0.5239    -1.0114 H       
  35 H35            4.2551    -2.2509    -0.5432 H       
  36 H36           -0.0400    -2.4999     1.7769 H       
  37 H37            1.9945    -4.1811     3.4156 H       
  38 H38            0.6113    -4.7357     2.4422 H       
  39 H39            2.2452    -5.3531     2.0996 H       
  40 H40           -2.8030     5.4791    -0.1680 H       
  41 H41            2.7652     2.3925    -4.7979 H       
  42 H42            4.2411     1.4669    -4.4331 H       
  43 H43            2.6765     0.6294    -4.5702 H       
  44 H44            4.2917     1.7723    -1.2088 H       
  45 H45            4.7791     2.7319    -2.6265 H       
  46 H46            3.4907     3.3246    -1.5509 H       
@<TRIPOS>BOND
   1    1    2 1
   2    1   13 1
   3    1    5 1
   4    2    3 2
   5    2   12 1
   6    3    4 1
   7    3   27 1
   8    4    5 2
   9    4    6 1
  10    6    7 1
  11    6   28 1
  12    7    8 ar
  13    7   11 ar
  14    8    9 ar
  15    8   29 1
  16    9   10 ar
  17    9   23 1
  18   10   22 ar
  19   10   30 1
  20   11   22 ar
  21   11   31 1
  22   12   14 ar
  23   12   18 ar
  24   13   20 1
  25   13   32 1
  26   13   33 1
  27   14   15 ar
  28   14   34 1
  29   15   16 ar
  30   15   35 1
  31   16   17 ar
  32   17   18 ar
  33   17   19 1
  34   18   36 1
  35   19   37 1
  36   19   38 1
  37   19   39 1
  38   20   21 am
  39   20   24 2
  40   21   25 1
  41   21   26 1
  42   22   40 1
  43   25   41 1
  44   25   42 1
  45   25   43 1
  46   26   44 1
  47   26   45 1
  48   26   46 1

#	End of record

