#	Name: ASD01811432
#	Creating user name:	WinNT
#	Creation time:	15. 06. 2019 19:26

#	Modifying user name:	WinNT
#	Modification time:	15. 06. 2019 19:26

#	Program:	/corina/corina34_cracker 3.40 0067  02.08.2006

@<TRIPOS>MOLECULE
ASD01811432
  58   61    0    0    0
SMALL
NO_CHARGES


@<TRIPOS>ATOM
   1 N1            -3.0393     8.6679    -3.3841 N.am    
   2 C2            -3.7172     9.0623    -4.6276 C.3     
   3 C3            -3.0098    10.3291    -5.1531 C.3     
   4 C4            -1.6142    10.2526    -4.4795 C.3     
   5 C5            -1.9672     9.6396    -3.1014 C.3     
   6 C6            -3.3502     7.5984    -2.6251 C.2     
   7 O7            -4.2622     6.8643    -2.9535 O.2     
   8 N8            -2.6502     7.3426    -1.5021 N.am    
   9 C9            -2.0816     5.5830     0.0608 C.ar    
  10 C10           -3.0347     6.2907    -0.6619 C.ar    
  11 C11           -4.3743     5.9415    -0.5396 C.ar    
  12 C12           -4.7071     4.8833     0.3133 C.ar    
  13 C13           -3.6879     4.2251     1.0025 C.ar    
  14 N14           -2.4314     4.5907     0.8556 N.ar    
  15 C15           -0.6261     5.9510    -0.0708 C.3     
  16 C16           -6.1166     4.4695     0.4819 C.2     
  17 O17           -6.4126     3.2911     0.4448 O.2     
  18 N18           -7.0731     5.3988     0.6768 N.am    
  19 C19           -6.7475     6.8306     0.6242 C.3     
  20 C20           -7.2368     7.4951     1.9149 C.3     
  21 C21           -8.7254     7.1956     2.1055 C.3     
  22 C22           -8.9313     5.6845     2.2323 C.3     
  23 C23           -8.4623     4.9994     0.9397 C.3     
  24 C24           -9.2182     7.8762     3.3565 C.ar    
  25 C25          -10.2342     8.8120     3.2767 C.ar    
  26 C26          -10.6902     9.4388     4.4178 C.ar    
  27 C27          -10.1243     9.1265     5.6555 C.ar    
  28 C28           -9.0996     8.1807     5.7288 C.ar    
  29 C29           -8.6566     7.5581     4.5803 C.ar    
  30 C30          -10.5922     9.7735     6.8442 C.1     
  31 N31          -10.9635    10.2868     7.7872 N.1     
  32 H32           -3.6382     8.2615    -5.3629 H       
  33 H33           -4.7658     9.2802    -4.4251 H       
  34 H34           -2.9164    10.2965    -6.2386 H       
  35 H35           -3.5416    11.2267    -4.8376 H       
  36 H36           -0.9459     9.5979    -5.0387 H       
  37 H37           -1.1803    11.2460    -4.3656 H       
  38 H38           -2.3259    10.4134    -2.4227 H       
  39 H39           -1.0994     9.1344    -2.6774 H       
  40 H40           -1.8801     7.8872    -1.2760 H       
  41 H41           -5.1381     6.4729    -1.0879 H       
  42 H42           -3.9323     3.4071     1.6640 H       
  43 H43           -0.3727     6.7034     0.6761 H       
  44 H44           -0.0117     5.0640     0.0839 H       
  45 H45           -0.4413     6.3517    -1.0675 H       
  46 H46           -5.6686     6.9569     0.5345 H       
  47 H47           -7.2434     7.2869    -0.2325 H       
  48 H48           -6.6751     7.1018     2.7622 H       
  49 H49           -7.0881     8.5729     1.8481 H       
  50 H50           -9.2836     7.5673     1.2462 H       
  51 H51           -8.3537     5.3082     3.0766 H       
  52 H52           -9.9888     5.4734     2.3914 H       
  53 H53           -9.0953     5.3094     0.1082 H       
  54 H54           -8.5152     3.9171     1.0582 H       
  55 H55          -10.6711     9.0526     2.3187 H       
  56 H56          -11.4828    10.1696     4.3540 H       
  57 H57           -8.6575     7.9346     6.6830 H       
  58 H58           -7.8669     6.8234     4.6361 H       
@<TRIPOS>BOND
   1    1    2 1
   2    1    5 1
   3    1    6 am
   4    2    3 1
   5    2   32 1
   6    2   33 1
   7    3    4 1
   8    3   34 1
   9    3   35 1
  10    4    5 1
  11    4   36 1
  12    4   37 1
  13    5   38 1
  14    5   39 1
  15    6    7 2
  16    6    8 am
  17    8   10 1
  18    8   40 1
  19    9   10 ar
  20    9   14 ar
  21    9   15 1
  22   10   11 ar
  23   11   12 ar
  24   11   41 1
  25   12   13 ar
  26   12   16 1
  27   13   14 ar
  28   13   42 1
  29   15   43 1
  30   15   44 1
  31   15   45 1
  32   16   17 2
  33   16   18 am
  34   18   19 1
  35   18   23 1
  36   19   20 1
  37   19   46 1
  38   19   47 1
  39   20   21 1
  40   20   48 1
  41   20   49 1
  42   21   22 1
  43   21   24 1
  44   21   50 1
  45   22   23 1
  46   22   51 1
  47   22   52 1
  48   23   53 1
  49   23   54 1
  50   24   25 ar
  51   24   29 ar
  52   25   26 ar
  53   25   55 1
  54   26   27 ar
  55   26   56 1
  56   27   28 ar
  57   27   30 1
  58   28   29 ar
  59   28   57 1
  60   29   58 1
  61   30   31 3

#	End of record

