#	Name: ASD01883406
#	Creating user name:	WinNT
#	Creation time:	15. 06. 2019 19:46

#	Modifying user name:	WinNT
#	Modification time:	15. 06. 2019 19:46

#	Program:	/corina/corina34_cracker 3.40 0067  02.08.2006

@<TRIPOS>MOLECULE
ASD01883406
  49   52    0    0    0
SMALL
NO_CHARGES


@<TRIPOS>ATOM
   1 N1            -0.0161     1.3416     0.0134 N.am    
   2 C2            -0.0055     0.0078    -0.1666 C.2     
   3 C3            -1.2225    -0.7140    -0.1653 C.2     
   4 C4            -2.4239    -0.0108     0.0261 C.2     
   5 C5            -2.3698     1.3834     0.2090 C.2     
   6 C6            -1.1780     2.0193     0.2035 C.2     
   7 O7             1.0514    -0.5778    -0.3310 O.2     
   8 C8            -1.2298    -2.1332    -0.3559 C.1     
   9 N9            -1.2355    -3.2591    -0.5070 N.1     
  10 C10            1.2513     2.0764     0.0103 C.3     
  11 N11           -3.6309    -0.6732     0.0341 N.pl3   
  12 C12            1.5732     2.5169    -1.3945 C.ar    
  13 C13           -3.9343    -1.6769     1.0654 C.3     
  14 C14           -5.2925    -1.3386     1.6892 C.3     
  15 N15           -6.2991    -1.2162     0.6263 N.3     
  16 C16           -5.9809    -0.1079    -0.2838 C.3     
  17 C17           -4.6534    -0.3913    -0.9849 C.3     
  18 C18           -7.5737    -1.0710     1.1616 C.ar    
  19 C19           -8.6672    -0.9396     0.3121 C.ar    
  20 C20           -9.9301    -0.7962     0.8584 C.ar    
  21 C21          -10.0571    -0.7891     2.2409 C.ar    
  22 C22           -8.9284    -0.9242     3.0244 C.ar    
  23 N23           -7.7366    -1.0644     2.4758 N.ar    
  24 C24            1.1276     3.7426    -1.8531 C.ar    
  25 C25            1.4225     4.1478    -3.1410 C.ar    
  26 C26            2.1645     3.3257    -3.9721 C.ar    
  27 C27            2.6103     2.0984    -3.5116 C.ar    
  28 C28            2.3186     1.6976    -2.2216 C.ar    
  29 F29            2.4530     3.7207    -5.2314 F       
  30 H30           -3.2806     1.9444     0.3575 H       
  31 H31           -1.1489     3.0896     0.3449 H       
  32 H32            1.1657     2.9513     0.6548 H       
  33 H33            2.0472     1.4296     0.3796 H       
  34 H34           -3.9763    -2.6671     0.6115 H       
  35 H35           -3.1626    -1.6562     1.8349 H       
  36 H36           -5.5845    -2.1321     2.3771 H       
  37 H37           -5.2191    -0.3957     2.2310 H       
  38 H38           -6.7723    -0.0088    -1.0268 H       
  39 H39           -5.8980     0.8179     0.2855 H       
  40 H40           -4.3570     0.4773    -1.5728 H       
  41 H41           -4.7612    -1.2585    -1.6365 H       
  42 H42           -8.5322    -0.9490    -0.7594 H       
  43 H43          -10.7976    -0.6919     0.2237 H       
  44 H44          -11.0290    -0.6786     2.6988 H       
  45 H45           -9.0226    -0.9189     4.1003 H       
  46 H46            0.5485     4.3835    -1.2048 H       
  47 H47            1.0739     5.1052    -3.4993 H       
  48 H48            3.1891     1.4563    -4.1589 H       
  49 H49            2.6662     0.7403    -1.8622 H       
@<TRIPOS>BOND
   1    1    2 am
   2    1   10 1
   3    1    6 1
   4    2    3 1
   5    2    7 2
   6    3    4 2
   7    3    8 1
   8    4    5 1
   9    4   11 1
  10    5    6 2
  11    5   30 1
  12    6   31 1
  13    8    9 3
  14   10   12 1
  15   10   32 1
  16   10   33 1
  17   11   13 1
  18   11   17 1
  19   12   24 ar
  20   12   28 ar
  21   13   14 1
  22   13   34 1
  23   13   35 1
  24   14   15 1
  25   14   36 1
  26   14   37 1
  27   15   16 1
  28   15   18 1
  29   16   17 1
  30   16   38 1
  31   16   39 1
  32   17   40 1
  33   17   41 1
  34   18   19 ar
  35   18   23 ar
  36   19   20 ar
  37   19   42 1
  38   20   21 ar
  39   20   43 1
  40   21   22 ar
  41   21   44 1
  42   22   23 ar
  43   22   45 1
  44   24   25 ar
  45   24   46 1
  46   25   26 ar
  47   25   47 1
  48   26   27 ar
  49   26   29 1
  50   27   28 ar
  51   27   48 1
  52   28   49 1

#	End of record

