#	Name: ASD01209160
#	Creating user name:	WinNT
#	Creation time:	15. 06. 2019 19:11

#	Modifying user name:	WinNT
#	Modification time:	15. 06. 2019 19:11

#	Program:	/corina/corina34_cracker 3.40 0067  02.08.2006

@<TRIPOS>MOLECULE
ASD01209160
  76   78    0    0    0
SMALL
NO_CHARGES


@<TRIPOS>ATOM
   1 O1             1.1299     0.1999    -0.3975 O.3     
   2 O2             3.2378     1.0447     0.9274 O.3     
   3 C3             2.4470     6.0750    -8.6152 C.ar    
   4 C4             1.5493     6.2148    -9.6634 C.ar    
   5 C5             0.2269     5.8249    -9.5062 C.ar    
   6 C6            -0.2019     5.2934    -8.3015 C.ar    
   7 C7             0.6979     5.1510    -7.2443 C.ar    
   8 C8             2.0278     5.5394    -7.4084 C.ar    
   9 O9            -0.6488     5.9649   -10.5362 O.3     
  10 C10           -1.9626     5.4356   -10.3471 C.3     
  11 C11            0.2445     4.5852    -5.9561 C.2     
  12 N12            1.1151     4.4485    -4.9364 N.am    
  13 O13           -0.9136     4.2431    -5.8165 O.2     
  14 C14            0.6890     3.9169    -3.7260 C.2     
  15 P15            2.3249     1.2786    -0.3780 P.3     
  16 O16            3.1531     1.1194    -1.5942 O.2     
  17 C17            1.6242     2.9611    -0.3360 C.3     
  18 N18            1.4421     3.7431    -2.6851 N.2     
  19 S19           -0.9065     3.4032    -3.3895 S.3     
  20 C20           -0.4267     2.9472    -1.7569 C.2     
  21 C21            0.8710     3.2236    -1.6146 C.2     
  22 C22            1.3517    -1.2050    -0.5355 C.3     
  23 C23            0.0088    -1.9378    -0.5151 C.3     
  24 C24            4.0097    -0.1398     1.1352 C.3     
  25 C25            4.7544    -0.0360     2.4677 C.3     
  26 O26            3.7410     6.4588    -8.7743 O.3     
  27 C27            4.5832     6.3946    -7.6216 C.3     
  28 C28           -2.5822     5.1106   -11.7078 C.3     
  29 C29            5.7339     7.3912    -7.7745 C.3     
  30 C30            5.1490     4.9799    -7.4816 C.3     
  31 C31           -1.7977     4.0048   -12.3658 C.ar    
  32 C32           -2.1488     2.6854   -12.1498 C.ar    
  33 O33            6.5623     6.9978    -8.8704 O.3     
  34 C34            7.6731     7.8669    -9.1006 C.3     
  35 C35           -0.7306     4.3101   -13.1897 C.ar    
  36 C36           -0.0110     3.2958   -13.7932 C.ar    
  37 C37           -0.3583     1.9761   -13.5724 C.ar    
  38 C38           -1.4292     1.6710   -12.7533 C.ar    
  39 C39           -2.8299     6.4691    -9.6256 C.3     
  40 H40            1.8804     6.6286   -10.6044 H       
  41 H41           -1.2314     4.9906    -8.1799 H       
  42 H42            2.7274     5.4310    -6.5928 H       
  43 H43           -1.9055     4.5271    -9.7476 H       
  44 H44            2.0392     4.7215    -5.0478 H       
  45 H45            0.9442     3.0504     0.5112 H       
  46 H46            2.4301     3.6878    -0.2333 H       
  47 H47           -1.0712     2.5217    -1.0019 H       
  48 H48            1.8587    -1.4018    -1.4801 H       
  49 H49            1.9707    -1.5578     0.2895 H       
  50 H50            0.1780    -3.0094    -0.6203 H       
  51 H51           -0.4982    -1.7410     0.4295 H       
  52 H52           -0.6102    -1.5850    -1.3400 H       
  53 H53            3.3481    -1.0058     1.1552 H       
  54 H54            4.7296    -0.2512     0.3244 H       
  55 H55            4.0345     0.0755     3.2785 H       
  56 H56            5.3432    -0.9394     2.6262 H       
  57 H57            5.4160     0.8301     2.4476 H       
  58 H58            4.0027     6.6433    -6.7332 H       
  59 H59           -3.6150     4.7909   -11.5697 H       
  60 H60           -2.5581     5.9987   -12.3394 H       
  61 H61            5.3303     8.3861    -7.9630 H       
  62 H62            6.3254     7.4066    -6.8591 H       
  63 H63            5.7294     4.7312    -8.3700 H       
  64 H64            5.7913     4.9309    -6.6024 H       
  65 H65            4.3292     4.2699    -7.3726 H       
  66 H66           -2.9851     2.4470   -11.5094 H       
  67 H67            8.2520     7.4999    -9.9481 H       
  68 H68            7.3097     8.8716    -9.3166 H       
  69 H69            8.3048     7.8921    -8.2127 H       
  70 H70           -0.4592     5.3412   -13.3622 H       
  71 H71            0.8223     3.5344   -14.4375 H       
  72 H72            0.2037     1.1837   -14.0442 H       
  73 H73           -1.7006     0.6400   -12.5808 H       
  74 H74           -3.8320     6.0654    -9.4814 H       
  75 H75           -2.3885     6.7006    -8.6563 H       
  76 H76           -2.8869     7.3776   -10.2252 H       
@<TRIPOS>BOND
   1    1   22 1
   2    1   15 1
   3    2   24 1
   4    2   15 1
   5    3    4 ar
   6    3   26 1
   7    3    8 ar
   8    4    5 ar
   9    4   40 1
  10    5    6 ar
  11    5    9 1
  12    6    7 ar
  13    6   41 1
  14    7    8 ar
  15    7   11 1
  16    8   42 1
  17    9   10 1
  18   10   28 1
  19   10   39 1
  20   10   43 1
  21   11   12 am
  22   11   13 2
  23   12   14 1
  24   12   44 1
  25   14   18 2
  26   14   19 1
  27   15   16 2
  28   15   17 1
  29   17   21 1
  30   17   45 1
  31   17   46 1
  32   18   21 1
  33   19   20 1
  34   20   21 2
  35   20   47 1
  36   22   23 1
  37   22   48 1
  38   22   49 1
  39   23   50 1
  40   23   51 1
  41   23   52 1
  42   24   25 1
  43   24   53 1
  44   24   54 1
  45   25   55 1
  46   25   56 1
  47   25   57 1
  48   26   27 1
  49   27   29 1
  50   27   30 1
  51   27   58 1
  52   28   31 1
  53   28   59 1
  54   28   60 1
  55   29   33 1
  56   29   61 1
  57   29   62 1
  58   30   63 1
  59   30   64 1
  60   30   65 1
  61   31   32 ar
  62   31   35 ar
  63   32   38 ar
  64   32   66 1
  65   33   34 1
  66   34   67 1
  67   34   68 1
  68   34   69 1
  69   35   36 ar
  70   35   70 1
  71   36   37 ar
  72   36   71 1
  73   37   38 ar
  74   37   72 1
  75   38   73 1
  76   39   74 1
  77   39   75 1
  78   39   76 1

#	End of record

