#	Name: ASD01816268
#	Creating user name:	WinNT
#	Creation time:	15. 06. 2019 19:34

#	Modifying user name:	WinNT
#	Modification time:	15. 06. 2019 19:34

#	Program:	/corina/corina34_cracker 3.40 0067  02.08.2006

@<TRIPOS>MOLECULE
ASD01816268
  57   62    0    0    0
SMALL
NO_CHARGES


@<TRIPOS>ATOM
   1 C1            -0.0167     1.3812     0.0096 C.ar    
   2 C2             0.0021    -0.0041     0.0020 C.ar    
   3 C3             1.1984    -0.6908    -0.0131 C.ar    
   4 C4             2.4015     0.0061    -0.0204 C.ar    
   5 C5             2.3789     1.4106    -0.0127 C.ar    
   6 C6             1.1664     2.0916     0.0022 C.ar    
   7 N7             3.6054    -0.6770    -0.0347 N.pl3   
   8 C8             4.7971    -0.0584    -0.0423 C.2     
   9 C9             4.9001     1.3105    -0.0364 C.2     
  10 C10            3.6673     2.1304    -0.0207 C.2     
  11 C11            5.9972     2.2731    -0.0422 C.2     
  12 N12            5.4244     3.4961    -0.0313 N.am    
  13 N13            4.0322     3.3795    -0.0185 N.2     
  14 O14            7.1917     2.0232    -0.0541 O.2     
  15 C15            3.5781    -2.1418    -0.0413 C.3     
  16 C16            3.5556    -2.6374    -1.4643 C.ar    
  17 C17            4.7435    -2.8866    -2.1269 C.ar    
  18 C18            4.7261    -3.3404    -3.4313 C.ar    
  19 C19            3.5145    -3.5468    -4.0770 C.ar    
  20 C20            2.3235    -3.2961    -3.4089 C.ar    
  21 C21            2.3472    -2.8473    -2.1028 C.ar    
  22 N22            3.4936    -4.0069    -5.4010 N.pl3   
  23 C23            2.3887    -4.2482    -6.1424 C.2     
  24 C24            2.7953    -4.6776    -7.3595 C.2     
  25 C25            4.1944    -4.6999    -7.3632 C.2     
  26 N26            4.6137    -4.2925    -6.1923 N.2     
  27 C27            6.1581     4.7641    -0.0316 C.3     
  28 C28            5.8003     5.5608     1.2246 C.3     
  29 C29            6.5666     6.8850     1.2243 C.3     
  30 C30            6.1869     7.6937    -0.0178 C.3     
  31 C31            6.5448     6.8970    -1.2741 C.3     
  32 C32            5.7784     5.5728    -1.2737 C.3     
  33 H33           -0.9602     1.9068     0.0170 H       
  34 H34           -0.9288    -0.5516     0.0083 H       
  35 H35            1.2005    -1.7708    -0.0189 H       
  36 H36            1.1508     3.1714     0.0084 H       
  37 H37            5.6984    -0.6535    -0.0530 H       
  38 H38            4.4658    -2.5240     0.4626 H       
  39 H39            2.6862    -2.4908     0.4791 H       
  40 H40            5.6857    -2.7259    -1.6242 H       
  41 H41            5.6542    -3.5343    -3.9486 H       
  42 H42            1.3794    -3.4554    -3.9087 H       
  43 H43            1.4211    -2.6521    -1.5826 H       
  44 H44            1.3656    -4.1215    -5.8207 H       
  45 H45            2.1533    -4.9543    -8.1827 H       
  46 H46            4.8205    -4.9976    -8.1913 H       
  47 H47            7.2295     4.5639    -0.0420 H       
  48 H48            4.7289     5.7610     1.2350 H       
  49 H49            6.0708     4.9847     2.1095 H       
  50 H50            6.3116     7.4526     2.1193 H       
  51 H51            7.6380     6.6848     1.2140 H       
  52 H52            5.1155     7.8939    -0.0075 H       
  53 H53            6.7328     8.6371    -0.0180 H       
  54 H54            6.2742     7.4731    -2.1589 H       
  55 H55            7.6162     6.6968    -1.2844 H       
  56 H56            6.0334     5.0052    -2.1687 H       
  57 H57            4.7070     5.7730    -1.2634 H       
@<TRIPOS>BOND
   1    1    2 ar
   2    1    6 ar
   3    1   33 1
   4    2    3 ar
   5    2   34 1
   6    3    4 ar
   7    3   35 1
   8    4    5 ar
   9    4    7 1
  10    5    6 ar
  11    5   10 1
  12    6   36 1
  13    7    8 1
  14    7   15 1
  15    8    9 2
  16    8   37 1
  17    9   10 1
  18    9   11 1
  19   10   13 2
  20   11   12 am
  21   11   14 2
  22   12   13 1
  23   12   27 1
  24   15   16 1
  25   15   38 1
  26   15   39 1
  27   16   17 ar
  28   16   21 ar
  29   17   18 ar
  30   17   40 1
  31   18   19 ar
  32   18   41 1
  33   19   20 ar
  34   19   22 1
  35   20   21 ar
  36   20   42 1
  37   21   43 1
  38   22   23 1
  39   22   26 1
  40   23   24 2
  41   23   44 1
  42   24   25 1
  43   24   45 1
  44   25   26 2
  45   25   46 1
  46   27   28 1
  47   27   32 1
  48   27   47 1
  49   28   29 1
  50   28   48 1
  51   28   49 1
  52   29   30 1
  53   29   50 1
  54   29   51 1
  55   30   31 1
  56   30   52 1
  57   30   53 1
  58   31   32 1
  59   31   54 1
  60   31   55 1
  61   32   56 1
  62   32   57 1

#	End of record

