#	Name: ASD01328020
#	Creating user name:	WinNT
#	Creation time:	15. 06. 2019 19:16

#	Modifying user name:	WinNT
#	Modification time:	15. 06. 2019 19:16

#	Program:	/corina/corina34_cracker 3.40 0067  02.08.2006

@<TRIPOS>MOLECULE
ASD01328020
  35   36    0    0    0
SMALL
NO_CHARGES


@<TRIPOS>ATOM
   1 N1            -0.0204     1.3455    -0.0317 N.am    
   2 C2             0.0005    -0.0021    -0.0228 C.2     
   3 O3             1.0622    -0.5936    -0.0438 O.2     
   4 N4            -1.1558    -0.6938     0.0094 N.am    
   5 C5            -1.1402    -2.0905    -0.1041 C.ar    
   6 C6            -2.0847    -2.8564     0.5756 C.ar    
   7 C7            -2.0675    -4.2363     0.4615 C.ar    
   8 C8            -1.1138    -4.8544    -0.3263 C.ar    
   9 C9            -0.1719    -4.0947    -1.0037 C.ar    
  10 C10           -0.1882    -2.7122    -0.8975 C.ar    
  11 O11           -3.0232    -2.2491     1.3513 O.3     
  12 C12           -3.9602    -3.0965     2.0190 C.3     
  13 O13            0.7651    -4.7057    -1.7768 O.3     
  14 C14            1.1358     2.0372    -0.0638 C.2     
  15 C15            1.1130     3.5126    -0.0736 C.ar    
  16 C16            2.3111     4.2332    -0.1069 C.ar    
  17 C17            2.2826     5.6126    -0.1158 C.ar    
  18 C18            1.0698     6.2833    -0.0913 C.ar    
  19 C19           -0.1211     5.5732    -0.0582 C.ar    
  20 C20           -0.1058     4.1953    -0.0553 C.ar    
  21 O21            2.1974     1.4457    -0.0848 O.2     
  22 F22            1.0477     7.6341    -0.0992 F       
  23 Cl23           3.8305     3.3940    -0.1365 Cl      
  24 H24           -0.8678     1.8175    -0.0190 H       
  25 H25           -1.9988    -0.2248     0.1110 H       
  26 H26           -2.7994    -4.8303     0.9885 H       
  27 H27           -1.1022    -5.9308    -0.4138 H       
  28 H28            0.5427    -2.1206    -1.4287 H       
  29 H29           -4.5184    -3.6732     1.2815 H       
  30 H30           -3.4263    -3.7760     2.6833 H       
  31 H31           -4.6507    -2.4866     2.6017 H       
  32 H32            0.4947    -4.8320    -2.6966 H       
  33 H33            3.2069     6.1708    -0.1416 H       
  34 H34           -1.0629     6.1015    -0.0392 H       
  35 H35           -1.0343     3.6440    -0.0344 H       
@<TRIPOS>BOND
   1    1    2 am
   2    1   14 am
   3    1   24 1
   4    2    3 2
   5    2    4 am
   6    4    5 1
   7    4   25 1
   8    5    6 ar
   9    5   10 ar
  10    6    7 ar
  11    6   11 1
  12    7    8 ar
  13    7   26 1
  14    8    9 ar
  15    8   27 1
  16    9   10 ar
  17    9   13 1
  18   10   28 1
  19   11   12 1
  20   12   29 1
  21   12   30 1
  22   12   31 1
  23   13   32 1
  24   14   15 1
  25   14   21 2
  26   15   16 ar
  27   15   20 ar
  28   16   17 ar
  29   16   23 1
  30   17   18 ar
  31   17   33 1
  32   18   19 ar
  33   18   22 1
  34   19   20 ar
  35   19   34 1
  36   20   35 1

#	End of record

