#	Name: ASD05143334
#	Creating user name:	WinNT
#	Creation time:	15. 06. 2019 20:57

#	Modifying user name:	WinNT
#	Modification time:	15. 06. 2019 20:57

#	Program:	/corina/corina34_cracker 3.40 0067  02.08.2006

@<TRIPOS>MOLECULE
ASD05143334
  49   51    0    0    0
SMALL
NO_CHARGES


@<TRIPOS>ATOM
   1 C1            -0.1004     1.3019     1.1293 C.2     
   2 N2            -0.0885    -0.0161     1.1609 N.2     
   3 S3            -1.5787    -0.5057     0.5073 S.3     
   4 C4            -2.1436     1.0965     0.2238 C.2     
   5 N5            -1.1792     1.8853     0.6436 N.2     
   6 N6            -3.3565     1.4733    -0.3236 N.pl3   
   7 C7            -3.7364     2.8183    -0.3216 C.ar    
   8 C8            -5.0819     3.1610    -0.3541 C.ar    
   9 C9            -5.4556     4.4929    -0.3522 C.ar    
  10 C10            0.9183    -0.8246     1.6245 C.ar    
  11 C11            2.2285    -0.6334     1.1865 C.ar    
  12 C12            0.6365    -1.8423     2.5445 C.ar    
  13 C13            1.6590    -2.6526     3.0069 C.ar    
  14 C14            2.9541    -2.4569     2.5619 C.ar    
  15 C15            3.2374    -1.4497     1.6569 C.ar    
  16 C16            1.0477     2.0949     1.6245 C.ar    
  17 C17            1.5505     3.1558     0.8625 C.ar    
  18 C18            1.6294     1.7923     2.8546 C.ar    
  19 C19            2.6991     2.5351     3.3116 C.ar    
  20 C20            3.1970     3.5799     2.5532 C.ar    
  21 C21            2.6246     3.8923     1.3342 C.ar    
  22 O22           -0.6360    -2.0333     2.9819 O.3     
  23 C23           -0.8478    -3.0904     3.9198 C.3     
  24 O24            0.9876     3.4617    -0.3352 O.3     
  25 C25            1.6503     4.4464    -1.1309 C.3     
  26 C26           -4.4893     5.4842    -0.3179 C.ar    
  27 C27           -3.1471     5.1448    -0.2859 C.ar    
  28 C28           -2.7690     3.8141    -0.2815 C.ar    
  29 F29           -2.2064     6.1140    -0.2534 F       
  30 F30           -6.7643     4.8268    -0.3842 F       
  31 H31           -3.9435     0.8041    -0.7089 H       
  32 H32           -5.8359     2.3882    -0.3812 H       
  33 H33            2.4533     0.1519     0.4801 H       
  34 H34            1.4454    -3.4384     3.7163 H       
  35 H35            3.7487    -3.0914     2.9257 H       
  36 H36            4.2512    -1.3036     1.3145 H       
  37 H37            1.2433     0.9778     3.4495 H       
  38 H38            3.1490     2.3002     4.2649 H       
  39 H39            4.0343     4.1567     2.9173 H       
  40 H40            3.0180     4.7090     0.7472 H       
  41 H41           -0.5461    -4.0380     3.4736 H       
  42 H42           -0.2548    -2.9056     4.8156 H       
  43 H43           -1.9039    -3.1339     4.1858 H       
  44 H44            1.1411     4.5414    -2.0900 H       
  45 H45            1.6311     5.4052    -0.6128 H       
  46 H46            2.6842     4.1438    -1.2969 H       
  47 H47           -4.7828     6.5236    -0.3164 H       
  48 H48           -1.7221     3.5499    -0.2565 H       
  49 Br49           9.2512    11.5236     9.8156 Br      
@<TRIPOS>BOND
   1    1    2 2
   2    1   16 1
   3    1    5 1
   4    2    3 1
   5    2   10 1
   6    3    4 1
   7    4    5 2
   8    4    6 1
   9    6    7 1
  10    6   31 1
  11    7    8 ar
  12    7   28 ar
  13    8    9 ar
  14    8   32 1
  15    9   26 ar
  16    9   30 1
  17   10   11 ar
  18   10   12 ar
  19   11   15 ar
  20   11   33 1
  21   12   13 ar
  22   12   22 1
  23   13   14 ar
  24   13   34 1
  25   14   15 ar
  26   14   35 1
  27   15   36 1
  28   16   17 ar
  29   16   18 ar
  30   17   24 1
  31   17   21 ar
  32   18   19 ar
  33   18   37 1
  34   19   20 ar
  35   19   38 1
  36   20   21 ar
  37   20   39 1
  38   21   40 1
  39   22   23 1
  40   23   41 1
  41   23   42 1
  42   23   43 1
  43   24   25 1
  44   25   44 1
  45   25   45 1
  46   25   46 1
  47   26   27 ar
  48   26   47 1
  49   27   28 ar
  50   27   29 1
  51   28   48 1

#	End of record

