#	Name: ASD05730142
#	Creating user name:	WinNT
#	Creation time:	15. 06. 2019 21:02

#	Modifying user name:	WinNT
#	Modification time:	15. 06. 2019 21:02

#	Program:	/corina/corina34_cracker 3.40 0067  02.08.2006

@<TRIPOS>MOLECULE
ASD05730142
  72   77    0    0    0
SMALL
NO_CHARGES


@<TRIPOS>ATOM
   1 N1            -0.8815     0.7878    -0.9637 N.pl3   
   2 C2            -0.7490    -0.6022    -0.8712 C.ar    
   3 C3             0.3223    -1.1533    -0.1804 C.ar    
   4 C4             0.4527    -2.5248    -0.0888 C.ar    
   5 C5            -0.4872    -3.3532    -0.6879 C.ar    
   6 C6            -1.5582    -2.8022    -1.3791 C.ar    
   7 C7            -1.6921    -1.4307    -1.4655 C.ar    
   8 N8            -0.3546    -4.7445    -0.5953 N.pl3   
   9 C9             0.9007    -5.3200    -0.5946 C.ar    
  10 N10            1.0040    -6.6248    -0.3927 N.ar    
  11 C11            2.1941    -7.2148    -0.3848 C.ar    
  12 C12            3.3441    -6.4228    -0.5959 C.ar    
  13 C13            3.1814    -5.0445    -0.8053 C.ar    
  14 N14            1.9599    -4.5450    -0.8018 N.ar    
  15 N15            2.3076    -8.5659    -0.1758 N.am    
  16 C16            3.5139    -9.1644    -0.1673 C.2     
  17 C17            4.7317    -8.3773    -0.3821 C.2     
  18 C18            4.6262    -7.0156    -0.5949 C.2     
  19 C19            1.1010    -9.3678     0.0416 C.3     
  20 O20            3.5934   -10.3652     0.0201 O.2     
  21 C21            6.0546    -9.0311    -0.3723 C.2     
  22 C22           -2.0116     1.3690    -1.6925 C.3     
  23 C23            0.9244   -10.4008    -1.0978 C.3     
  24 C24           -3.2328     1.5056    -0.7643 C.3     
  25 N25            6.8068    -9.2974     0.7354 N.am    
  26 N26            6.7090    -9.4625    -1.4293 N.2     
  27 C27            7.8717    -9.9993    -1.0401 C.2     
  28 C28            7.9549    -9.9080     0.3023 C.2     
  29 S29            6.4078    -8.9488     2.3043 S.o2    
  30 C30            6.3587    -7.1366     2.3670 C.3     
  31 O31            5.1029    -9.4888     2.4623 O.2     
  32 O32            7.5025    -9.4445     3.0627 O.2     
  33 C33            1.2466   -10.2279     1.3119 C.3     
  34 O34            1.1102   -11.6027     0.9151 O.3     
  35 C35            1.5199   -11.6852    -0.4669 C.3     
  36 N36           -3.5463     2.9478    -0.6691 N.3     
  37 C37           -3.0170     3.5603    -1.9145 C.3     
  38 C38           -1.6787     2.8119    -2.1365 C.3     
  39 C39           -4.9943     3.1650    -0.5498 C.3     
  40 C40            5.8792    -6.6868     3.7486 C.3     
  41 F41            6.7596    -7.1635     4.7257 F       
  42 F42            5.8413    -5.2892     3.7969 F       
  43 F43            4.5982    -7.1965     3.9863 F       
  44 H44           -0.2272     1.3664    -0.5418 H       
  45 H45            1.0537    -0.5091     0.2849 H       
  46 H46            1.2858    -2.9533     0.4484 H       
  47 H47           -2.2888    -3.4465    -1.8456 H       
  48 H48           -2.5252    -1.0022    -2.0027 H       
  49 H49           -1.1446    -5.3038    -0.5318 H       
  50 H50            4.0374    -4.4070    -0.9701 H       
  51 H51            5.5092    -6.4149    -0.7558 H       
  52 H52            0.2244    -8.7242     0.1150 H       
  53 H53           -2.2604     0.7535    -2.5569 H       
  54 H54           -0.1298   -10.5383    -1.3383 H       
  55 H55            1.4883   -10.1045    -1.9824 H       
  56 H56           -4.0819     0.9680    -1.1863 H       
  57 H57           -2.9942     1.1115     0.2236 H       
  58 H58            8.6158   -10.4341    -1.6910 H       
  59 H59            8.7720   -10.2508     0.9197 H       
  60 H60            7.3567    -6.7394     2.1818 H       
  61 H61            5.6728    -6.7651     1.6057 H       
  62 H62            2.2279   -10.0666     1.7583 H       
  63 H63            0.4651    -9.9690     2.0264 H       
  64 H64            1.1015   -12.5742    -0.9389 H       
  65 H65            2.6070   -11.6831    -0.5457 H       
  66 H66           -3.6977     3.3868    -2.7479 H       
  67 H67           -2.8426     4.6271    -1.7745 H       
  68 H68           -0.8917     3.2356    -1.5126 H       
  69 H69           -1.3934     2.8357    -3.1883 H       
  70 H70           -5.3637     2.6672     0.3467 H       
  71 H71           -5.1969     4.2338    -0.4815 H       
  72 H72           -5.4966     2.7552    -1.4261 H       
@<TRIPOS>BOND
   1    1    2 1
   2    1   22 1
   3    1   44 1
   4    2    3 ar
   5    2    7 ar
   6    3    4 ar
   7    3   45 1
   8    4    5 ar
   9    4   46 1
  10    5    6 ar
  11    5    8 1
  12    6    7 ar
  13    6   47 1
  14    7   48 1
  15    8    9 1
  16    8   49 1
  17    9   10 ar
  18    9   14 ar
  19   10   11 ar
  20   11   12 ar
  21   11   15 1
  22   12   13 ar
  23   12   18 1
  24   13   14 ar
  25   13   50 1
  26   15   16 am
  27   15   19 1
  28   16   17 1
  29   16   20 2
  30   17   18 2
  31   17   21 1
  32   18   51 1
  33   19   33 1
  34   19   23 1
  35   19   52 1
  36   21   25 1
  37   21   26 2
  38   22   24 1
  39   22   38 1
  40   22   53 1
  41   23   35 1
  42   23   54 1
  43   23   55 1
  44   24   36 1
  45   24   56 1
  46   24   57 1
  47   25   29 am
  48   25   28 1
  49   26   27 1
  50   27   28 2
  51   27   58 1
  52   28   59 1
  53   29   30 1
  54   29   31 2
  55   29   32 2
  56   30   40 1
  57   30   60 1
  58   30   61 1
  59   33   34 1
  60   33   62 1
  61   33   63 1
  62   34   35 1
  63   35   64 1
  64   35   65 1
  65   36   37 1
  66   36   39 1
  67   37   38 1
  68   37   66 1
  69   37   67 1
  70   38   68 1
  71   38   69 1
  72   39   70 1
  73   39   71 1
  74   39   72 1
  75   40   41 1
  76   40   42 1
  77   40   43 1

#	End of record

