#	Name: ASD01913928
#	Creating user name:	WinNT
#	Creation time:	15. 06. 2019 20:02

#	Modifying user name:	WinNT
#	Modification time:	15. 06. 2019 20:02

#	Program:	/corina/corina34_cracker 3.40 0067  02.08.2006

@<TRIPOS>MOLECULE
ASD01913928
  44   46    0    0    0
SMALL
NO_CHARGES


@<TRIPOS>ATOM
   1 C1            -0.0173     1.4278     0.0099 C.ar    
   2 C2             0.0021    -0.0041     0.0020 C.1     
   3 C3             0.0180    -1.1779    -0.0044 C.1     
   4 C4             0.0374    -2.6098    -0.0123 C.ar    
   5 C5            -1.1657    -3.3304    -0.0047 C.ar    
   6 C6             0.1700    -5.3026    -0.0279 C.ar    
   7 N7             1.2564    -4.5437    -0.0400 N.ar    
   8 N8             1.1960    -3.2616    -0.0324 N.ar    
   9 C9            -1.0939    -4.7113    -0.0128 C.ar    
  10 C10            1.1545     3.5253     0.0099 C.ar    
  11 C11           -1.2351     2.1135     0.0310 C.ar    
  12 C12           -0.0549     4.1972     0.0251 C.ar    
  13 N13            0.2896    -6.6909    -0.0375 N.am    
  14 C14            1.1811     2.1462     0.0023 C.ar    
  15 C15           -1.2459     3.4923     0.0385 C.ar    
  16 C16           -0.7285    -7.5571    -0.1227 C.2     
  17 N17           -0.3505    -8.8421    -0.1121 N.am    
  18 C18            1.1144    -8.9139    -0.0068 C.3     
  19 C19            1.5542    -7.4376     0.0381 C.3     
  20 C20            1.5257    -9.6414     1.2749 C.3     
  21 C21            1.7077    -9.6085    -1.2341 C.3     
  22 C22           -1.2533    -9.9931    -0.1926 C.3     
  23 O23           -1.8906    -7.2085    -0.2020 O.2     
  24 C24            2.4458     4.3021    -0.0041 C.3     
  25 H25           -2.1187    -2.8226     0.0074 H       
  26 H26           -1.9897    -5.3145    -0.0071 H       
  27 H27           -2.1652     1.5647     0.0412 H       
  28 H28           -0.0696     5.2771     0.0268 H       
  29 H29            2.1258     1.6230    -0.0091 H       
  30 H30           -2.1862     4.0236     0.0506 H       
  31 H31            2.1949    -7.2033    -0.8121 H       
  32 H32            2.0656    -7.2191     0.9755 H       
  33 H33            1.1438   -10.6620     1.2519 H       
  34 H34            2.6131    -9.6619     1.3480 H       
  35 H35            1.1133    -9.1185     2.1378 H       
  36 H36            1.4231    -9.0625    -2.1336 H       
  37 H37            2.7943    -9.6292    -1.1502 H       
  38 H38            1.3284   -10.6287    -1.2931 H       
  39 H39           -2.2831    -9.6430    -0.2632 H       
  40 H40           -1.0095   -10.5850    -1.0749 H       
  41 H41           -1.1389   -10.6078     0.7002 H       
  42 H42            2.7692     4.4879     1.0201 H       
  43 H43            3.2098     3.7274    -0.5277 H       
  44 H44            2.2924     5.2527    -0.5148 H       
@<TRIPOS>BOND
   1    1    2 1
   2    1   14 ar
   3    1   11 ar
   4    2    3 3
   5    3    4 1
   6    4    5 ar
   7    4    8 ar
   8    5    9 ar
   9    5   25 1
  10    6    7 ar
  11    6   13 1
  12    6    9 ar
  13    7    8 ar
  14    9   26 1
  15   10   12 ar
  16   10   24 1
  17   10   14 ar
  18   11   15 ar
  19   11   27 1
  20   12   15 ar
  21   12   28 1
  22   13   16 am
  23   13   19 1
  24   14   29 1
  25   15   30 1
  26   16   17 am
  27   16   23 2
  28   17   18 1
  29   17   22 1
  30   18   19 1
  31   18   20 1
  32   18   21 1
  33   19   31 1
  34   19   32 1
  35   20   33 1
  36   20   34 1
  37   20   35 1
  38   21   36 1
  39   21   37 1
  40   21   38 1
  41   22   39 1
  42   22   40 1
  43   22   41 1
  44   24   42 1
  45   24   43 1
  46   24   44 1

#	End of record

