#	Name: ASD03092900
#	Creating user name:	WinNT
#	Creation time:	15. 06. 2019 20:33

#	Modifying user name:	WinNT
#	Modification time:	15. 06. 2019 20:33

#	Program:	/corina/corina34_cracker 3.40 0067  02.08.2006

@<TRIPOS>MOLECULE
ASD03092900
  42   45    0    0    0
SMALL
NO_CHARGES


@<TRIPOS>ATOM
   1 N1            -0.4337    -1.3661     1.2686 N.am    
   2 S2             0.0895    -0.3546     0.0664 S.o2    
   3 O3            -0.3501     0.9497     0.4197 O.2     
   4 O4             1.4535    -0.6787    -0.1655 O.2     
   5 C5            -0.7825    -0.7931    -1.4006 C.ar    
   6 C6            -0.2597    -1.7506    -2.2518 C.ar    
   7 C7            -0.9359    -2.0999    -3.4024 C.ar    
   8 C8            -2.1517    -1.4849    -3.7084 C.ar    
   9 C9            -2.8808    -1.8539    -4.9372 C.2     
  10 S10           -4.5914    -2.2642    -5.0438 S.3     
  11 C11           -4.4271    -2.5111    -6.7793 C.2     
  12 N12           -3.1983    -2.2882    -7.1407 N.2     
  13 C13           -2.3467    -1.9324    -6.2017 C.2     
  14 C14           -0.9216    -1.6434    -6.4851 C.ar    
  15 C15           -0.2974    -0.5484    -5.8882 C.ar    
  16 C16            1.0300    -0.2838    -6.1557 C.ar    
  17 C17            1.7422    -1.1030    -7.0153 C.ar    
  18 Cl18           3.4120    -0.7640    -7.3478 Cl      
  19 C19            1.1276    -2.1917    -7.6102 C.ar    
  20 C20           -0.1977    -2.4688    -7.3453 C.ar    
  21 C21           -5.5212    -2.9122    -7.6882 C.ar    
  22 C22           -5.2636    -3.0821    -9.0489 C.ar    
  23 C23           -6.2987    -3.4579    -9.8870 C.ar    
  24 C24           -7.5586    -3.6520    -9.3384 C.ar    
  25 C25           -7.7440    -3.4661    -7.9801 C.ar    
  26 N26           -6.7415    -3.1135    -7.2025 N.ar    
  27 C27           -2.6753    -0.5175    -2.8438 C.ar    
  28 F28           -3.8508     0.0831    -3.1313 F       
  29 C29           -1.9892    -0.1825    -1.6925 C.ar    
  30 H30           -0.8532    -0.9994     2.0626 H       
  31 H31           -0.3243    -2.3256     1.1770 H       
  32 H32            0.6808    -2.2256    -2.0148 H       
  33 H33           -0.5257    -2.8472    -4.0654 H       
  34 H34           -0.8522     0.0916    -5.2181 H       
  35 H35            1.5143     0.5639    -5.6940 H       
  36 H36            1.6878    -2.8274    -8.2800 H       
  37 H37           -0.6750    -3.3207    -7.8067 H       
  38 H38           -4.2706    -2.9223    -9.4425 H       
  39 H39           -6.1299    -3.5967   -10.9447 H       
  40 H40           -8.3870    -3.9452    -9.9663 H       
  41 H41           -8.7236    -3.6161    -7.5509 H       
  42 H42           -2.3934     0.5608    -1.0213 H       
@<TRIPOS>BOND
   1    1    2 am
   2    1   30 1
   3    1   31 1
   4    2    3 2
   5    2    4 2
   6    2    5 1
   7    5   29 ar
   8    5    6 ar
   9    6    7 ar
  10    6   32 1
  11    7    8 ar
  12    7   33 1
  13    8    9 1
  14    8   27 ar
  15    9   13 2
  16    9   10 1
  17   10   11 1
  18   11   12 2
  19   11   21 1
  20   12   13 1
  21   13   14 1
  22   14   20 ar
  23   14   15 ar
  24   15   16 ar
  25   15   34 1
  26   16   17 ar
  27   16   35 1
  28   17   18 1
  29   17   19 ar
  30   19   20 ar
  31   19   36 1
  32   20   37 1
  33   21   26 ar
  34   21   22 ar
  35   22   23 ar
  36   22   38 1
  37   23   24 ar
  38   23   39 1
  39   24   25 ar
  40   24   40 1
  41   25   26 ar
  42   25   41 1
  43   27   28 1
  44   27   29 ar
  45   29   42 1

#	End of record

