#	Name: ASD03950020
#	Creating user name:	WinNT
#	Creation time:	15. 06. 2019 20:48

#	Modifying user name:	WinNT
#	Modification time:	15. 06. 2019 20:48

#	Program:	/corina/corina34_cracker 3.40 0067  02.08.2006

@<TRIPOS>MOLECULE
ASD03950020
  67   71    0    0    0
SMALL
NO_CHARGES


@<TRIPOS>ATOM
   1 N1            -0.0066     1.3714    -0.0219 N.pl3   
   2 N2             0.0164    -0.0268    -0.0344 N.2     
   3 C3             1.2466    -0.4532    -0.0471 C.2     
   4 C4             2.1215     0.7167    -0.0431 C.ar    
   5 C5             3.5085     0.8863    -0.0516 C.ar    
   6 C6             4.0493     2.1643    -0.0442 C.ar    
   7 C7             3.2161     3.2842    -0.0278 C.ar    
   8 C8             1.8352     3.1325    -0.0187 C.ar    
   9 C9             1.2753     1.8414    -0.0270 C.ar    
  10 C10            0.9596     4.3197    -0.0004 C.2     
  11 O11           -0.2487     4.1838     0.0075 O.2     
  12 N12            1.4989     5.5548     0.0075 N.am    
  13 N13            1.2382    -4.6863    -0.0843 N.am    
  14 C14            1.6364    -4.0586     1.1830 C.3     
  15 C15            1.1566    -2.6037     1.1847 C.3     
  16 C16            1.6883    -1.8940    -0.0626 C.3     
  17 C17            1.1407    -2.5817    -1.3153 C.3     
  18 C18            1.6203    -4.0363    -1.3454 C.3     
  19 S19            0.3810    -6.1032    -0.0914 S.o2    
  20 O20            0.6286    -6.7157    -1.3495 O.2     
  21 O21            0.6497    -6.7409     1.1498 O.2     
  22 C22           -3.3128    -5.1807    -0.7604 C.2     
  23 N23           -2.1031    -5.4779    -1.1494 N.2     
  24 C24           -1.3289    -5.6784    -0.0726 C.2     
  25 C25           -2.0877    -5.4986     1.0253 C.2     
  26 N26           -3.3463    -5.1829     0.5896 N.pl3   
  27 C27           -4.4778    -4.8788    -1.6675 C.3     
  28 C28           -4.5120    -4.9001     1.4307 C.3     
  29 C29            5.5229     2.3415    -0.0532 C.ar    
  30 C30            6.0721     3.6210    -0.0459 C.ar    
  31 C31            7.4494     3.7799    -0.0545 C.ar    
  32 C32            8.2770     2.6636    -0.0704 C.ar    
  33 C33            7.7311     1.3944    -0.0776 C.ar    
  34 C34            6.3603     1.2279    -0.0634 C.ar    
  35 N35            8.0059     5.0638    -0.0476 N.am    
  36 C36            9.1581     5.2953     0.6121 C.2     
  37 O37            9.6620     4.4167     1.2793 O.2     
  38 C38            9.8204     6.6459     0.5208 C.3     
  39 H39           -0.8063     1.9203    -0.0149 H       
  40 H40            4.1587     0.0240    -0.0635 H       
  41 H41            3.6476     4.2743    -0.0218 H       
  42 H42            2.4628     5.6631     0.0012 H       
  43 H43            0.9232     6.3354     0.0195 H       
  44 H44            1.1805    -4.5946     2.0154 H       
  45 H45            2.7218    -4.0855     1.2790 H       
  46 H46            0.0669    -2.5800     1.1801 H       
  47 H47            1.5282    -2.0991     2.0766 H       
  48 H48            2.7773    -1.9399    -0.0701 H       
  49 H49            0.0512    -2.5581    -1.2964 H       
  50 H50            1.5010    -2.0615    -2.2028 H       
  51 H51            2.7044    -4.0614    -1.4556 H       
  52 H52            1.1538    -4.5577    -2.1812 H       
  53 H53           -1.7652    -5.5869     2.0523 H       
  54 H54           -5.0078    -5.8030    -1.8980 H       
  55 H55           -5.1558    -4.1856    -1.1696 H       
  56 H56           -4.1124    -4.4295    -2.5909 H       
  57 H57           -5.0486    -5.8273     1.6315 H       
  58 H58           -4.1827    -4.4597     2.3718 H       
  59 H59           -5.1719    -4.2029     0.9145 H       
  60 H60            5.4270     4.4871    -0.0339 H       
  61 H61            9.3497     2.7886    -0.0774 H       
  62 H62            8.3783     0.5299    -0.0903 H       
  63 H63            5.9371     0.2342    -0.0646 H       
  64 H64            7.5624     5.7872    -0.5177 H       
  65 H65            9.2263     7.2994    -0.1181 H       
  66 H66            9.8954     7.0819     1.5169 H       
  67 H67           10.8185     6.5333     0.0973 H       
@<TRIPOS>BOND
   1    1    2 1
   2    1    9 1
   3    1   39 1
   4    2    3 2
   5    3    4 1
   6    3   16 1
   7    4    5 ar
   8    4    9 ar
   9    5    6 ar
  10    5   40 1
  11    6    7 ar
  12    6   29 1
  13    7    8 ar
  14    7   41 1
  15    8    9 ar
  16    8   10 1
  17   10   11 2
  18   10   12 am
  19   12   42 1
  20   12   43 1
  21   13   14 1
  22   13   18 1
  23   13   19 am
  24   14   15 1
  25   14   44 1
  26   14   45 1
  27   15   16 1
  28   15   46 1
  29   15   47 1
  30   16   17 1
  31   16   48 1
  32   17   18 1
  33   17   49 1
  34   17   50 1
  35   18   51 1
  36   18   52 1
  37   19   20 2
  38   19   21 2
  39   19   24 1
  40   22   23 2
  41   22   26 1
  42   22   27 1
  43   23   24 1
  44   24   25 2
  45   25   26 1
  46   25   53 1
  47   26   28 1
  48   27   54 1
  49   27   55 1
  50   27   56 1
  51   28   57 1
  52   28   58 1
  53   28   59 1
  54   29   30 ar
  55   29   34 ar
  56   30   31 ar
  57   30   60 1
  58   31   32 ar
  59   31   35 1
  60   32   33 ar
  61   32   61 1
  62   33   34 ar
  63   33   62 1
  64   34   63 1
  65   35   36 am
  66   35   64 1
  67   36   37 2
  68   36   38 1
  69   38   65 1
  70   38   66 1
  71   38   67 1

#	End of record

