#	Name: ASD01880325
#	Creating user name:	WinNT
#	Creation time:	15. 06. 2019 19:40

#	Modifying user name:	WinNT
#	Modification time:	15. 06. 2019 19:40

#	Program:	/corina/corina34_cracker 3.40 0067  02.08.2006

@<TRIPOS>MOLECULE
ASD01880325
  31   33    0    0    0
SMALL
NO_CHARGES


@<TRIPOS>ATOM
   1 C1            -0.0192     1.3175    -0.0166 C.ar    
   2 N2             0.0000    -0.0030    -0.0109 N.ar    
   3 C3            -1.1232    -0.7056    -0.0043 C.ar    
   4 C4            -2.3634    -0.0171    -0.0036 C.ar    
   5 C5            -2.3269     1.3802    -0.0098 C.ar    
   6 N6            -1.1404     2.0006    -0.0112 N.ar    
   7 C7            -3.7222    -0.5250     0.0024 C.2     
   8 C8            -4.6599     0.4025     0.0009 C.2     
   9 S9            -3.9664     2.0131    -0.0081 S.3     
  10 C10            1.2893     2.0650    -0.0234 C.3     
  11 C11           -6.1391     0.1148     0.0062 C.3     
  12 N12           -1.0872    -2.0894     0.0012 N.pl3   
  13 C13            0.1347    -2.7571    -0.1205 C.ar    
  14 C14            0.3416    -3.9570     0.5479 C.ar    
  15 C15            1.5498    -4.6152     0.4256 C.ar    
  16 C16            2.5535    -4.0809    -0.3608 C.ar    
  17 C17            2.3512    -2.8853    -1.0285 C.ar    
  18 C18            1.1425    -2.2250    -0.9147 C.ar    
  19 Cl19           3.6147    -2.2179    -2.0144 Cl      
  20 H20           -3.9485    -1.5810     0.0072 H       
  21 H21            1.6020     2.2408    -1.0527 H       
  22 H22            1.1647     3.0203     0.4865 H       
  23 H23            2.0477     1.4748     0.4909 H       
  24 H24           -6.4930     0.0499     1.0351 H       
  25 H25           -6.6671     0.9167    -0.5097 H       
  26 H26           -6.3272    -0.8305    -0.5030 H       
  27 H27           -1.9099    -2.5956     0.0895 H       
  28 H28           -0.4416    -4.3750     1.1630 H       
  29 H29            1.7108    -5.5482     0.9452 H       
  30 H30            3.4975    -4.5972    -0.4541 H       
  31 H31            0.9848    -1.2922    -1.4356 H       
@<TRIPOS>BOND
   1    1    2 ar
   2    1   10 1
   3    1    6 ar
   4    2    3 ar
   5    3    4 ar
   6    3   12 1
   7    4    5 ar
   8    4    7 1
   9    5    6 ar
  10    5    9 1
  11    7    8 2
  12    7   20 1
  13    8    9 1
  14    8   11 1
  15   10   21 1
  16   10   22 1
  17   10   23 1
  18   11   24 1
  19   11   25 1
  20   11   26 1
  21   12   13 1
  22   12   27 1
  23   13   14 ar
  24   13   18 ar
  25   14   15 ar
  26   14   28 1
  27   15   16 ar
  28   15   29 1
  29   16   17 ar
  30   16   30 1
  31   17   18 ar
  32   17   19 1
  33   18   31 1

#	End of record

