#	Name: ASD02550001
#	Creating user name:	WinNT
#	Creation time:	15. 06. 2019 20:24

#	Modifying user name:	WinNT
#	Modification time:	15. 06. 2019 20:24

#	Program:	/corina/corina34_cracker 3.40 0067  02.08.2006

@<TRIPOS>MOLECULE
ASD02550001
  51   51    0    0    0
SMALL
NO_CHARGES


@<TRIPOS>ATOM
   1 C1             0.8424    -0.2985     0.2332 C.3     
   2 C2            -0.2759     0.0557    -0.7546 C.3     
   3 C3            -0.2931     1.5737    -0.9456 C.3     
   4 C4             1.0900     2.0718    -1.2494 C.2     
   5 C5             2.1879     1.3739    -1.0188 C.2     
   6 C6             2.1891    -0.0078    -0.4323 C.3     
   7 C7             3.3038    -0.1155     0.6101 C.3     
   8 C8             2.4370    -1.0302    -1.5433 C.3     
   9 C9             1.2343     3.4455    -1.8520 C.3     
  10 C10            3.4743     1.9818    -1.3537 C.2     
  11 C11            3.8267     3.1701    -0.8030 C.2     
  12 C12            5.0064     3.8183    -1.2210 C.2     
  13 C13            5.3597     5.0095    -0.6689 C.2     
  14 C14            5.8762     3.1910    -2.2798 C.3     
  15 C15            6.5394     5.6577    -1.0868 C.2     
  16 C16            6.8918     6.8460    -0.5361 C.2     
  17 C17            8.1152     7.5181    -0.9696 C.2     
  18 C18            8.4622     8.6881    -0.4273 C.2     
  19 C19            8.9849     6.8909    -2.0284 C.3     
  20 C20            9.7235     9.3812    -0.8742 C.3     
  21 O21            9.4564    10.7697    -1.0809 O.3     
  22 H22            0.7408     0.3070     1.1338 H       
  23 H23            0.7819    -1.3559     0.4908 H       
  24 H24           -0.0874    -0.4316    -1.7112 H       
  25 H25           -1.2351    -0.2739    -0.3553 H       
  26 H26           -0.9577     1.8265    -1.7717 H       
  27 H27           -0.6560     2.0485    -0.0341 H       
  28 H28            3.1947     0.6843     1.3426 H       
  29 H29            3.2388    -1.0802     1.1132 H       
  30 H30            4.2719    -0.0271     0.1173 H       
  31 H31            3.4015    -0.8320    -2.0108 H       
  32 H32            2.4382    -2.0343    -1.1193 H       
  33 H33            1.6479    -0.9525    -2.2912 H       
  34 H34            0.2462     3.8699    -2.0300 H       
  35 H35            1.7870     4.0871    -1.1657 H       
  36 H36            1.7741     3.3732    -2.7962 H       
  37 H37            4.1442     1.4847    -2.0397 H       
  38 H38            3.2034     3.6196    -0.0442 H       
  39 H39            4.7363     5.4590     0.0899 H       
  40 H40            5.5560     3.5345    -3.2634 H       
  41 H41            6.9144     3.4789    -2.1146 H       
  42 H42            5.7872     2.1059    -2.2271 H       
  43 H43            7.1627     5.2081    -1.8456 H       
  44 H44            6.2685     7.2955     0.2227 H       
  45 H45            7.8388     9.1377     0.3315 H       
  46 H46            8.6647     7.2344    -3.0120 H       
  47 H47           10.0232     7.1788    -1.8632 H       
  48 H48            8.8960     5.8058    -1.9757 H       
  49 H49           10.4907     9.2689    -0.1081 H       
  50 H50           10.0723     8.9357    -1.8058 H       
  51 H51           10.2255    11.2793    -1.3705 H       
@<TRIPOS>BOND
   1    1    2 1
   2    1    6 1
   3    1   22 1
   4    1   23 1
   5    2    3 1
   6    2   24 1
   7    2   25 1
   8    3    4 1
   9    3   26 1
  10    3   27 1
  11    4    5 2
  12    4    9 1
  13    5    6 1
  14    5   10 1
  15    6    7 1
  16    6    8 1
  17    7   28 1
  18    7   29 1
  19    7   30 1
  20    8   31 1
  21    8   32 1
  22    8   33 1
  23    9   34 1
  24    9   35 1
  25    9   36 1
  26   10   11 2
  27   10   37 1
  28   11   12 1
  29   11   38 1
  30   12   13 2
  31   12   14 1
  32   13   15 1
  33   13   39 1
  34   14   40 1
  35   14   41 1
  36   14   42 1
  37   15   16 2
  38   15   43 1
  39   16   17 1
  40   16   44 1
  41   17   18 2
  42   17   19 1
  43   18   20 1
  44   18   45 1
  45   19   46 1
  46   19   47 1
  47   19   48 1
  48   20   21 1
  49   20   49 1
  50   20   50 1
  51   21   51 1

#	End of record

