#	Name: ASD08170205
#	Creating user name:	WinNT
#	Creation time:	15. 06. 2019 21:17

#	Modifying user name:	WinNT
#	Modification time:	15. 06. 2019 21:17

#	Program:	/corina/corina34_cracker 3.40 0067  02.08.2006

@<TRIPOS>MOLECULE
ASD08170205
  64   69    0    0    0
SMALL
NO_CHARGES


@<TRIPOS>ATOM
   1 N1            -0.0150     1.2583     0.0090 N.2     
   2 N2             0.0021    -0.0041     0.0020 N.2     
   3 C3             1.1271     1.8769     0.0014 C.2     
   4 S4             2.3826     0.7116    -0.0169 S.3     
   5 C5             1.1681    -0.5677    -0.0121 C.2     
   6 C6             1.4387    -2.0502    -0.0227 C.3     
   7 C7             1.5165    -2.5442    -1.4687 C.3     
   8 C8             1.7912    -4.0493    -1.4794 C.3     
   9 C9             1.8690    -4.5432    -2.9254 C.3     
  10 C10            2.1395    -6.0257    -2.9359 C.2     
  11 N11            1.2478    -6.9651    -2.9329 N.2     
  12 S12            3.7275    -6.7933    -2.9623 S.3     
  13 C13            2.9647    -8.3272    -2.9581 C.2     
  14 N14            1.6777    -8.1521    -2.9433 N.2     
  15 N15            3.6154    -9.5562    -2.9730 N.am    
  16 C16            2.8993   -10.6980    -2.9678 C.2     
  17 O17            1.6874   -10.6536    -2.9501 O.2     
  18 C18            3.6044   -12.0297    -2.9839 C.3     
  19 N19            1.3017     3.2566     0.0067 N.am    
  20 C20            0.2284     4.0717     0.0214 C.2     
  21 O21           -0.8897     3.6019     0.0299 O.2     
  22 C22            0.4176     5.5667     0.0272 C.3     
  23 C23            1.0755     6.0103    -1.2865 C.3     
  24 C24            4.4051   -12.2073    -1.6866 C.3     
  25 O25            2.6406   -13.0855    -3.0635 O.3     
  26 C26            3.0867   -14.3425    -2.7922 C.ar    
  27 C27            4.2883   -14.5418    -2.1230 C.ar    
  28 O28            5.0500   -13.4848    -1.7292 O.3     
  29 C29            2.3293   -15.4342    -3.1899 C.ar    
  30 C30            2.7677   -16.7166    -2.9194 C.ar    
  31 C31            3.9619   -16.9149    -2.2516 C.ar    
  32 C32            4.7218   -15.8315    -1.8532 C.ar    
  33 O33            1.2282     7.4335    -1.2530 O.3     
  34 C34            0.1508     8.1547    -0.8390 C.ar    
  35 C35           -0.8884     7.5463    -0.1452 C.ar    
  36 O36           -0.8551     6.2142     0.1318 O.3     
  37 C37            0.0939     9.5129    -1.1148 C.ar    
  38 C38           -0.9927    10.2589    -0.6991 C.ar    
  39 C39           -2.0252     9.6541    -0.0066 C.ar    
  40 C40           -1.9753     8.3011     0.2704 C.ar    
  41 H41            2.3843    -2.2506     0.4811 H       
  42 H42            0.6334    -2.5702     0.4961 H       
  43 H43            0.5709    -2.3438    -1.9724 H       
  44 H44            2.3218    -2.0242    -1.9874 H       
  45 H45            2.7368    -4.2496    -0.9756 H       
  46 H46            0.9858    -4.5693    -0.9606 H       
  47 H47            0.9234    -4.3429    -3.4291 H       
  48 H48            2.6743    -4.0232    -3.4441 H       
  49 H49            4.5846    -9.5917    -2.9871 H       
  50 H50            4.2766   -12.0794    -3.8405 H       
  51 H51            2.1959     3.6323    -0.0001 H       
  52 H52            1.0474     5.8543     0.8691 H       
  53 H53            2.0528     5.5379    -1.3861 H       
  54 H54            0.4428     5.7282    -2.1281 H       
  55 H55            5.1544   -11.4197    -1.6065 H       
  56 H56            3.7321   -12.1635    -0.8304 H       
  57 H57            1.3958   -15.2820    -3.7113 H       
  58 H58            2.1763   -17.5652    -3.2298 H       
  59 H59            4.3014   -17.9182    -2.0406 H       
  60 H60            5.6542   -15.9891    -1.3316 H       
  61 H61            0.8994     9.9878    -1.6551 H       
  62 H62           -1.0351    11.3161    -0.9154 H       
  63 H63           -2.8722    10.2400     0.3183 H       
  64 H64           -2.7833     7.8311     0.8113 H       
@<TRIPOS>BOND
   1    1    2 1
   2    1    3 2
   3    2    5 2
   4    3    4 1
   5    3   19 1
   6    4    5 1
   7    5    6 1
   8    6    7 1
   9    6   41 1
  10    6   42 1
  11    7    8 1
  12    7   43 1
  13    7   44 1
  14    8    9 1
  15    8   45 1
  16    8   46 1
  17    9   10 1
  18    9   47 1
  19    9   48 1
  20   10   11 2
  21   10   12 1
  22   11   14 1
  23   12   13 1
  24   13   14 2
  25   13   15 1
  26   15   16 am
  27   15   49 1
  28   16   17 2
  29   16   18 1
  30   18   24 1
  31   18   25 1
  32   18   50 1
  33   19   20 am
  34   19   51 1
  35   20   21 2
  36   20   22 1
  37   22   23 1
  38   22   36 1
  39   22   52 1
  40   23   33 1
  41   23   53 1
  42   23   54 1
  43   24   28 1
  44   24   55 1
  45   24   56 1
  46   25   26 1
  47   26   27 ar
  48   26   29 ar
  49   27   28 1
  50   27   32 ar
  51   29   30 ar
  52   29   57 1
  53   30   31 ar
  54   30   58 1
  55   31   32 ar
  56   31   59 1
  57   32   60 1
  58   33   34 1
  59   34   35 ar
  60   34   37 ar
  61   35   36 1
  62   35   40 ar
  63   37   38 ar
  64   37   61 1
  65   38   39 ar
  66   38   62 1
  67   39   40 ar
  68   39   63 1
  69   40   64 1

#	End of record

