#	Name: ASD01913814
#	Creating user name:	WinNT
#	Creation time:	15. 06. 2019 20:02

#	Modifying user name:	WinNT
#	Modification time:	15. 06. 2019 20:02

#	Program:	/corina/corina34_cracker 3.40 0067  02.08.2006

@<TRIPOS>MOLECULE
ASD01913814
  40   42    0    0    0
SMALL
NO_CHARGES


@<TRIPOS>ATOM
   1 C1            -0.0232     1.4277    -0.0312 C.ar    
   2 C2            -0.0022    -0.0041    -0.0269 C.1     
   3 C3             0.0151    -1.1780    -0.0233 C.1     
   4 C4             0.0362    -2.6098    -0.0189 C.ar    
   5 C5            -1.1339    -3.3384     0.2423 C.ar    
   6 C6             0.1561    -5.3344    -0.0280 C.ar    
   7 N7             1.2425    -4.6188    -0.2772 N.ar    
   8 C8             1.2207    -3.3022    -0.2802 C.ar    
   9 C9            -1.0630    -4.7171     0.2354 C.ar    
  10 N10            0.2332    -6.7251    -0.0374 N.am    
  11 C11           -0.8328    -7.5439    -0.0329 C.2     
  12 C12           -0.3802    -8.9874    -0.0359 C.3     
  13 C13            1.1085    -8.9188     0.3766 C.3     
  14 C14            1.4888    -7.4847    -0.0599 C.3     
  15 O15           -1.9893    -7.1785    -0.0268 O.2     
  16 C16            1.1465     2.1460    -0.2923 C.ar    
  17 C17            1.1201     3.5252    -0.2951 C.ar    
  18 C18           -0.0608     4.1988    -0.0399 C.ar    
  19 C19           -1.2259     3.4941     0.2201 C.ar    
  20 C20           -1.2149     2.1128     0.2198 C.ar    
  21 C21            1.2666    -9.0972     1.8880 C.3     
  22 C22            1.9360    -9.9564    -0.3846 C.3     
  23 F23           -2.3751     4.1593     0.4689 F       
  24 H24           -2.0669    -2.8333     0.4440 H       
  25 H25            2.1271    -2.7527    -0.4871 H       
  26 H26           -1.9439    -5.3100     0.4327 H       
  27 H27           -0.9507    -9.5676     0.6893 H       
  28 H28           -0.4804    -9.4165    -1.0329 H       
  29 H29            1.9120    -7.4958    -1.0643 H       
  30 H30            2.1989    -7.0518     0.6447 H       
  31 H31            2.0699     1.6223    -0.4911 H       
  32 H32            2.0240     4.0807    -0.4968 H       
  33 H33           -0.0751     5.2787    -0.0427 H       
  34 H34           -2.1228     1.5640     0.4224 H       
  35 H35            0.8897   -10.0776     2.1795 H       
  36 H36            2.3206    -9.0191     2.1547 H       
  37 H37            0.7022    -8.3221     2.4063 H       
  38 H38            1.8399    -9.7825    -1.4564 H       
  39 H39            2.9832    -9.8697    -0.0949 H       
  40 H40            1.5743   -10.9564    -0.1450 H       
@<TRIPOS>BOND
   1    1    2 1
   2    1   16 ar
   3    1   20 ar
   4    2    3 3
   5    3    4 1
   6    4    5 ar
   7    4    8 ar
   8    5    9 ar
   9    5   24 1
  10    6    7 ar
  11    6   10 1
  12    6    9 ar
  13    7    8 ar
  14    8   25 1
  15    9   26 1
  16   10   11 am
  17   10   14 1
  18   11   12 1
  19   11   15 2
  20   12   13 1
  21   12   27 1
  22   12   28 1
  23   13   14 1
  24   13   21 1
  25   13   22 1
  26   14   29 1
  27   14   30 1
  28   16   17 ar
  29   16   31 1
  30   17   18 ar
  31   17   32 1
  32   18   19 ar
  33   18   33 1
  34   19   20 ar
  35   19   23 1
  36   20   34 1
  37   21   35 1
  38   21   36 1
  39   21   37 1
  40   22   38 1
  41   22   39 1
  42   22   40 1

#	End of record

