#	Name: ASD03730363
#	Creating user name:	WinNT
#	Creation time:	15. 06. 2019 20:44

#	Modifying user name:	WinNT
#	Modification time:	15. 06. 2019 20:44

#	Program:	/corina/corina34_cracker 3.40 0067  02.08.2006

@<TRIPOS>MOLECULE
ASD03730363
  62   68    0    0    0
SMALL
NO_CHARGES


@<TRIPOS>ATOM
   1 O1             0.6323     1.3596     0.3730 O.3     
   2 C2             0.8046    -0.0682     0.4428 C.3     
   3 O3             2.0598    -0.2948    -0.2248 O.3     
   4 C4             2.7729     0.8587    -0.0641 C.ar    
   5 C5             1.8946     1.8758     0.3024 C.ar    
   6 C6             4.1229     1.1270    -0.2024 C.ar    
   7 C7             4.6131     2.4102     0.0206 C.ar    
   8 C8             3.7248     3.4199     0.3782 C.ar    
   9 C9             2.3791     3.1541     0.5231 C.ar    
  10 O10            5.8926     2.8778    -0.0437 O.3     
  11 C11            4.5395     4.6778     0.5185 C.3     
  12 C12            5.8684     4.3138    -0.1575 C.3     
  13 N13            3.7251     6.7921     0.8202 N.am    
  14 C14            3.8819     5.8571    -0.1382 C.2     
  15 C15            4.7314     5.0765     1.9518 C.ar    
  16 C16            5.2722     4.4462     3.0502 C.ar    
  17 C17            5.3074     5.0931     4.2726 C.ar    
  18 C18            4.7983     6.3737     4.3884 C.ar    
  19 C19            4.2547     7.0090     3.2914 C.ar    
  20 C20            4.2153     6.3655     2.0568 C.ar    
  21 O21            3.5560     5.9504    -1.3028 O.2     
  22 C22            3.1128     8.1031     0.5913 C.3     
  23 C23            1.6278     8.0128     0.8316 C.ar    
  24 C24            1.1187     8.2514     2.0916 C.ar    
  25 C25           -0.2568     8.1674     2.3124 C.ar    
  26 C26           -1.1086     7.8421     1.2554 C.ar    
  27 C27           -0.5866     7.6060     0.0007 C.ar    
  28 C28            0.7776     7.6965    -0.2128 C.ar    
  29 C29           -0.8092     8.4212     3.6601 C.2     
  30 O30           -0.2432     7.9814     4.6417 O.2     
  31 N31           -1.9405     9.1404     3.8001 N.am    
  32 C32           -2.5720     9.2933     5.1179 C.3     
  33 C33           -2.7691    10.7860     5.4000 C.3     
  34 C34           -3.5546    11.4192     4.2493 C.3     
  35 C35           -2.7624    11.2741     2.9480 C.3     
  36 C36           -2.5622     9.7915     2.6390 C.3     
  37 H37            0.8579    -0.3972     1.4806 H       
  38 H38           -0.0048    -0.5775    -0.0803 H       
  39 H39            4.8009     0.3353    -0.4851 H       
  40 H40            1.7015     3.9451     0.8088 H       
  41 H41            6.7086     4.7586     0.3756 H       
  42 H42            5.8669     4.6193    -1.2038 H       
  43 H43            5.6688     3.4459     2.9574 H       
  44 H44            5.7312     4.5990     5.1345 H       
  45 H45            4.8261     6.8787     5.3427 H       
  46 H46            3.8584     8.0088     3.3901 H       
  47 H47            3.5479     8.8318     1.2753 H       
  48 H48            3.2962     8.4153    -0.4368 H       
  49 H49            1.7831     8.5023     2.9053 H       
  50 H50           -2.1739     7.7751     1.4198 H       
  51 H51           -1.2446     7.3543    -0.8180 H       
  52 H52            1.1808     7.5154    -1.1982 H       
  53 H53           -3.5390     8.7902     5.1203 H       
  54 H54           -1.9296     8.8584     5.8836 H       
  55 H55           -3.3231    10.9104     6.3305 H       
  56 H56           -1.7969    11.2713     5.4873 H       
  57 H57           -4.5166    10.9171     4.1468 H       
  58 H58           -3.7175    12.4763     4.4593 H       
  59 H59           -3.3116    11.7458     2.1332 H       
  60 H60           -1.7903    11.7547     3.0583 H       
  61 H61           -1.9133     9.6853     1.7696 H       
  62 H62           -3.5283     9.3299     2.4351 H       
@<TRIPOS>BOND
   1    1    2 1
   2    1    5 1
   3    2    3 1
   4    2   37 1
   5    2   38 1
   6    3    4 1
   7    4    5 ar
   8    4    6 ar
   9    5    9 ar
  10    6    7 ar
  11    6   39 1
  12    7    8 ar
  13    7   10 1
  14    8    9 ar
  15    8   11 1
  16    9   40 1
  17   10   12 1
  18   11   12 1
  19   11   14 1
  20   11   15 1
  21   12   41 1
  22   12   42 1
  23   13   14 am
  24   13   20 1
  25   13   22 1
  26   14   21 2
  27   15   16 ar
  28   15   20 ar
  29   16   17 ar
  30   16   43 1
  31   17   18 ar
  32   17   44 1
  33   18   19 ar
  34   18   45 1
  35   19   20 ar
  36   19   46 1
  37   22   23 1
  38   22   47 1
  39   22   48 1
  40   23   24 ar
  41   23   28 ar
  42   24   25 ar
  43   24   49 1
  44   25   26 ar
  45   25   29 1
  46   26   27 ar
  47   26   50 1
  48   27   28 ar
  49   27   51 1
  50   28   52 1
  51   29   30 2
  52   29   31 am
  53   31   32 1
  54   31   36 1
  55   32   33 1
  56   32   53 1
  57   32   54 1
  58   33   34 1
  59   33   55 1
  60   33   56 1
  61   34   35 1
  62   34   57 1
  63   34   58 1
  64   35   36 1
  65   35   59 1
  66   35   60 1
  67   36   61 1
  68   36   62 1

#	End of record

