#	Name: ASD01141084
#	Creating user name:	WinNT
#	Creation time:	15. 06. 2019 19:01

#	Modifying user name:	WinNT
#	Modification time:	15. 06. 2019 19:01

#	Program:	/corina/corina34_cracker 3.40 0067  02.08.2006

@<TRIPOS>MOLECULE
ASD01141084
  53   56    0    0    0
SMALL
NO_CHARGES


@<TRIPOS>ATOM
   1 C1             0.2458     1.8131     1.0186 C.ar    
   2 C2             0.0749     0.4364     0.9695 C.ar    
   3 C3             1.4473     2.3835     0.7084 C.ar    
   4 C4             1.1216    -0.3958     0.6037 C.ar    
   5 C5             2.5269     1.5765     0.3348 C.ar    
   6 C6             2.3742     0.1703     0.2783 C.ar    
   7 C7             0.9286    -1.8633     0.5550 C.ar    
   8 C8             3.7924     2.1235     0.0046 C.ar    
   9 N9             3.4143    -0.5919    -0.0802 N.ar    
  10 C10            0.0466    -2.4230    -0.3683 C.ar    
  11 C11            1.6348    -2.6939     1.4315 C.ar    
  12 C12            4.8048     1.2232    -0.3556 C.ar    
  13 N13            4.0177     3.4823     0.0361 N.pl3   
  14 N14            4.5570    -0.0882    -0.3775 N.ar    
  15 C15           -0.1295    -3.7952    -0.4088 C.ar    
  16 C16            1.4499    -4.0658     1.3810 C.ar    
  17 O17            2.5009    -2.1560     2.3302 O.3     
  18 C18            6.1440     1.7253    -0.7110 C.2     
  19 C19            0.5700    -4.6140     0.4675 C.ar    
  20 O20           -0.9898    -4.3425    -1.3086 O.3     
  21 C21            3.1873    -3.0647     3.1935 C.3     
  22 O22            6.3432     2.9224    -0.7906 O.2     
  23 N23            7.1479     0.8578    -0.9477 N.am    
  24 C24           -1.1234    -5.7652    -1.2959 C.3     
  25 H25            3.2708     4.0991    -0.0161 H       
  26 H26            6.9890    -0.0970    -0.8842 H       
  27 C27            8.4792     1.3569    -1.3010 C.3     
  28 C28            9.6153     0.3803    -0.9541 C.3     
  29 C29           10.2618     0.7809    -2.2906 C.3     
  30 C30            8.8475     1.1374    -2.7778 C.3     
  31 C31           11.1953     1.9883    -2.1823 C.3     
  32 H32           -0.5847     2.4427     1.3020 H       
  33 H33           -0.8846     0.0085     1.2197 H       
  34 H34            1.5636     3.4564     0.7512 H       
  35 H35           -0.4983    -1.7871    -1.0502 H       
  36 H36            4.9231     3.8223     0.1104 H       
  37 H37            1.9945    -4.7083     2.0571 H       
  38 H38            0.4289    -5.6842     0.4322 H       
  39 H39            3.8453    -2.5063     3.8594 H       
  40 H40            2.4613    -3.6231     3.7844 H       
  41 H41            3.7789    -3.7576     2.5953 H       
  42 H42           -0.1555    -6.2229    -1.5003 H       
  43 H43           -1.4786    -6.0880    -0.3173 H       
  44 H44           -1.8381    -6.0698    -2.0604 H       
  45 H45            8.6562     2.3743    -0.9520 H       
  46 H46           10.1962     0.6785    -0.0813 H       
  47 H47            9.2989    -0.6622    -0.9172 H       
  48 H48           10.7104    -0.0554    -2.8267 H       
  49 H49            8.3212     0.3020    -3.2396 H       
  50 H50            8.8085     2.0469    -3.3774 H       
  51 H51           12.0023     1.7623    -1.4854 H       
  52 H52           11.6144     2.2127    -3.1632 H       
  53 H53           10.6341     2.8502    -1.8212 H       
@<TRIPOS>BOND
   1    1    2 ar
   2    1    3 ar
   3    1   32 1
   4    2    4 ar
   5    2   33 1
   6    3    5 ar
   7    3   34 1
   8    4    7 1
   9    4    6 ar
  10    5    6 ar
  11    5    8 ar
  12    6    9 ar
  13    7   10 ar
  14    7   11 ar
  15    8   12 ar
  16    8   13 1
  17    9   14 ar
  18   10   15 ar
  19   10   35 1
  20   11   16 ar
  21   11   17 1
  22   12   18 1
  23   12   14 ar
  24   13   25 1
  25   13   36 1
  26   15   19 ar
  27   15   20 1
  28   16   19 ar
  29   16   37 1
  30   17   21 1
  31   18   22 2
  32   18   23 am
  33   19   38 1
  34   20   24 1
  35   21   39 1
  36   21   40 1
  37   21   41 1
  38   23   26 1
  39   23   27 1
  40   24   42 1
  41   24   43 1
  42   24   44 1
  43   27   28 1
  44   27   30 1
  45   27   45 1
  46   28   29 1
  47   28   46 1
  48   28   47 1
  49   29   30 1
  50   29   31 1
  51   29   48 1
  52   30   49 1
  53   30   50 1
  54   31   51 1
  55   31   52 1
  56   31   53 1

#	End of record

