#	Name: ASD09740643
#	Creating user name:	WinNT
#	Creation time:	15. 06. 2019 21:23

#	Modifying user name:	WinNT
#	Modification time:	15. 06. 2019 21:23

#	Program:	/corina/corina34_cracker 3.40 0067  02.08.2006

@<TRIPOS>MOLECULE
ASD09740643
  65   69    0    0    0
SMALL
NO_CHARGES


@<TRIPOS>ATOM
   1 N1             0.1847     1.1601    -0.9761 N.2     
   2 N2             0.1769    -0.0910    -0.8180 N.2     
   3 C3             1.3443     1.7475    -1.1047 C.2     
   4 S4             2.5937     0.5052    -1.0068 S.3     
   5 C5             1.3283    -0.7062    -0.7945 C.2     
   6 C6             1.5698     3.1953    -1.2979 C.ar    
   7 C7             0.4855     4.0672    -1.3564 C.ar    
   8 C8             2.8717     3.6903    -1.4163 C.ar    
   9 C9             3.0879     5.0395    -1.5966 C.ar    
  10 C10            2.0149     5.9167    -1.6621 C.ar    
  11 C11            0.7041     5.4318    -1.5388 C.ar    
  12 O12            2.2335     7.2438    -1.8393 O.3     
  13 C13            3.5931     7.6836    -1.8356 C.3     
  14 C14            4.1857     7.5204    -3.2367 C.3     
  15 C15            3.6516     9.1564    -1.4255 C.3     
  16 C16           -0.4054     6.3346    -1.6065 C.1     
  17 N17           -1.2856     7.0508    -1.6601 N.1     
  18 C18            1.5352    -2.1595    -0.6205 C.ar    
  19 C19            0.4364    -3.0087    -0.4618 C.ar    
  20 C20            0.6362    -4.3643    -0.3003 C.ar    
  21 C21            1.9236    -4.8780    -0.2958 C.ar    
  22 C22            3.0137    -4.0422    -0.4521 C.ar    
  23 C23            2.8270    -2.6859    -0.6202 C.ar    
  24 C24           -1.0452    -2.7008    -0.4310 C.3     
  25 C25           -1.7439    -4.0561    -0.6709 C.3     
  26 C26           -0.6979    -5.0639    -0.1490 C.3     
  27 N27           -0.9514    -5.3760     1.2597 N.am    
  28 C28           -0.5283    -6.5463     1.7774 C.2     
  29 O29           -0.0174    -7.3809     1.0558 O.2     
  30 N30           -0.6715    -6.7913     3.0949 N.am    
  31 C31           -1.3897    -5.8444     3.9588 C.3     
  32 C32           -2.4882    -6.6005     4.7128 C.3     
  33 C33           -1.8677    -7.7846     5.4577 C.3     
  34 C34           -1.2254    -8.7425     4.4516 C.3     
  35 C35           -0.1175    -8.0134     3.6936 C.3     
  36 O36           -0.6732    -9.8630     5.1454 O.3     
  37 H37           -0.5211     3.6875    -1.2611 H       
  38 H38            3.7114     3.0129    -1.3658 H       
  39 H39            4.0963     5.4155    -1.6870 H       
  40 H40            4.1663     7.0860    -1.1268 H       
  41 H41            5.2228     7.8558    -3.2339 H       
  42 H42            4.1441     6.4711    -3.5289 H       
  43 H43            3.6125     8.1179    -3.9455 H       
  44 H44            3.2294     9.2727    -0.4273 H       
  45 H45            4.6887     9.4919    -1.4227 H       
  46 H46            3.0784     9.7540    -2.1343 H       
  47 H47            2.0763    -5.9396    -0.1689 H       
  48 H48            4.0128    -4.4524    -0.4472 H       
  49 H49            3.6783    -2.0327    -0.7423 H       
  50 H50           -1.3274    -2.2965     0.5411 H       
  51 H51           -1.3019    -1.9974    -1.2231 H       
  52 H52           -2.6674    -4.1231    -0.0958 H       
  53 H53           -1.9352    -4.2109    -1.7327 H       
  54 H54           -0.7178    -5.9741    -0.7484 H       
  55 H55           -1.4238    -4.7405     1.8199 H       
  56 H56           -0.6950    -5.4016     4.6725 H       
  57 H57           -1.8385    -5.0609     3.3482 H       
  58 H58           -2.9657    -5.9307     5.4279 H       
  59 H59           -3.2310    -6.9657     4.0036 H       
  60 H60           -1.1075    -7.4208     6.1489 H       
  61 H61           -2.6434    -8.3099     6.0149 H       
  62 H62           -1.9802    -9.0875     3.7449 H       
  63 H63            0.2753    -8.6604     2.9092 H       
  64 H64            0.6824    -7.7456     4.3839 H       
  65 H65           -0.2488   -10.5127     4.5684 H       
@<TRIPOS>BOND
   1    1    2 1
   2    1    3 2
   3    2    5 2
   4    3    4 1
   5    3    6 1
   6    4    5 1
   7    5   18 1
   8    6    7 ar
   9    6    8 ar
  10    7   11 ar
  11    7   37 1
  12    8    9 ar
  13    8   38 1
  14    9   10 ar
  15    9   39 1
  16   10   11 ar
  17   10   12 1
  18   11   16 1
  19   12   13 1
  20   13   14 1
  21   13   15 1
  22   13   40 1
  23   14   41 1
  24   14   42 1
  25   14   43 1
  26   15   44 1
  27   15   45 1
  28   15   46 1
  29   16   17 3
  30   18   19 ar
  31   18   23 ar
  32   19   20 ar
  33   19   24 1
  34   20   21 ar
  35   20   26 1
  36   21   22 ar
  37   21   47 1
  38   22   23 ar
  39   22   48 1
  40   23   49 1
  41   24   25 1
  42   24   50 1
  43   24   51 1
  44   25   26 1
  45   25   52 1
  46   25   53 1
  47   26   27 1
  48   26   54 1
  49   27   28 am
  50   27   55 1
  51   28   29 2
  52   28   30 am
  53   30   31 1
  54   30   35 1
  55   31   32 1
  56   31   56 1
  57   31   57 1
  58   32   33 1
  59   32   58 1
  60   32   59 1
  61   33   34 1
  62   33   60 1
  63   33   61 1
  64   34   35 1
  65   34   36 1
  66   34   62 1
  67   35   63 1
  68   35   64 1
  69   36   65 1

#	End of record

