#	Name: ASD04590764
#	Creating user name:	WinNT
#	Creation time:	15. 06. 2019 20:51

#	Modifying user name:	WinNT
#	Modification time:	15. 06. 2019 20:51

#	Program:	/corina/corina34_cracker 3.40 0067  02.08.2006

@<TRIPOS>MOLECULE
ASD04590764
  69   74    0    0    0
SMALL
NO_CHARGES


@<TRIPOS>ATOM
   1 N1            -2.3786    -2.7063     0.0213 N.ar    
   2 C2            -1.2121    -2.0744     0.0045 C.ar    
   3 N3            -0.0579    -2.7207    -0.0182 N.ar    
   4 C4            -0.0264    -4.0500    -0.0249 C.ar    
   5 C5            -1.2491    -4.7510    -0.0074 C.ar    
   6 C6            -2.4374    -4.0279     0.0161 C.ar    
   7 N7             0.9975    -4.9644    -0.0462 N.pl3   
   8 C8             0.4944    -6.2539    -0.0434 C.ar    
   9 C9            -0.9097    -6.1797    -0.0194 C.ar    
  10 C10            1.0910    -7.5081    -0.0580 C.ar    
  11 N11            0.3547    -8.6005    -0.0500 N.ar    
  12 C12           -0.9660    -8.5653    -0.0277 C.ar    
  13 C13           -1.6441    -7.3649    -0.0119 C.ar    
  14 C14            2.4220    -4.6232    -0.0694 C.3     
  15 N15           -1.2023    -0.6889     0.0103 N.pl3   
  16 C16           -2.3994     0.0160    -0.0791 C.ar    
  17 N17           -3.5337    -0.6392    -0.2706 N.ar    
  18 C18           -4.6897    -0.0095    -0.3611 C.ar    
  19 C19           -4.7569     1.3655    -0.2582 C.ar    
  20 C20           -3.5896     2.0902    -0.0571 C.ar    
  21 C21           -2.3936     1.4019     0.0393 C.ar    
  22 S22           -6.3079     2.1925    -0.3816 S.o2    
  23 N23           -6.9312     2.2961     1.1491 N.am    
  24 C24            2.7446    -3.7921    -1.3236 C.3     
  25 C25            3.2815    -2.4341    -0.8262 C.3     
  26 C26            3.8149    -2.7345     0.5966 C.3     
  27 C27            2.7741    -3.7413     1.1463 C.3     
  28 C28           -6.6330     3.4548     2.0019 C.3     
  29 C29           -6.0736     2.9533     3.3370 C.3     
  30 C30           -7.0555     1.9548     3.9541 C.3     
  31 C31           -7.2210     0.7550     3.0186 C.3     
  32 C32           -7.7980     1.2342     1.6779 C.3     
  33 O33           -6.0217     3.5233    -0.7893 O.2     
  34 O34           -7.1684     1.3253    -1.1074 O.2     
  35 N35           -6.5379     1.4968     5.2504 N.3     
  36 C36           -7.5092     0.6276     5.9278 C.3     
  37 C37           -5.2451     0.8176     5.0908 C.3     
  38 H38           -3.3903    -4.5360     0.0299 H       
  39 H39            2.1678    -7.5885    -0.0764 H       
  40 H40           -1.5227    -9.4907    -0.0220 H       
  41 H41           -2.7237    -7.3432     0.0065 H       
  42 H42            3.0236    -5.5322    -0.0589 H       
  43 H43           -0.3613    -0.2101     0.0767 H       
  44 H44           -5.5950    -0.5772    -0.5179 H       
  45 H45           -3.6154     3.1667     0.0267 H       
  46 H46           -1.4669     1.9340     0.1957 H       
  47 H47            3.5033    -4.2973    -1.9213 H       
  48 H48            1.8413    -3.6426    -1.9149 H       
  49 H49            4.0882    -2.0839    -1.4701 H       
  50 H50            2.4783    -1.6983    -0.7850 H       
  51 H51            4.8046    -3.1889     0.5501 H       
  52 H52            3.8328    -1.8282     1.2018 H       
  53 H53            1.8890    -3.2166     1.5061 H       
  54 H54            3.2106    -4.3450     1.9420 H       
  55 H55           -5.8946     4.0891     1.5115 H       
  56 H56           -7.5462     4.0231     2.1787 H       
  57 H57           -5.1144     2.4637     3.1686 H       
  58 H58           -5.9383     3.7965     4.0144 H       
  59 H59           -8.0217     2.4380     4.0993 H       
  60 H60           -6.2511     0.2860     2.8532 H       
  61 H61           -7.9024     0.0334     3.4694 H       
  62 H62           -8.8059     1.6200     1.8308 H       
  63 H63           -7.8258     0.4025     0.9739 H       
  64 H64           -7.7130    -0.2437     5.3053 H       
  65 H65           -7.1007     0.3029     6.8848 H       
  66 H66           -8.4346     1.1785     6.0958 H       
  67 H67           -4.5245     1.5068     4.6505 H       
  68 H68           -4.8847     0.4889     6.0656 H       
  69 H69           -5.3670    -0.0467     4.4381 H       
@<TRIPOS>BOND
   1    1    2 ar
   2    1    6 ar
   3    2    3 ar
   4    2   15 1
   5    3    4 ar
   6    4    5 ar
   7    4    7 1
   8    5    6 ar
   9    5    9 1
  10    6   38 1
  11    7    8 1
  12    7   14 1
  13    8    9 ar
  14    8   10 ar
  15    9   13 ar
  16   10   11 ar
  17   10   39 1
  18   11   12 ar
  19   12   13 ar
  20   12   40 1
  21   13   41 1
  22   14   24 1
  23   14   27 1
  24   14   42 1
  25   15   16 1
  26   15   43 1
  27   16   17 ar
  28   16   21 ar
  29   17   18 ar
  30   18   19 ar
  31   18   44 1
  32   19   20 ar
  33   19   22 1
  34   20   21 ar
  35   20   45 1
  36   21   46 1
  37   22   33 2
  38   22   34 2
  39   22   23 am
  40   23   28 1
  41   23   32 1
  42   24   25 1
  43   24   47 1
  44   24   48 1
  45   25   26 1
  46   25   49 1
  47   25   50 1
  48   26   27 1
  49   26   51 1
  50   26   52 1
  51   27   53 1
  52   27   54 1
  53   28   29 1
  54   28   55 1
  55   28   56 1
  56   29   30 1
  57   29   57 1
  58   29   58 1
  59   30   31 1
  60   30   35 1
  61   30   59 1
  62   31   32 1
  63   31   60 1
  64   31   61 1
  65   32   62 1
  66   32   63 1
  67   35   36 1
  68   35   37 1
  69   36   64 1
  70   36   65 1
  71   36   66 1
  72   37   67 1
  73   37   68 1
  74   37   69 1

#	End of record

