#	Name: ASD01410780
#	Creating user name:	WinNT
#	Creation time:	15. 06. 2019 19:18

#	Modifying user name:	WinNT
#	Modification time:	15. 06. 2019 19:18

#	Program:	/corina/corina34_cracker 3.40 0067  02.08.2006

@<TRIPOS>MOLECULE
ASD01410780
 115  120    0    0    0
SMALL
NO_CHARGES


@<TRIPOS>ATOM
   1 C1            -0.2509     1.8365     0.8203 C.3     
   2 C2            -0.3734     0.3025     0.9718 C.3     
   3 N3             0.2621     0.0082     2.2727 N.am    
   4 C4             0.1472     1.1978     3.1253 C.3     
   5 C5            -0.5110     2.3078     2.2772 C.3     
   6 O6             1.0596     2.2067     0.3872 O.3     
   7 C7            -0.7141     0.8889     4.3227 C.2     
   8 O8            -1.1903    -0.2183     4.4577 O.2     
   9 N9            -0.9551     1.8430     5.2436 N.am    
  10 C10           -1.8793     1.5775     6.3489 C.3     
  11 C11           -3.2679     1.1517     5.9470 C.2     
  12 O12           -4.0728     0.8406     6.7927 O.2     
  13 C13           -1.2964     0.9709     7.6269 C.3     
  14 C14           -1.7401     2.4358     7.6078 C.3     
  15 C15           -2.1551    -0.0062     8.3877 C.2     
  16 C16           -1.7382    -1.2332     8.5797 C.2     
  17 C17            1.1591     3.3009    -0.4076 C.ar    
  18 C18            2.4210     3.7873    -0.8207 C.ar    
  19 C19            0.0307     3.9687    -0.8414 C.ar    
  20 C20            0.1653     5.0949    -1.6614 C.ar    
  21 N21            1.3506     5.5399    -2.0351 N.ar    
  22 C22            2.4782     4.9336    -1.6515 C.ar    
  23 C23           -1.0532     5.8051    -2.1221 C.ar    
  24 C24            3.7326     5.4216    -2.0585 C.ar    
  25 C25            4.8785     4.7778    -1.6484 C.ar    
  26 C26            4.8089     3.6449    -0.8324 C.ar    
  27 C27            3.6076     3.1550    -0.4214 C.ar    
  28 Cl28           3.8357     6.8270    -3.0723 Cl      
  29 C29           -0.9315     6.9269    -2.9383 C.ar    
  30 C30            0.4536    -0.3923    -0.1158 C.3     
  31 C31            1.1082    -2.2091     1.5432 C.3     
  32 C32            0.8716    -1.1488     2.5817 C.2     
  33 O33            1.2387    -1.3411     3.7215 O.2     
  34 C34           -2.0778     7.5795    -3.3604 C.ar    
  35 C35           -3.3083     7.0874    -2.9513 C.ar    
  36 C36           -3.3553     5.9676    -2.1398 C.ar    
  37 N37           -2.2498     5.3630    -1.7573 N.ar    
  38 C38           -4.6898     5.4294    -1.6922 C.3     
  39 C39           -5.1487     6.1801    -0.4405 C.3     
  40 C40           -5.7181     5.6228    -2.8085 C.3     
  41 C41            0.4318    -3.5069     1.9894 C.3     
  42 C42           -1.0869    -3.3212     1.9762 C.3     
  43 C43           -1.7590    -4.5757     2.5376 C.3     
  44 C44           -3.2776    -4.3900     2.5244 C.3     
  45 C45           -3.9498    -5.6445     3.0858 C.3     
  46 C46           -5.4456    -5.4616     3.0728 C.2     
  47 C47           -6.2074    -6.3388     2.4676 C.2     
  48 N48            0.5692    -1.8111     0.2447 N.am    
  49 O49           -0.2409    -2.4015    -1.8622 O.3     
  50 C50           -0.6519    -3.4719    -2.7531 C.3     
  51 C51           -1.8223    -4.2341    -2.1284 C.3     
  52 C52           -1.0871    -2.8798    -4.0951 C.3     
  53 C53            0.5205    -4.4298    -2.9744 C.3     
  54 C54            0.1740    -2.7560    -0.6314 C.2     
  55 O55            0.1920    -3.9278    -0.3104 O.2     
  56 O56           -3.6104     1.1180     4.6496 O.3     
  57 C57           -4.9646     0.6980     4.3361 C.3     
  58 O58            6.0908     5.2488    -2.0418 O.3     
  59 C59            7.2427     4.5379    -1.5838 C.3     
  60 H60           -1.0097     2.2248     0.1410 H       
  61 H61           -1.4158    -0.0159     0.9572 H       
  62 H62            1.1371     1.5177     3.4507 H       
  63 H63           -0.0322     3.2693     2.4624 H       
  64 H64           -1.5807     2.3636     2.4789 H       
  65 H65           -0.5167     2.7055     5.1745 H       
  66 H66           -0.2253     0.7694     7.6453 H       
  67 H67           -0.9608     3.1979     7.6138 H       
  68 H68           -2.6529     2.6923     8.1456 H       
  69 H69           -3.1141     0.3051     8.7747 H       
  70 H70           -0.7792    -1.5445     8.1927 H       
  71 H71           -2.3536    -1.9335     9.1250 H       
  72 H72           -0.9502     3.6235    -0.5498 H       
  73 H73            5.7196     3.1543    -0.5221 H       
  74 H74            3.5679     2.2788     0.2088 H       
  75 H75            0.0431     7.2832    -3.2377 H       
  76 H76           -0.0478    -0.2958    -1.0788 H       
  77 H77            1.4453     0.0570    -0.1687 H       
  78 H78            2.1802    -2.3807     1.4464 H       
  79 H79           -2.0150     8.4522    -3.9936 H       
  80 H80           -4.2210     7.5736    -3.2628 H       
  81 H81           -4.5957     4.3675    -1.4649 H       
  82 H82           -5.2429     7.2420    -0.6678 H       
  83 H83           -6.1140     5.7908    -0.1168 H       
  84 H84           -4.4162     6.0423     0.3548 H       
  85 H85           -5.3912     5.0880    -3.7003 H       
  86 H86           -6.6834     5.2335    -2.4848 H       
  87 H87           -5.8123     6.6846    -3.0358 H       
  88 H88            0.7053    -4.3122     1.3076 H       
  89 H89            0.7583    -3.7585     2.9985 H       
  90 H90           -1.3530    -2.4607     2.5900 H       
  91 H91           -1.4237    -3.1556     0.9528 H       
  92 H92           -1.4928    -5.4362     1.9237 H       
  93 H93           -1.4221    -4.7413     3.5609 H       
  94 H94           -3.5438    -3.5295     3.1383 H       
  95 H95           -3.6145    -4.2244     1.5011 H       
  96 H96           -3.6836    -6.5050     2.4720 H       
  97 H97           -3.6129    -5.8102     4.1092 H       
  98 H98           -5.8894    -4.6074     3.5624 H       
  99 H99           -5.7636    -7.1930     1.9780 H       
 100 H100          -7.2794    -6.2077     2.4583 H       
 101 H101          -2.6575    -3.5517    -1.9708 H       
 102 H102          -2.1309    -5.0377    -2.7972 H       
 103 H103          -1.5123    -4.6560    -1.1724 H       
 104 H104          -0.2533    -2.3368    -4.5401 H       
 105 H105          -1.3956    -3.6833    -4.7638 H       
 106 H106          -1.9223    -2.1974    -3.9374 H       
 107 H107           0.8305    -4.8516    -2.0183 H       
 108 H108           0.2119    -5.2333    -3.6431 H       
 109 H109           1.3543    -3.8867    -3.4194 H       
 110 H110          -5.6742     1.3770     4.8088 H       
 111 H111          -5.1094     0.7154     3.2559 H       
 112 H112          -5.1266    -0.3136     4.7081 H       
 113 H113           7.2650     4.5457    -0.4941 H       
 114 H114           7.1992     3.5083    -1.9390 H       
 115 H115           8.1425     5.0174    -1.9691 H       
@<TRIPOS>BOND
   1    1    2 1
   2    1    6 1
   3    1    5 1
   4    1   60 1
   5    2    3 1
   6    2   30 1
   7    2   61 1
   8    3    4 1
   9    3   32 am
  10    4    5 1
  11    4    7 1
  12    4   62 1
  13    5   63 1
  14    5   64 1
  15    6   17 1
  16    7    8 2
  17    7    9 am
  18    9   10 1
  19    9   65 1
  20   10   11 1
  21   10   13 1
  22   10   14 1
  23   11   12 2
  24   11   56 1
  25   13   14 1
  26   13   15 1
  27   13   66 1
  28   14   67 1
  29   14   68 1
  30   15   16 2
  31   15   69 1
  32   16   70 1
  33   16   71 1
  34   17   18 ar
  35   17   19 ar
  36   18   22 ar
  37   18   27 ar
  38   19   20 ar
  39   19   72 1
  40   20   21 ar
  41   20   23 1
  42   21   22 ar
  43   22   24 ar
  44   23   29 ar
  45   23   37 ar
  46   24   25 ar
  47   24   28 1
  48   25   26 ar
  49   25   58 1
  50   26   27 ar
  51   26   73 1
  52   27   74 1
  53   29   34 ar
  54   29   75 1
  55   30   48 1
  56   30   76 1
  57   30   77 1
  58   31   32 1
  59   31   41 1
  60   31   48 1
  61   31   78 1
  62   32   33 2
  63   34   35 ar
  64   34   79 1
  65   35   36 ar
  66   35   80 1
  67   36   37 ar
  68   36   38 1
  69   38   39 1
  70   38   40 1
  71   38   81 1
  72   39   82 1
  73   39   83 1
  74   39   84 1
  75   40   85 1
  76   40   86 1
  77   40   87 1
  78   41   42 1
  79   41   88 1
  80   41   89 1
  81   42   43 1
  82   42   90 1
  83   42   91 1
  84   43   44 1
  85   43   92 1
  86   43   93 1
  87   44   45 1
  88   44   94 1
  89   44   95 1
  90   45   46 1
  91   45   96 1
  92   45   97 1
  93   46   47 2
  94   46   98 1
  95   47   99 1
  96   47  100 1
  97   48   54 am
  98   49   50 1
  99   49   54 1
 100   50   51 1
 101   50   52 1
 102   50   53 1
 103   51  101 1
 104   51  102 1
 105   51  103 1
 106   52  104 1
 107   52  105 1
 108   52  106 1
 109   53  107 1
 110   53  108 1
 111   53  109 1
 112   54   55 2
 113   56   57 1
 114   57  110 1
 115   57  111 1
 116   57  112 1
 117   58   59 1
 118   59  113 1
 119   59  114 1
 120   59  115 1

#	End of record

