#	Name: ASD04880437
#	Creating user name:	WinNT
#	Creation time:	15. 06. 2019 20:53

#	Modifying user name:	WinNT
#	Modification time:	15. 06. 2019 20:53

#	Program:	/corina/corina34_cracker 3.40 0067  02.08.2006

@<TRIPOS>MOLECULE
ASD04880437
  47   49    0    0    0
SMALL
NO_CHARGES


@<TRIPOS>ATOM
   1 C1            -0.0144     1.2119     0.0087 C.2     
   2 O2             0.0231    -0.0034     0.0298 O.2     
   3 N3             1.1306     1.9206    -0.0466 N.am    
   4 N4             1.2216     3.3040    -0.1867 N.2     
   5 C5             2.4295     3.7519    -0.2144 C.2     
   6 C6             3.3988     2.5991    -0.0819 C.3     
   7 C7             2.4888     1.3605     0.0375 C.3     
   8 C8             2.7005     0.6611     1.3817 C.3     
   9 C9             2.7452     0.3938    -1.1203 C.3     
  10 C10            2.8080     5.1697    -0.3545 C.ar    
  11 C11            1.8191     6.1507    -0.4699 C.ar    
  12 C12            2.1795     7.4784    -0.6005 C.ar    
  13 C13            3.5262     7.8366    -0.6173 C.ar    
  14 C14            4.5078     6.8634    -0.5033 C.ar    
  15 C15            4.1557     5.5368    -0.3663 C.ar    
  16 O16            3.8786     9.1431    -0.7463 O.3     
  17 C17            5.2764     9.4401    -0.7561 C.3     
  18 O18            1.2199     8.4355    -0.7130 O.3     
  19 C19           -0.1399     7.9968    -0.6886 C.3     
  20 C20           -1.3146     1.9110     0.0376 C.ar    
  21 C21           -1.3610     3.3020     0.1547 C.ar    
  22 C22           -2.5778     3.9498     0.1812 C.ar    
  23 C23           -3.7546     3.2267     0.0921 C.ar    
  24 C24           -3.7204     1.8477    -0.0243 C.ar    
  25 C25           -2.5053     1.1840    -0.0581 C.ar    
  26 F26           -2.4707    -0.1617    -0.1721 F       
  27 F27           -4.8734     1.1489    -0.1104 F       
  28 H28            4.0324     2.5288    -0.9661 H       
  29 H29            4.0057     2.7111     0.8166 H       
  30 H30            1.9948    -0.1641     1.4771 H       
  31 H31            3.7189     0.2762     1.4346 H       
  32 H32            2.5386     1.3730     2.1912 H       
  33 H33            2.6146     0.9179    -2.0670 H       
  34 H34            3.7633     0.0102    -1.0547 H       
  35 H35            2.0401    -0.4356    -1.0640 H       
  36 H36            0.7758     5.8718    -0.4574 H       
  37 H37            5.5502     7.1455    -0.5175 H       
  38 H38            4.9220     4.7815    -0.2729 H       
  39 H39            5.4186    10.5154    -0.8645 H       
  40 H40            5.7252     9.1067     0.1795 H       
  41 H41            5.7514     8.9248    -1.5909 H       
  42 H42           -0.3412     7.4898     0.2550 H       
  43 H43           -0.8012     8.8577    -0.7868 H       
  44 H44           -0.3145     7.3084    -1.5154 H       
  45 H45           -0.4447     3.8694     0.2249 H       
  46 H46           -2.6129     5.0254     0.2722 H       
  47 H47           -4.7042     3.7407     0.1139 H       
@<TRIPOS>BOND
   1    1    2 2
   2    1    3 am
   3    1   20 1
   4    3    4 1
   5    3    7 1
   6    4    5 2
   7    5    6 1
   8    5   10 1
   9    6    7 1
  10    6   28 1
  11    6   29 1
  12    7    8 1
  13    7    9 1
  14    8   30 1
  15    8   31 1
  16    8   32 1
  17    9   33 1
  18    9   34 1
  19    9   35 1
  20   10   11 ar
  21   10   15 ar
  22   11   12 ar
  23   11   36 1
  24   12   13 ar
  25   12   18 1
  26   13   14 ar
  27   13   16 1
  28   14   15 ar
  29   14   37 1
  30   15   38 1
  31   16   17 1
  32   17   39 1
  33   17   40 1
  34   17   41 1
  35   18   19 1
  36   19   42 1
  37   19   43 1
  38   19   44 1
  39   20   21 ar
  40   20   25 ar
  41   21   22 ar
  42   21   45 1
  43   22   23 ar
  44   22   46 1
  45   23   24 ar
  46   23   47 1
  47   24   25 ar
  48   24   27 1
  49   25   26 1

#	End of record

