#	Name: ASD01910403
#	Creating user name:	WinNT
#	Creation time:	15. 06. 2019 19:55

#	Modifying user name:	WinNT
#	Modification time:	15. 06. 2019 19:55

#	Program:	/corina/corina34_cracker 3.40 0067  02.08.2006

@<TRIPOS>MOLECULE
ASD01910403
  55   59    0    0    0
SMALL
NO_CHARGES


@<TRIPOS>ATOM
   1 C1            -0.0309     1.4267    -0.1600 C.ar    
   2 C2            -0.0094    -0.0049    -0.1384 C.1     
   3 C3             0.0083    -1.1787    -0.1206 C.1     
   4 C4             0.0298    -2.6103    -0.0989 C.ar    
   5 C5            -0.5199    -3.3023     0.9863 C.ar    
   6 C6            -0.4992    -4.6675     1.0066 C.ar    
   7 C7             0.0718    -5.3743    -0.0568 C.ar    
   8 C8             0.6214    -4.6831    -1.1416 C.ar    
   9 C9             0.5954    -3.3181    -1.1656 C.ar    
  10 C10            0.0949    -6.8488    -0.0340 C.2     
  11 O11           -0.9419    -7.4710     0.0893 O.2     
  12 C12            0.5172     2.1211    -1.2422 C.ar    
  13 C13            0.4928     3.4999    -1.2560 C.ar    
  14 C14           -0.0721     4.1959    -0.2017 C.ar    
  15 C15           -0.6163     3.5154     0.8734 C.ar    
  16 C16           -0.6053     2.1366     0.8982 C.ar    
  17 N17            1.2657    -7.5063    -0.1500 N.am    
  18 C18            1.4375    -8.8894    -0.0724 C.ar    
  19 C19            2.8005    -9.1362    -0.2461 C.ar    
  20 N20            3.4148    -7.8981    -0.4236 N.am    
  21 C21            2.4688    -6.9419    -0.3663 C.2     
  22 C22            0.5639    -9.9466     0.1283 C.ar    
  23 C23            1.0452   -11.2409     0.1558 C.ar    
  24 C24            2.3976   -11.4867    -0.0164 C.ar    
  25 C25            3.2757   -10.4383    -0.2175 C.ar    
  26 O26            2.6714    -5.7484    -0.4841 O.2     
  27 Cl27           2.9917   -13.1174     0.0200 Cl      
  28 C28            4.8463    -7.6752    -0.6407 C.3     
  29 C29            5.0571    -6.9773    -1.9872 C.3     
  30 C30            6.5482    -6.6924    -2.1808 C.3     
  31 N31            7.0312    -5.8404    -1.0866 N.3     
  32 C32            6.8826    -6.5091     0.2123 C.3     
  33 C33            5.4015    -6.7884     0.4773 C.3     
  34 H34           -0.9602    -2.7566     1.8077 H       
  35 H35           -0.9233    -5.2015     1.8440 H       
  36 H36            1.0624    -5.2293    -1.9623 H       
  37 H37            1.0194    -2.7845    -2.0034 H       
  38 H38            0.9589     1.5792    -2.0653 H       
  39 H39            0.9159     4.0378    -2.0915 H       
  40 H40           -0.0880     5.2757    -0.2178 H       
  41 H41           -1.0547     4.0654     1.6930 H       
  42 H42           -1.0306     1.6068     1.7377 H       
  43 H43           -0.4910    -9.7586     0.2633 H       
  44 H44            0.3645   -12.0647     0.3126 H       
  45 H45            4.3295   -10.6330    -0.3522 H       
  46 H46            5.3681    -8.6322    -0.6409 H       
  47 H47            4.7025    -7.6225    -2.7910 H       
  48 H48            4.5025    -6.0390    -2.0015 H       
  49 H49            7.1005    -7.6322    -2.1802 H       
  50 H50            6.7000    -6.1827    -3.1322 H       
  51 H51            7.9880    -5.5603    -1.2418 H       
  52 H52            7.4334    -7.4497     0.2016 H       
  53 H53            7.2774    -5.8662     0.9990 H       
  54 H54            4.8523    -5.8472     0.5018 H       
  55 H55            5.2930    -7.2987     1.4343 H       
@<TRIPOS>BOND
   1    1    2 1
   2    1   12 ar
   3    1   16 ar
   4    2    3 3
   5    3    4 1
   6    4    5 ar
   7    4    9 ar
   8    5    6 ar
   9    5   34 1
  10    6    7 ar
  11    6   35 1
  12    7    8 ar
  13    7   10 1
  14    8    9 ar
  15    8   36 1
  16    9   37 1
  17   10   11 2
  18   10   17 am
  19   12   13 ar
  20   12   38 1
  21   13   14 ar
  22   13   39 1
  23   14   15 ar
  24   14   40 1
  25   15   16 ar
  26   15   41 1
  27   16   42 1
  28   17   18 1
  29   17   21 am
  30   18   19 ar
  31   18   22 ar
  32   19   20 1
  33   19   25 ar
  34   20   21 am
  35   20   28 1
  36   21   26 2
  37   22   23 ar
  38   22   43 1
  39   23   24 ar
  40   23   44 1
  41   24   25 ar
  42   24   27 1
  43   25   45 1
  44   28   29 1
  45   28   33 1
  46   28   46 1
  47   29   30 1
  48   29   47 1
  49   29   48 1
  50   30   31 1
  51   30   49 1
  52   30   50 1
  53   31   32 1
  54   31   51 1
  55   32   33 1
  56   32   52 1
  57   32   53 1
  58   33   54 1
  59   33   55 1

#	End of record

