#	Name: ASD03240657
#	Creating user name:	WinNT
#	Creation time:	15. 06. 2019 20:35

#	Modifying user name:	WinNT
#	Modification time:	15. 06. 2019 20:35

#	Program:	/corina/corina34_cracker 3.40 0067  02.08.2006

@<TRIPOS>MOLECULE
ASD03240657
  60   66    0    0    0
SMALL
NO_CHARGES


@<TRIPOS>ATOM
   1 C1            -0.0622     1.5970    -0.3747 C.ar    
   2 C2            -0.1078     0.2183    -0.3977 C.ar    
   3 N3             0.9967    -0.4996    -0.3220 N.ar    
   4 C4             2.1931     0.0637    -0.2206 C.ar    
   5 C5             2.3146     1.4518    -0.2062 C.ar    
   6 C6             1.1686     2.2330    -0.2778 C.ar    
   7 N7             3.3176    -0.7492    -0.1084 N.pl3   
   8 C8             4.1079    -0.7138     1.0373 C.ar    
   9 C9             4.7736     0.4601     1.4059 C.ar    
  10 C10            4.6677     1.6711     0.5627 C.2     
  11 N11            3.5682     2.0761    -0.1387 N.pl3   
  12 C12            4.2365    -1.8504     1.8244 C.ar    
  13 C13            5.0096    -1.8154     2.9692 C.ar    
  14 C14            5.6595    -0.6511     3.3412 C.ar    
  15 C15            5.5458     0.4860     2.5670 C.ar    
  16 N16            5.6406     2.5392     0.3708 N.2     
  17 C17            5.2215     3.5156    -0.4486 C.2     
  18 C18            3.9068     3.2457    -0.7898 C.2     
  19 C19            3.0402     4.0486    -1.6740 C.ar    
  20 C20            2.8386     5.4063    -1.4144 C.ar    
  21 C21            2.4225     3.4556    -2.7778 C.ar    
  22 C22            1.6134     4.2111    -3.6010 C.ar    
  23 C23            1.4122     5.5538    -3.3365 C.ar    
  24 C24            2.0260     6.1514    -2.2466 C.ar    
  25 C25            6.0215     4.6754    -0.9057 C.ar    
  26 C26            0.5272     6.3721    -4.2409 C.3     
  27 C27            6.7621     5.4224     0.0129 C.ar    
  28 N28           -0.7876     6.6543    -3.6496 N.3     
  29 C29            1.2213     7.6156    -4.8214 C.3     
  30 C30            0.5022     7.3027    -6.1442 C.3     
  31 C31            0.4551     5.8371    -5.6809 C.3     
  32 C32            7.5063     6.5034    -0.4211 C.ar    
  33 C33            7.5176     6.8445    -1.7613 C.ar    
  34 C34            6.7856     6.1075    -2.6754 C.ar    
  35 C35            6.0431     5.0227    -2.2562 C.ar    
  36 F36            1.8246     7.4633    -1.9947 F       
  37 F37            6.7508     5.0897     1.3223 F       
  38 H38           -0.9725     2.1749    -0.4359 H       
  39 H39           -1.0621    -0.2810    -0.4784 H       
  40 H40            1.2330     3.3109    -0.2585 H       
  41 H41            3.5528    -1.3465    -0.8356 H       
  42 H42            3.7322    -2.7626     1.5415 H       
  43 H43            5.1073    -2.7021     3.5779 H       
  44 H44            6.2573    -0.6323     4.2405 H       
  45 H45            6.0533     1.3933     2.8596 H       
  46 H46            3.3164     5.8721    -0.5651 H       
  47 H47            2.5784     2.4074    -2.9865 H       
  48 H48            1.1360     3.7529    -4.4546 H       
  49 H49           -1.2175     5.8094    -3.3041 H       
  50 H50           -0.7146     7.3474    -2.9200 H       
  51 H51            0.9006     8.5498    -4.3604 H       
  52 H52            2.3057     7.5224    -4.8812 H       
  53 H53           -0.4808     7.7662    -6.2270 H       
  54 H54            1.1221     7.4620    -7.0265 H       
  55 H55            1.3300     5.2576    -5.9757 H       
  56 H56           -0.4842     5.3355    -5.9138 H       
  57 H57            8.0795     7.0828     0.2875 H       
  58 H58            8.1002     7.6901    -2.0959 H       
  59 H59            6.7987     6.3796    -3.7205 H       
  60 H60            5.4727     4.4487    -2.9714 H       
@<TRIPOS>BOND
   1    1    2 ar
   2    1    6 ar
   3    1   38 1
   4    2    3 ar
   5    2   39 1
   6    3    4 ar
   7    4    5 ar
   8    4    7 1
   9    5    6 ar
  10    5   11 1
  11    6   40 1
  12    7    8 1
  13    7   41 1
  14    8    9 ar
  15    8   12 ar
  16    9   10 1
  17    9   15 ar
  18   10   11 1
  19   10   16 2
  20   11   18 1
  21   12   13 ar
  22   12   42 1
  23   13   14 ar
  24   13   43 1
  25   14   15 ar
  26   14   44 1
  27   15   45 1
  28   16   17 1
  29   17   18 2
  30   17   25 1
  31   18   19 1
  32   19   20 ar
  33   19   21 ar
  34   20   24 ar
  35   20   46 1
  36   21   22 ar
  37   21   47 1
  38   22   23 ar
  39   22   48 1
  40   23   24 ar
  41   23   26 1
  42   24   36 1
  43   25   27 ar
  44   25   35 ar
  45   26   29 1
  46   26   28 1
  47   26   31 1
  48   27   32 ar
  49   27   37 1
  50   28   49 1
  51   28   50 1
  52   29   30 1
  53   29   51 1
  54   29   52 1
  55   30   31 1
  56   30   53 1
  57   30   54 1
  58   31   55 1
  59   31   56 1
  60   32   33 ar
  61   32   57 1
  62   33   34 ar
  63   33   58 1
  64   34   35 ar
  65   34   59 1
  66   35   60 1

#	End of record

