#	Name: ASD01810419
#	Creating user name:	WinNT
#	Creation time:	15. 06. 2019 19:24

#	Modifying user name:	WinNT
#	Modification time:	15. 06. 2019 19:24

#	Program:	/corina/corina34_cracker 3.40 0067  02.08.2006

@<TRIPOS>MOLECULE
ASD01810419
  49   52    0    0    0
SMALL
NO_CHARGES


@<TRIPOS>ATOM
   1 C1            -0.0740     1.3178     0.1624 C.ar    
   2 C2            -0.0307    -0.0689     0.1510 C.ar    
   3 C3             2.3672    -0.0132     0.0315 C.ar    
   4 C4             2.3186     1.3907     0.0433 C.ar    
   5 C5             1.0913     2.0502     0.1090 C.ar    
   6 N6             3.5796    -0.6667    -0.0324 N.pl3   
   7 C7             4.7505    -0.0198    -0.0857 C.2     
   8 C8             4.8302     1.3585    -0.0800 C.2     
   9 C9             3.5863     2.1423    -0.0147 C.2     
  10 O10            3.6031     3.3607    -0.0078 O.2     
  11 C11            6.1354     2.0316    -0.1393 C.2     
  12 C12            3.5869    -2.1317    -0.0420 C.3     
  13 C13            3.7169    -2.6426     1.3697 C.ar    
  14 O14            7.1565     1.3742    -0.1938 O.2     
  15 O15            6.2002     3.3781    -0.1331 O.3     
  16 C16            2.5917    -2.7633     2.1652 C.ar    
  17 C17            2.7050    -3.2307     3.4589 C.ar    
  18 C18            3.9557    -3.5813     3.9632 C.ar    
  19 C19            5.0857    -3.4577     3.1575 C.ar    
  20 C20            4.9601    -2.9945     1.8634 C.ar    
  21 C21            4.0837    -4.0840     5.3535 C.ar    
  22 C22            5.3344    -4.4345     5.8579 C.ar    
  23 C23            5.4477    -4.9015     7.1517 C.ar    
  24 C24            4.3226    -5.0223     7.9471 C.ar    
  25 C25            3.0785    -4.6762     7.4514 C.ar    
  26 C26            2.9545    -4.2017     6.1613 C.ar    
  27 C27            1.1754    -0.7353     0.0863 C.ar    
  28 F28            1.2021    -2.0860     0.0764 F       
  29 S29            1.0319     3.8112     0.1231 S.o     
  30 O30           -0.3092     4.0888    -0.2558 O.2     
  31 C31            1.2601     4.2132     1.8772 C.3     
  32 H32           -1.0262     1.8254     0.2089 H       
  33 H33           -0.9510    -0.6325     0.1937 H       
  34 H34            5.6631    -0.5952    -0.1343 H       
  35 H35            2.6562    -2.4968    -0.4763 H       
  36 H36            4.4290    -2.4869    -0.6360 H       
  37 H37            7.0809     3.7754    -0.1734 H       
  38 H38            1.6229    -2.4910     1.7734 H       
  39 H39            1.8259    -3.3243     4.0792 H       
  40 H40            6.0575    -3.7280     3.5435 H       
  41 H41            5.8354    -2.8983     1.2381 H       
  42 H42            6.2135    -4.3413     5.2374 H       
  43 H43            6.4167    -5.1735     7.5436 H       
  44 H44            4.4157    -5.3885     8.9589 H       
  45 H45            2.2032    -4.7727     8.0767 H       
  46 H46            1.9827    -3.9315     5.7753 H       
  47 H47            2.2196     3.8237     2.2173 H       
  48 H48            1.2404     5.2952     2.0075 H       
  49 H49            0.4575     3.7623     2.4607 H       
@<TRIPOS>BOND
   1    1    2 ar
   2    1    5 ar
   3    1   32 1
   4    2   27 ar
   5    2   33 1
   6    3    4 ar
   7    3    6 1
   8    3   27 ar
   9    4    5 ar
  10    4    9 1
  11    5   29 1
  12    6    7 1
  13    6   12 1
  14    7    8 2
  15    7   34 1
  16    8    9 1
  17    8   11 1
  18    9   10 2
  19   11   14 2
  20   11   15 1
  21   12   13 1
  22   12   35 1
  23   12   36 1
  24   13   16 ar
  25   13   20 ar
  26   15   37 1
  27   16   17 ar
  28   16   38 1
  29   17   18 ar
  30   17   39 1
  31   18   19 ar
  32   18   21 1
  33   19   20 ar
  34   19   40 1
  35   20   41 1
  36   21   22 ar
  37   21   26 ar
  38   22   23 ar
  39   22   42 1
  40   23   24 ar
  41   23   43 1
  42   24   25 ar
  43   24   44 1
  44   25   26 ar
  45   25   45 1
  46   26   46 1
  47   27   28 1
  48   29   30 2
  49   29   31 1
  50   31   47 1
  51   31   48 1
  52   31   49 1

#	End of record

