#	Name: ASD01900450
#	Creating user name:	WinNT
#	Creation time:	15. 06. 2019 19:51

#	Modifying user name:	WinNT
#	Modification time:	15. 06. 2019 19:51

#	Program:	/corina/corina34_cracker 3.40 0067  02.08.2006

@<TRIPOS>MOLECULE
ASD01900450
  29   31    0    0    0
SMALL
NO_CHARGES


@<TRIPOS>ATOM
   1 C1            -0.0263     1.3950     0.1275 C.ar    
   2 C2             0.0064     0.0001    -0.0614 C.ar    
   3 C3             1.2234    -0.6704     0.0552 C.ar    
   4 C4             2.3510     0.0691     0.3530 C.ar    
   5 C5             2.2453     1.4430     0.5263 C.ar    
   6 N6             1.0909     2.0596     0.4130 N.ar    
   7 N7            -2.1142     0.7218    -0.3268 N.2     
   8 N8            -1.2751    -0.3971    -0.3380 N.pl3   
   9 C9            -1.4236     1.7963    -0.0517 C.2     
  10 N10           -1.9266     3.0976     0.0450 N.pl3   
  11 C11           -3.3025     3.3225    -0.0404 C.ar    
  12 C12           -4.1953     2.3415     0.3729 C.ar    
  13 C13           -5.5558     2.5676     0.2869 C.ar    
  14 C14           -6.0287     3.7699    -0.2103 C.ar    
  15 C15           -5.1422     4.7476    -0.6221 C.ar    
  16 C16           -3.7811     4.5300    -0.5334 C.ar    
  17 C17           -7.5130     4.0133    -0.3033 C.3     
  18 Cl18          -6.6729     1.3427     0.8023 Cl      
  19 H19            1.2826    -1.7399    -0.0834 H       
  20 H20            3.3098    -0.4183     0.4509 H       
  21 H21            3.1305     2.0163     0.7590 H       
  22 H22           -1.5558    -1.3089    -0.5135 H       
  23 H23           -1.3201     3.8439     0.1713 H       
  24 H24           -3.8264     1.4033     0.7605 H       
  25 H25           -5.5145     5.6843    -1.0098 H       
  26 H26           -3.0895     5.2963    -0.8510 H       
  27 H27           -7.8656     4.4665     0.6232 H       
  28 H28           -7.7197     4.6839    -1.1374 H       
  29 H29           -8.0274     3.0657    -0.4629 H       
@<TRIPOS>BOND
   1    1    2 ar
   2    1    6 ar
   3    1    9 1
   4    2    3 ar
   5    2    8 1
   6    3    4 ar
   7    3   19 1
   8    4    5 ar
   9    4   20 1
  10    5    6 ar
  11    5   21 1
  12    7    8 1
  13    7    9 2
  14    8   22 1
  15    9   10 1
  16   10   11 1
  17   10   23 1
  18   11   12 ar
  19   11   16 ar
  20   12   13 ar
  21   12   24 1
  22   13   14 ar
  23   13   18 1
  24   14   15 ar
  25   14   17 1
  26   15   16 ar
  27   15   25 1
  28   16   26 1
  29   17   27 1
  30   17   28 1
  31   17   29 1

#	End of record

