#	Name: ASD06352012
#	Creating user name:	WinNT
#	Creation time:	15. 06. 2019 21:06

#	Modifying user name:	WinNT
#	Modification time:	15. 06. 2019 21:06

#	Program:	/corina/corina34_cracker 3.40 0067  02.08.2006

@<TRIPOS>MOLECULE
ASD06352012
 122  122    0    0    0
SMALL
NO_CHARGES


@<TRIPOS>ATOM
   1 C1            -1.4446     8.2153     0.7561 C.2     
   2 O2            -1.1016     7.1125     1.1263 O.2     
   3 N3             0.8417     8.9249     1.1732 N.3     
   4 C4            -0.4084     9.2756     0.4861 C.3     
   5 C5            -0.1540     9.3683    -1.0198 C.3     
   6 C6             0.8981    10.4448    -1.2940 C.3     
   7 C7             0.3504     8.0191    -1.5358 C.3     
   8 C8            -4.9974     7.7524     0.0306 C.2     
   9 O9            -5.1716     8.8605    -0.4306 O.2     
  10 N10           -2.7522     8.4909     0.5810 N.am    
  11 C11           -3.7592     7.4583     0.8377 C.3     
  12 C12           -4.1114     7.4484     2.3266 C.3     
  13 C13           -2.8626     7.1113     3.1438 C.3     
  14 C14           -4.6324     8.8273     2.7366 C.3     
  15 C15           -8.2245     6.1064    -0.4591 C.2     
  16 O16           -7.9582     5.2258     0.3312 O.2     
  17 N17           -5.9112     6.7841    -0.1787 N.am    
  18 C18           -7.1652     7.0970    -0.8685 C.3     
  19 C19           -6.9490     7.0165    -2.3810 C.3     
  20 C20          -11.7875     5.5580    -1.2826 C.2     
  21 O21          -11.8413     6.4992    -2.0457 O.2     
  22 N22           -9.4678     6.1991    -0.9711 N.am    
  23 C23          -10.4976     5.2362    -0.5730 C.3     
  24 C24          -15.3047     4.8537    -0.9544 C.2     
  25 O25          -15.1835     4.3130     0.1244 O.2     
  26 N26          -12.8813     4.8001    -1.0693 N.am    
  27 C27          -14.1019     5.0413    -1.8427 C.3     
  28 C28          -14.1702     4.0534    -3.0090 C.3     
  29 C29          -14.0212     2.6263    -2.4780 C.3     
  30 C30          -15.2879     2.2306    -1.7166 C.3     
  31 C31          -13.0397     4.3509    -3.9962 C.3     
  32 C32          -18.0699     3.8539    -0.1468 C.2     
  33 O33          -17.6657     2.9237    -0.8118 O.2     
  34 N34          -16.5152     5.2869    -1.3588 N.am    
  35 C35          -17.7450     5.2682    -0.5534 C.3     
  36 C36          -18.8784     5.8345    -1.4344 C.3     
  37 C37          -18.3428     5.6142    -2.8738 C.3     
  38 C38          -16.8240     5.8639    -2.6799 C.3     
  39 C39          -20.3900     2.2388     2.1709 C.2     
  40 O40          -20.8029     3.2688     2.6601 O.2     
  41 N41          -18.8097     3.6227     0.9558 N.am    
  42 C42          -19.1256     2.2479     1.3510 C.3     
  43 C43          -17.9743     1.6791     2.1828 C.3     
  44 C44          -16.6712     1.7818     1.3876 C.3     
  45 O45          -17.8512     2.4225     3.3970 O.3     
  46 C46          -22.1072     1.0305     4.5498 C.2     
  47 O47          -20.9783     0.9829     4.9780 O.2     
  48 N48          -21.0620     1.0859     2.3604 N.am    
  49 C49          -22.3472     1.0943     3.0634 C.3     
  50 C50          -23.1746    -0.1168     2.6280 C.3     
  51 C51          -23.5242     0.0113     1.1440 C.3     
  52 C52          -24.3516    -1.1998     0.7086 C.3     
  53 N53          -24.6863    -1.0772    -0.7124 N.pl3   
  54 C54          -25.4301    -2.0545    -1.3303 C.2     
  55 N55          -25.7279    -1.9454    -2.5945 N.2     
  56 N56          -25.8598    -3.1469    -0.6146 N.pl3   
  57 O57          -23.1474     1.0265     5.3981 O.3     
  58 H58            1.1954     8.0370     0.8496 H       
  59 H59            1.5324     9.6518     1.0608 H       
  60 H60           -0.7677    10.2368     0.8537 H       
  61 H61           -1.0815     9.6286    -1.5297 H       
  62 H62            1.8257    10.1845    -0.7841 H       
  63 H63            1.0794    10.5108    -2.3668 H       
  64 H64            0.5388    11.4060    -0.9264 H       
  65 H65           -0.3991     7.2522    -1.3404 H       
  66 H66            0.5316     8.0851    -2.6086 H       
  67 H67            1.2780     7.7588    -1.0259 H       
  68 H68           -3.0266     9.3729     0.2849 H       
  69 H69           -3.3620     6.4844     0.5518 H       
  70 H70           -4.8808     6.6991     2.5130 H       
  71 H71           -2.1491     7.9321     3.0723 H       
  72 H72           -3.1407     6.9613     4.1870 H       
  73 H73           -2.4085     6.2002     2.7542 H       
  74 H74           -5.5220     9.0674     2.1545 H       
  75 H75           -4.8832     8.8202     3.7974 H       
  76 H76           -3.8630     9.5765     2.5503 H       
  77 H77           -5.7386     5.8800     0.1274 H       
  78 H78           -7.4860     8.1036    -0.6004 H       
  79 H79           -6.1828     7.7330    -2.6772 H       
  80 H80           -6.6282     6.0099    -2.6492 H       
  81 H81           -7.8820     7.2494    -2.8943 H       
  82 H82           -9.6807     6.9035    -1.6031 H       
  83 H83          -10.6516     5.2935     0.5045 H       
  84 H84          -10.1768     4.2295    -0.8411 H       
  85 H85          -12.8603     4.0948    -0.4036 H       
  86 H86          -14.0914     6.0602    -2.2297 H       
  87 H87          -15.1303     4.1545    -3.5150 H       
  88 H88          -13.8704     1.9419    -3.3128 H       
  89 H89          -13.1635     2.5758    -1.8074 H       
  90 H90          -16.1609     2.6356    -2.2284 H       
  91 H91          -15.3626     1.1440    -1.6753 H       
  92 H92          -15.2427     2.6305    -0.7036 H       
  93 H93          -12.0803     4.2679    -3.4856 H       
  94 H94          -13.0772     3.6355    -4.8178 H       
  95 H95          -13.1564     5.3611    -4.3885 H       
  96 H96          -17.6167     5.8885     0.3336 H       
  97 H97          -19.8030     5.2789    -1.2777 H       
  98 H98          -19.0269     6.8961    -1.2365 H       
  99 H99          -18.5347     4.5954    -3.2105 H       
 100 H100         -18.7710     6.3397    -3.5654 H       
 101 H101         -16.6090     6.9324    -2.6868 H       
 102 H102         -16.2541     5.3563    -3.4581 H       
 103 H103         -19.1330     4.3667     1.4877 H       
 104 H104         -19.2662     1.6367     0.4595 H       
 105 H105         -18.1763     0.6336     2.4158 H       
 106 H106         -16.4205     2.8316     1.2350 H       
 107 H107         -15.8688     1.2933     1.9404 H       
 108 H108         -16.7960     1.2938     0.4210 H       
 109 H109         -18.6423     2.4017     3.9528 H       
 110 H110         -20.6946     0.2507     2.0313 H       
 111 H111         -22.8877     2.0095     2.8216 H       
 112 H112         -22.5976    -1.0276     2.7881 H       
 113 H113         -24.0921    -0.1600     3.2150 H       
 114 H114         -24.1012     0.9221     0.9839 H       
 115 H115         -22.6067     0.0546     0.5570 H       
 116 H116         -23.7745    -2.1106     0.8686 H       
 117 H117         -25.2690    -1.2431     1.2955 H       
 118 H118         -24.3831    -0.3064    -1.2173 H       
 119 H119         -26.2526    -2.6349    -3.0304 H       
 120 H120         -25.6381    -3.2281     0.3262 H       
 121 H121         -26.3845    -3.8364    -1.0505 H       
 122 H122         -22.9437     0.9846     6.3425 H       
@<TRIPOS>BOND
   1    1    2 2
   2    1    4 1
   3    1   10 am
   4    3    4 1
   5    3   58 1
   6    3   59 1
   7    4    5 1
   8    4   60 1
   9    5    6 1
  10    5    7 1
  11    5   61 1
  12    6   62 1
  13    6   63 1
  14    6   64 1
  15    7   65 1
  16    7   66 1
  17    7   67 1
  18    8    9 2
  19    8   11 1
  20    8   17 am
  21   10   11 1
  22   10   68 1
  23   11   12 1
  24   11   69 1
  25   12   13 1
  26   12   14 1
  27   12   70 1
  28   13   71 1
  29   13   72 1
  30   13   73 1
  31   14   74 1
  32   14   75 1
  33   14   76 1
  34   15   16 2
  35   15   18 1
  36   15   22 am
  37   17   18 1
  38   17   77 1
  39   18   19 1
  40   18   78 1
  41   19   79 1
  42   19   80 1
  43   19   81 1
  44   20   21 2
  45   20   23 1
  46   20   26 am
  47   22   23 1
  48   22   82 1
  49   23   83 1
  50   23   84 1
  51   24   25 2
  52   24   27 1
  53   24   34 am
  54   26   27 1
  55   26   85 1
  56   27   28 1
  57   27   86 1
  58   28   29 1
  59   28   31 1
  60   28   87 1
  61   29   30 1
  62   29   88 1
  63   29   89 1
  64   30   90 1
  65   30   91 1
  66   30   92 1
  67   31   93 1
  68   31   94 1
  69   31   95 1
  70   32   33 2
  71   32   41 am
  72   32   35 1
  73   34   35 1
  74   34   38 1
  75   35   36 1
  76   35   96 1
  77   36   37 1
  78   36   97 1
  79   36   98 1
  80   37   38 1
  81   37   99 1
  82   37  100 1
  83   38  101 1
  84   38  102 1
  85   39   40 2
  86   39   42 1
  87   39   48 am
  88   41   42 1
  89   41  103 1
  90   42   43 1
  91   42  104 1
  92   43   44 1
  93   43   45 1
  94   43  105 1
  95   44  106 1
  96   44  107 1
  97   44  108 1
  98   45  109 1
  99   46   47 2
 100   46   49 1
 101   46   57 1
 102   48   49 1
 103   48  110 1
 104   49   50 1
 105   49  111 1
 106   50   51 1
 107   50  112 1
 108   50  113 1
 109   51   52 1
 110   51  114 1
 111   51  115 1
 112   52   53 1
 113   52  116 1
 114   52  117 1
 115   53   54 1
 116   53  118 1
 117   54   55 2
 118   54   56 1
 119   55  119 1
 120   56  120 1
 121   56  121 1
 122   57  122 1

#	End of record

