#	Name: ASD04560182
#	Creating user name:	WinNT
#	Creation time:	15. 06. 2019 20:49

#	Modifying user name:	WinNT
#	Modification time:	15. 06. 2019 20:49

#	Program:	/corina/corina34_cracker 3.40 0067  02.08.2006

@<TRIPOS>MOLECULE
ASD04560182
  49   51    0    0    0
SMALL
NO_CHARGES


@<TRIPOS>ATOM
   1 C1             0.3777     1.6331     1.1381 C.ar    
   2 C2             0.2223     0.2821     1.2879 C.ar    
   3 C3             1.2401    -0.5744     0.8684 C.ar    
   4 N4             2.3536    -0.0965     0.3280 N.ar    
   5 C5             2.5429     1.1962     0.1660 C.ar    
   6 C6             1.5660     2.1110     0.5628 C.ar    
   7 C7             1.7792     3.5589     0.3808 C.2     
   8 O8             0.8284     4.3171     0.3721 O.2     
   9 N9             3.0277     4.0417     0.2241 N.am    
  10 C10            3.2229     5.3984    -0.0592 C.ar    
  11 C11            2.1339     6.2150    -0.3343 C.ar    
  12 C12            4.6957     7.2701    -0.3394 C.ar    
  13 C13            4.5054     5.9310    -0.0600 C.ar    
  14 S14            1.0445    -2.3150     1.0592 S.3     
  15 C15            2.3287     7.5535    -0.6131 C.ar    
  16 C16            3.6088     8.0815    -0.6186 C.ar    
  17 F17            3.7972     9.3911    -0.8916 F       
  18 C18            4.1805     3.1465     0.3503 C.3     
  19 C19            4.7018     2.8025    -1.0211 C.2     
  20 O20            4.1655     3.2582    -2.0032 O.2     
  21 O21            5.7621     1.9897    -1.1516 O.3     
  22 C22            2.6168    -2.8857     0.3676 C.3     
  23 C23            2.6754    -4.3903     0.4276 C.ar    
  24 C24            2.3383    -5.1474    -0.6929 C.ar    
  25 C25            2.3953    -6.5389    -0.6305 C.ar    
  26 C26            2.7845    -7.1590     0.5388 C.ar    
  27 C27            3.1177    -6.4023     1.6486 C.ar    
  28 C28            3.0684    -5.0209     1.5905 C.ar    
  29 B29            1.8956    -4.4358    -2.0205 Du      
  30 O30            2.2774    -4.9760    -3.2770 O.3     
  31 O31            1.1135    -3.2519    -1.9647 O.3     
  32 H32           -0.3980     2.3162     1.4512 H       
  33 H33           -0.6798    -0.1174     1.7272 H       
  34 H34            3.4613     1.5517    -0.2775 H       
  35 H35            1.1353     5.8035    -0.3305 H       
  36 H36            5.6930     7.6847    -0.3401 H       
  37 H37            5.3533     5.2986     0.1580 H       
  38 H38            1.4820     8.1889    -0.8274 H       
  39 H39            4.9643     3.6420     0.9232 H       
  40 H40            3.8773     2.2338     0.8633 H       
  41 H41            6.0601     1.7979    -2.0514 H       
  42 H42            2.6970    -2.5600    -0.6695 H       
  43 H43            3.4411    -2.4666     0.9448 H       
  44 H44            2.1348    -7.1304    -1.4957 H       
  45 H45            2.8289    -8.2370     0.5883 H       
  46 H46            3.4215    -6.8919     2.5620 H       
  47 H47            3.3298    -4.4352     2.4594 H       
  48 H48            2.7422    -5.8218    -3.2166 H       
  49 H49            0.9543    -2.9276    -1.0677 H       
@<TRIPOS>BOND
   1    1    2 ar
   2    1    6 ar
   3    1   32 1
   4    2    3 ar
   5    2   33 1
   6    3    4 ar
   7    3   14 1
   8    4    5 ar
   9    5    6 ar
  10    5   34 1
  11    6    7 1
  12    7    8 2
  13    7    9 am
  14    9   10 1
  15    9   18 1
  16   10   11 ar
  17   10   13 ar
  18   11   15 ar
  19   11   35 1
  20   12   13 ar
  21   12   16 ar
  22   12   36 1
  23   13   37 1
  24   14   22 1
  25   15   16 ar
  26   15   38 1
  27   16   17 1
  28   18   19 1
  29   18   39 1
  30   18   40 1
  31   19   20 2
  32   19   21 1
  33   21   41 1
  34   22   23 1
  35   22   42 1
  36   22   43 1
  37   23   24 ar
  38   23   28 ar
  39   24   25 ar
  40   24   29 1
  41   25   26 ar
  42   25   44 1
  43   26   27 ar
  44   26   45 1
  45   27   28 ar
  46   27   46 1
  47   28   47 1
  48   29   30 1
  49   29   31 1
  50   30   48 1
  51   31   49 1

#	End of record

