#	Name: ASD01880429
#	Creating user name:	WinNT
#	Creation time:	15. 06. 2019 19:40

#	Modifying user name:	WinNT
#	Modification time:	15. 06. 2019 19:40

#	Program:	/corina/corina34_cracker 3.40 0067  02.08.2006

@<TRIPOS>MOLECULE
ASD01880429
  37   40    0    0    0
SMALL
NO_CHARGES


@<TRIPOS>ATOM
   1 C1            -0.0167     1.3817     0.0096 C.ar    
   2 C2             0.0021    -0.0041     0.0020 C.ar    
   3 C3             1.1999    -0.6908    -0.0131 C.ar    
   4 C4             2.3970     0.0098    -0.0207 C.ar    
   5 C5             2.3793     1.4138    -0.0130 C.ar    
   6 C6             1.1636     2.0951     0.0022 C.ar    
   7 N7             3.6177    -0.6568    -0.0353 N.pl3   
   8 C8             4.7878     0.0399    -0.0424 C.2     
   9 N9             4.8085     1.4273    -0.0353 N.am    
  10 C10            3.6625     2.1388    -0.0210 C.2     
  11 N11            3.9273    -2.0244    -0.0454 N.2     
  12 C12            5.2376    -2.1526    -0.0580 C.2     
  13 C13            5.8055    -0.8673    -0.0565 C.2     
  14 C14            6.0940     2.1298    -0.0435 C.3     
  15 O15            3.6878     3.3551    -0.0147 O.2     
  16 C16           -1.2967    -0.7684     0.0108 C.3     
  17 C17            5.9859    -3.4341    -0.0721 C.ar    
  18 C18            5.2978    -4.6450    -0.0731 C.ar    
  19 C19            6.0003    -5.8358    -0.0861 C.ar    
  20 C20            7.3855    -5.8244    -0.0981 C.ar    
  21 C21            8.0717    -4.6236    -0.0967 C.ar    
  22 C22            7.3794    -3.4297    -0.0900 C.ar    
  23 F23            5.3352    -7.0118    -0.0867 F       
  24 H24           -0.9609     1.9059     0.0169 H       
  25 H25            1.2046    -1.7708    -0.0185 H       
  26 H26            1.1460     3.1750     0.0078 H       
  27 H27            6.8610    -0.6387    -0.0653 H       
  28 H28            6.4033     2.3095    -1.0731 H       
  29 H29            5.9908     3.0823     0.4763 H       
  30 H30            6.8443     1.5204     0.4602 H       
  31 H31           -1.6200    -0.9472    -1.0147 H       
  32 H32           -1.1534    -1.7224     0.5181 H       
  33 H33           -2.0561    -0.1884     0.5352 H       
  34 H34            4.2179    -4.6539    -0.0634 H       
  35 H35            7.9313    -6.7562    -0.1083 H       
  36 H36            9.1516    -4.6202    -0.1057 H       
  37 H37            7.9171    -2.4930    -0.0892 H       
@<TRIPOS>BOND
   1    1    2 ar
   2    1    6 ar
   3    1   24 1
   4    2    3 ar
   5    2   16 1
   6    3    4 ar
   7    3   25 1
   8    4    5 ar
   9    4    7 1
  10    5    6 ar
  11    5   10 1
  12    6   26 1
  13    7    8 1
  14    7   11 1
  15    8    9 1
  16    8   13 2
  17    9   10 am
  18    9   14 1
  19   10   15 2
  20   11   12 2
  21   12   13 1
  22   12   17 1
  23   13   27 1
  24   14   28 1
  25   14   29 1
  26   14   30 1
  27   16   31 1
  28   16   32 1
  29   16   33 1
  30   17   18 ar
  31   17   22 ar
  32   18   19 ar
  33   18   34 1
  34   19   20 ar
  35   19   23 1
  36   20   21 ar
  37   20   35 1
  38   21   22 ar
  39   21   36 1
  40   22   37 1

#	End of record

