#	Name: ASD01900149
#	Creating user name:	WinNT
#	Creation time:	15. 06. 2019 19:51

#	Modifying user name:	WinNT
#	Modification time:	15. 06. 2019 19:51

#	Program:	/corina/corina34_cracker 3.40 0067  02.08.2006

@<TRIPOS>MOLECULE
ASD01900149
  50   52    0    0    0
SMALL
NO_CHARGES


@<TRIPOS>ATOM
   1 C1            -0.0837     1.2230     0.5375 C.2     
   2 N2             0.0056     0.0102    -0.0435 N.am    
   3 O3             0.8920     1.7181     1.0611 O.2     
   4 C4             1.2475    -0.6302    -0.1400 C.ar    
   5 C5             1.3257    -2.0120    -0.0309 C.ar    
   6 C6             2.5538    -2.6446    -0.1265 C.ar    
   7 C7             3.7084    -1.8924    -0.3320 C.ar    
   8 C8             3.6257    -0.5117    -0.4405 C.ar    
   9 C9             2.3991     0.1169    -0.3506 C.ar    
  10 N10            4.9531    -2.5303    -0.4287 N.am    
  11 C11            6.0809    -1.8562    -0.1285 C.2     
  12 O12            2.6328    -3.9978    -0.0194 O.3     
  13 C13            1.4087    -4.7044     0.1911 C.3     
  14 C14            7.3989    -2.4869    -0.3473 C.ar    
  15 O15            6.0137    -0.7291     0.3224 O.2     
  16 C16            8.5701    -1.7912    -0.0373 C.ar    
  17 C17            9.7987    -2.3877    -0.2448 C.ar    
  18 C18            9.8701    -3.6695    -0.7582 C.ar    
  19 C19            8.7132    -4.3639    -1.0673 C.ar    
  20 C20            7.4798    -3.7834    -0.8596 C.ar    
  21 Cl21           8.4816    -0.1813     0.6064 Cl      
  22 C22           -3.1632     2.9709    -0.9197 C.3     
  23 C23           -2.9929     4.3105    -0.2003 C.3     
  24 C24           -2.5547     4.0615     1.2443 C.3     
  25 C25           -1.2241     3.3063     1.2507 C.3     
  26 C26           -1.3944     1.9668     0.5313 C.3     
  27 C27           -1.8326     2.2158    -0.9133 C.3     
  28 H28           -0.7901    -0.4191    -0.3947 H       
  29 H29            0.4295    -2.5931     0.1288 H       
  30 H30            4.5206     0.0715    -0.5998 H       
  31 H31            2.3366     1.1918    -0.4352 H       
  32 H32            5.0026    -3.4568    -0.7116 H       
  33 H33            1.6130    -5.7730     0.2583 H       
  34 H34            0.9473    -4.3638     1.1181 H       
  35 H35            0.7321    -4.5156    -0.6423 H       
  36 H36           10.7053    -1.8516    -0.0058 H       
  37 H37           10.8332    -4.1311    -0.9192 H       
  38 H38            8.7767    -5.3648    -1.4681 H       
  39 H39            6.5783    -4.3268    -1.1015 H       
  40 H40           -3.9204     2.3772    -0.4076 H       
  41 H41           -3.4754     3.1483    -1.9489 H       
  42 H42           -2.2357     4.9042    -0.7124 H       
  43 H43           -3.9409     4.8484    -0.2048 H       
  44 H44           -2.4334     5.0158     1.7568 H       
  45 H45           -3.3119     3.4677     1.7564 H       
  46 H46           -0.4669     3.9001     0.7385 H       
  47 H47           -0.9119     3.1290     2.2798 H       
  48 H48           -2.1515     1.3731     1.0434 H       
  49 H49           -1.9539     1.2615    -1.4258 H       
  50 H50           -1.0754     2.8096    -1.4255 H       
@<TRIPOS>BOND
   1    1    2 am
   2    1    3 2
   3    1   26 1
   4    2    4 1
   5    2   28 1
   6    4    5 ar
   7    4    9 ar
   8    5    6 ar
   9    5   29 1
  10    6    7 ar
  11    6   12 1
  12    7    8 ar
  13    7   10 1
  14    8    9 ar
  15    8   30 1
  16    9   31 1
  17   10   11 am
  18   10   32 1
  19   11   14 1
  20   11   15 2
  21   12   13 1
  22   13   33 1
  23   13   34 1
  24   13   35 1
  25   14   16 ar
  26   14   20 ar
  27   16   17 ar
  28   16   21 1
  29   17   18 ar
  30   17   36 1
  31   18   19 ar
  32   18   37 1
  33   19   20 ar
  34   19   38 1
  35   20   39 1
  36   22   23 1
  37   22   27 1
  38   22   40 1
  39   22   41 1
  40   23   24 1
  41   23   42 1
  42   23   43 1
  43   24   25 1
  44   24   44 1
  45   24   45 1
  46   25   26 1
  47   25   46 1
  48   25   47 1
  49   26   27 1
  50   26   48 1
  51   27   49 1
  52   27   50 1

#	End of record

