#	Name: ASD01140123
#	Creating user name:	WinNT
#	Creation time:	15. 06. 2019 19:00

#	Modifying user name:	WinNT
#	Modification time:	15. 06. 2019 19:00

#	Program:	/corina/corina34_cracker 3.40 0067  02.08.2006

@<TRIPOS>MOLECULE
ASD01140123
  14   14    0    0    0
SMALL
NO_CHARGES


@<TRIPOS>ATOM
   1 C1            -0.0162     1.3402     0.0094 C.2     
   2 C2             0.0021    -0.0041     0.0020 C.2     
   3 N3             1.3244    -0.3836    -0.0126 N.am    
   4 C4             2.0656     0.7617    -0.0136 C.2     
   5 N5             1.2526     1.7800    -0.0003 N.2     
   6 C6             1.7971    -1.6457    -0.0235 C.2     
   7 O7             1.0292    -2.5785    -0.0208 O.2     
   8 C8             3.2835    -1.8935    -0.0391 C.3     
   9 H9            -0.9003     1.9604     0.0171 H       
  10 H10           -0.8561    -0.6598     0.0067 H       
  11 H11            3.1442     0.8153    -0.0233 H       
  12 H12            3.6518    -1.9584     0.9847 H       
  13 H13            3.4906    -2.8285    -0.5597 H       
  14 H14            3.7833    -1.0728    -0.5537 H       
@<TRIPOS>BOND
   1    1    2 2
   2    1    5 1
   3    1    9 1
   4    2    3 1
   5    2   10 1
   6    3    4 1
   7    3    6 am
   8    4    5 2
   9    4   11 1
  10    6    7 2
  11    6    8 1
  12    8   12 1
  13    8   13 1
  14    8   14 1

#	End of record

