#	Name: ASD08710103
#	Creating user name:	WinNT
#	Creation time:	15. 06. 2019 21:19

#	Modifying user name:	WinNT
#	Modification time:	15. 06. 2019 21:19

#	Program:	/corina/corina34_cracker 3.40 0067  02.08.2006

@<TRIPOS>MOLECULE
ASD08710103
  46   48    0    0    0
SMALL
NO_CHARGES


@<TRIPOS>ATOM
   1 N1             0.1166     1.3489     0.8244 N.am    
   2 C2             0.0584    -0.0247     0.3052 C.3     
   3 C3             0.6538    -0.0400    -1.1082 C.3     
   4 N4             1.9501     0.6519    -1.0791 N.am    
   5 C5             2.0082     2.0255    -0.5599 C.3     
   6 C6             1.4128     2.0408     0.8534 C.3     
   7 C7             3.0656     0.0376    -1.5204 C.2     
   8 O8             3.0244    -1.1303    -1.8548 O.2     
   9 C9             5.5551     0.1388    -1.3678 C.ar    
  10 C10            4.3393     0.7842    -1.5977 C.ar    
  11 C11            4.3461     2.1503    -1.9031 C.ar    
  12 C12            5.5652     2.8027    -1.9637 C.ar    
  13 C13            6.7265     2.0912    -1.7228 C.ar    
  14 N14            6.6896     0.8035    -1.4370 N.ar    
  15 C15            8.0558     2.7981    -1.7878 C.3     
  16 C16           -1.3972    -0.4932     0.2542 C.3     
  17 S17           -1.2551     2.1060     1.3608 S.o2    
  18 O18           -0.9623     3.4962     1.3863 O.2     
  19 O19           -2.3345     1.5525     0.6206 O.2     
  20 C20           -1.4989     1.6181     3.0363 C.ar    
  21 C21           -0.9371     2.3579     4.0601 C.ar    
  22 C22           -1.1280     1.9757     5.3745 C.ar    
  23 C23           -1.8814     0.8524     5.6656 C.ar    
  24 C24           -2.4434     0.1124     4.6405 C.ar    
  25 C25           -2.2565     0.4989     3.3267 C.ar    
  26 Cl26          -2.1212     0.3714     7.3163 Cl      
  27 H27            0.6354    -0.6852     0.9524 H       
  28 H28            0.7963    -1.0704    -1.4339 H       
  29 H29           -0.0196     0.4734    -1.7944 H       
  30 H30            3.0453     2.3593    -0.5236 H       
  31 H31            1.4312     2.6860    -1.2071 H       
  32 H32            1.2703     3.0712     1.1792 H       
  33 H33            2.0863     1.5274     1.5397 H       
  34 H34            5.5653    -0.9139    -1.1267 H       
  35 H35            3.4239     2.6813    -2.0872 H       
  36 H36            5.6092     3.8563    -2.1969 H       
  37 H37            8.3061     3.1926    -0.8030 H       
  38 H38            8.8262     2.0949    -2.1040 H       
  39 H39            7.9966     3.6182    -2.5034 H       
  40 H40           -1.9331     0.0683    -0.5111 H       
  41 H41           -1.4287    -1.5559     0.0140 H       
  42 H42           -1.8670    -0.3257     1.2234 H       
  43 H43           -0.3487     3.2345     3.8327 H       
  44 H44           -0.6888     2.5536     6.1742 H       
  45 H45           -3.0317    -0.7645     4.8671 H       
  46 H46           -2.6988    -0.0762     2.5267 H       
@<TRIPOS>BOND
   1    1    2 1
   2    1    6 1
   3    1   17 am
   4    2    3 1
   5    2   16 1
   6    2   27 1
   7    3    4 1
   8    3   28 1
   9    3   29 1
  10    4    5 1
  11    4    7 am
  12    5    6 1
  13    5   30 1
  14    5   31 1
  15    6   32 1
  16    6   33 1
  17    7    8 2
  18    7   10 1
  19    9   10 ar
  20    9   14 ar
  21    9   34 1
  22   10   11 ar
  23   11   12 ar
  24   11   35 1
  25   12   13 ar
  26   12   36 1
  27   13   14 ar
  28   13   15 1
  29   15   37 1
  30   15   38 1
  31   15   39 1
  32   16   40 1
  33   16   41 1
  34   16   42 1
  35   17   18 2
  36   17   19 2
  37   17   20 1
  38   20   21 ar
  39   20   25 ar
  40   21   22 ar
  41   21   43 1
  42   22   23 ar
  43   22   44 1
  44   23   24 ar
  45   23   26 1
  46   24   25 ar
  47   24   45 1
  48   25   46 1

#	End of record

