#	Name: ASD03330117
#	Creating user name:	WinNT
#	Creation time:	15. 06. 2019 20:36

#	Modifying user name:	WinNT
#	Modification time:	15. 06. 2019 20:36

#	Program:	/corina/corina34_cracker 3.40 0067  02.08.2006

@<TRIPOS>MOLECULE
ASD03330117
  32   33    0    0    0
SMALL
NO_CHARGES


@<TRIPOS>ATOM
   1 C1             0.0433     1.3347     0.5518 C.2     
   2 C2             0.0188    -0.0247     0.1530 C.2     
   3 C3            -1.1759    -0.7095     0.1135 C.2     
   4 O4             1.0796     1.9649     0.4968 O.2     
   5 C5             1.2783    -0.7099    -0.2215 C.ar    
   6 C6             1.9909    -0.2964    -1.3469 C.ar    
   7 C7             3.1628    -0.9359    -1.6922 C.ar    
   8 C8             3.6333    -1.9904    -0.9214 C.ar    
   9 C9             2.9264    -2.4046     0.1994 C.ar    
  10 C10            1.7568    -1.7658     0.5538 C.ar    
  11 O11            4.7881    -2.6190    -1.2651 O.3     
  12 C12            5.2144    -3.6960    -0.4282 C.3     
  13 C13           -2.4378     0.0018     0.3503 C.ar    
  14 C14           -3.2928    -0.4049     1.3840 C.ar    
  15 C15           -4.4767     0.2694     1.5993 C.ar    
  16 C16           -4.8207     1.3453     0.7973 C.ar    
  17 C17           -3.9803     1.7531    -0.2266 C.ar    
  18 C18           -2.7914     1.0941    -0.4515 C.ar    
  19 Cl19          -6.3132     2.1872     1.0758 Cl      
  20 Cl20          -2.8634    -1.7533     2.3895 Cl      
  21 Cl21          -1.1890    -2.4138    -0.2165 Cl      
  22 H22           -0.8609     1.8115     0.9005 H       
  23 H23            1.6251     0.5234    -1.9473 H       
  24 H24            3.7151    -0.6163    -2.5635 H       
  25 H25            3.2952    -3.2252     0.7969 H       
  26 H26            1.2097    -2.0856     1.4284 H       
  27 H27            5.3718    -3.3279     0.5856 H       
  28 H28            4.4499    -4.4728    -0.4181 H       
  29 H29            6.1467    -4.1086    -0.8138 H       
  30 H30           -5.1373    -0.0424     2.3949 H       
  31 H31           -4.2560     2.5928    -0.8472 H       
  32 H32           -2.1357     1.4166    -1.2468 H       
@<TRIPOS>BOND
   1    1    2 1
   2    1    4 2
   3    1   22 1
   4    2    3 2
   5    2    5 1
   6    3   13 1
   7    3   21 1
   8    5    6 ar
   9    5   10 ar
  10    6    7 ar
  11    6   23 1
  12    7    8 ar
  13    7   24 1
  14    8    9 ar
  15    8   11 1
  16    9   10 ar
  17    9   25 1
  18   10   26 1
  19   11   12 1
  20   12   27 1
  21   12   28 1
  22   12   29 1
  23   13   14 ar
  24   13   18 ar
  25   14   15 ar
  26   14   20 1
  27   15   16 ar
  28   15   30 1
  29   16   17 ar
  30   16   19 1
  31   17   18 ar
  32   17   31 1
  33   18   32 1

#	End of record

