#	Name: ASD01816287
#	Creating user name:	WinNT
#	Creation time:	15. 06. 2019 19:34

#	Modifying user name:	WinNT
#	Modification time:	15. 06. 2019 19:34

#	Program:	/corina/corina34_cracker 3.40 0067  02.08.2006

@<TRIPOS>MOLECULE
ASD01816287
  53   58    0    0    0
SMALL
NO_CHARGES


@<TRIPOS>ATOM
   1 C1            -0.0168     1.3912     0.0097 C.ar    
   2 C2             0.0021    -0.0041     0.0020 C.ar    
   3 C3             1.1808    -0.6914    -0.0130 C.ar    
   4 C4             2.3919     0.0027    -0.0208 C.ar    
   5 C5             2.3735     1.4245    -0.0131 C.ar    
   6 C6             1.1449     2.1026     0.0024 C.ar    
   7 N7             3.5812    -0.6676    -0.0354 N.pl3   
   8 C8             4.7491    -0.0144    -0.0422 C.2     
   9 C9             4.7960     1.3661    -0.0348 C.2     
  10 C10            3.6017     2.1220    -0.0211 C.2     
  11 C11            5.8698     2.3855    -0.0391 C.2     
  12 N12            5.2360     3.5783    -0.0272 N.am    
  13 N13            3.9616     3.4274    -0.0173 N.2     
  14 O14            7.0665     2.1905    -0.0502 O.2     
  15 C15            3.5788    -2.1325    -0.0432 C.3     
  16 C16            3.5649    -2.6273    -1.4666 C.ar    
  17 C17            4.7568    -2.8557    -2.1293 C.ar    
  18 C18            4.7473    -3.3087    -3.4341 C.ar    
  19 C19            3.5394    -3.5352    -4.0800 C.ar    
  20 C20            2.3443    -3.3053    -3.4118 C.ar    
  21 C21            2.3603    -2.8573    -2.1054 C.ar    
  22 N22            3.5264    -3.9945    -5.4044 N.pl3   
  23 C23            2.4259    -4.2539    -6.1461 C.2     
  24 C24            2.8398    -4.6754    -7.3635 C.2     
  25 C25            4.2390    -4.6738    -7.3671 C.2     
  26 N26            4.6513    -4.2603    -6.1959 N.2     
  27 C27            5.8790     4.8063    -0.0262 C.ar    
  28 C28            6.8081     5.1108    -1.0208 C.ar    
  29 C29            7.4445     6.3344    -1.0153 C.ar    
  30 C30            7.1629     7.2596    -0.0244 C.ar    
  31 C31            6.2411     6.9625     0.9658 C.ar    
  32 C32            5.5948     5.7445     0.9665 C.ar    
  33 N33            4.6098     5.4283     2.0255 N.pl3   
  34 O34            4.3501     6.3107     2.9681 O.2     
  35 O35            3.9931     4.2646     2.0251 O.2     
  36 H36           -0.9626     1.9126     0.0170 H       
  37 H37           -0.9307    -0.5484     0.0084 H       
  38 H38            1.1767    -1.7714    -0.0184 H       
  39 H39            1.1206     3.1823     0.0081 H       
  40 H40            5.6713    -0.5764    -0.0534 H       
  41 H41            4.4729    -2.5000     0.4605 H       
  42 H42            2.6930    -2.4972     0.4769 H       
  43 H43            5.6962    -2.6794    -1.6264 H       
  44 H44            5.6785    -3.4863    -3.9515 H       
  45 H45            1.4031    -3.4802    -3.9118 H       
  46 H46            1.4310    -2.6783    -1.5850 H       
  47 H47            1.4007    -4.1450    -5.8243 H       
  48 H48            2.2026    -4.9622    -8.1870 H       
  49 H49            4.8701    -4.9602    -8.1954 H       
  50 H50            7.0290     4.3896    -1.7938 H       
  51 H51            8.1642     6.5711    -1.7850 H       
  52 H52            7.6640     8.2162    -0.0234 H       
  53 H53            6.0251     7.6877     1.7363 H       
@<TRIPOS>BOND
   1    1    2 ar
   2    1    6 ar
   3    1   36 1
   4    2    3 ar
   5    2   37 1
   6    3    4 ar
   7    3   38 1
   8    4    5 ar
   9    4    7 1
  10    5    6 ar
  11    5   10 1
  12    6   39 1
  13    7    8 1
  14    7   15 1
  15    8    9 2
  16    8   40 1
  17    9   10 1
  18    9   11 1
  19   10   13 2
  20   11   12 am
  21   11   14 2
  22   12   13 1
  23   12   27 1
  24   15   16 1
  25   15   41 1
  26   15   42 1
  27   16   17 ar
  28   16   21 ar
  29   17   18 ar
  30   17   43 1
  31   18   19 ar
  32   18   44 1
  33   19   20 ar
  34   19   22 1
  35   20   21 ar
  36   20   45 1
  37   21   46 1
  38   22   23 1
  39   22   26 1
  40   23   24 2
  41   23   47 1
  42   24   25 1
  43   24   48 1
  44   25   26 2
  45   25   49 1
  46   27   28 ar
  47   27   32 ar
  48   28   29 ar
  49   28   50 1
  50   29   30 ar
  51   29   51 1
  52   30   31 ar
  53   30   52 1
  54   31   32 ar
  55   31   53 1
  56   32   33 1
  57   33   34 2
  58   33   35 2

#	End of record

