#	Name: ASD00480042
#	Creating user name:	WinNT
#	Creation time:	15. 06. 2019 18:36

#	Modifying user name:	WinNT
#	Modification time:	15. 06. 2019 18:36

#	Program:	/corina/corina34_cracker 3.40 0067  02.08.2006

@<TRIPOS>MOLECULE
ASD00480042
  53   57    0    0    0
SMALL
NO_CHARGES


@<TRIPOS>ATOM
   1 P1            -0.0200     1.6273     0.0110 P.3     
   2 C2            -0.5490    -2.3785     2.7254 C.3     
   3 N3            -2.1058    -7.3329     2.8209 N.ar    
   4 C4            -0.8756    -6.8550     2.7780 C.ar    
   5 C5            -0.1055    -2.1562     1.2545 C.3     
   6 O6            -1.1714    -2.4457     0.3478 O.3     
   7 C7             0.2223    -0.6511     1.2604 C.3     
   8 N8            -0.6194    -5.5639     2.7571 N.ar    
   9 O9             0.0021    -0.0041     0.0020 O.3     
  10 C10           -1.6086    -4.6767     2.7794 C.ar    
  11 C11           -0.9000    -0.1449     2.2051 C.3     
  12 O12           -0.9456    -1.0954     3.2548 O.3     
  13 C13           -2.9362    -5.1350     2.8252 C.ar    
  14 C14           -4.5622    -8.9911     4.3502 C.3     
  15 C15           -6.1939    -7.6964    -1.7770 C.ar    
  16 C16           -5.7907    -8.9687    -1.4169 C.ar    
  17 C17           -6.5463    -6.7813    -0.8026 C.ar    
  18 C18           -5.7416    -9.3264    -0.0825 C.ar    
  19 C19           -6.4975    -7.1392     0.5317 C.ar    
  20 C20           -6.0425    -8.8021     2.3464 C.3     
  21 C21           -0.6277     1.2962     2.5831 C.3     
  22 C22           -6.0952    -8.4117     0.8918 C.ar    
  23 C23           -4.6569    -8.4818     2.9105 C.3     
  24 O24            1.3639     2.1517     0.0006 O.2     
  25 O25           -0.8243     2.1734    -1.2724 O.3     
  26 O26           -0.7746     2.0807     1.3750 O.3     
  27 C27           -3.1587    -6.5222     2.8457 C.ar    
  28 N28           -4.4443    -7.0325     2.8902 N.pl3   
  29 N29           -3.7357    -4.0415     2.8401 N.2     
  30 C30           -3.0014    -2.9675     2.8072 C.2     
  31 N31           -1.6816    -3.3067     2.7690 N.pl3   
  32 H32            0.2822    -2.7781     3.3065 H       
  33 H33           -0.0486    -7.5494     2.7594 H       
  34 H34            0.7782    -2.7490     1.0182 H       
  35 H35           -1.4800    -3.3615     0.3831 H       
  36 H36            1.2214    -0.4530     1.6485 H       
  37 H37           -1.8459    -0.1800     1.6647 H       
  38 H38           -5.3238    -8.5036     4.9588 H       
  39 H39           -4.7203   -10.0694     4.3653 H       
  40 H40           -3.5750    -8.7629     4.7521 H       
  41 H41           -6.2281    -7.4155    -2.8192 H       
  42 H42           -5.5158    -9.6837    -2.1781 H       
  43 H43           -6.8610    -5.7872    -1.0839 H       
  44 H44           -5.4272   -10.3206     0.1988 H       
  45 H45           -6.7735    -6.4245     1.2929 H       
  46 H46           -6.7979    -8.2442     2.8998 H       
  47 H47           -6.2363    -9.8703     2.4432 H       
  48 H48           -1.3472     1.6272     3.3321 H       
  49 H49            0.3865     1.3945     2.9702 H       
  50 H50           -3.8953    -8.9693     2.3019 H       
  51 H51           -0.8731     3.1377    -1.3248 H       
  52 H52           -5.2047    -6.4305     2.9080 H       
  53 H53           -3.3816    -1.9567     2.8091 H       
@<TRIPOS>BOND
   1    1    9 1
   2    1   24 2
   3    1   25 1
   4    1   26 1
   5    2    5 1
   6    2   12 1
   7    2   31 1
   8    2   32 1
   9    3    4 ar
  10    3   27 ar
  11    4    8 ar
  12    4   33 1
  13    5    6 1
  14    5    7 1
  15    5   34 1
  16    6   35 1
  17    7    9 1
  18    7   11 1
  19    7   36 1
  20    8   10 ar
  21   10   13 ar
  22   10   31 1
  23   11   12 1
  24   11   21 1
  25   11   37 1
  26   13   27 ar
  27   13   29 1
  28   14   23 1
  29   14   38 1
  30   14   39 1
  31   14   40 1
  32   15   16 ar
  33   15   17 ar
  34   15   41 1
  35   16   18 ar
  36   16   42 1
  37   17   19 ar
  38   17   43 1
  39   18   22 ar
  40   18   44 1
  41   19   22 ar
  42   19   45 1
  43   20   22 1
  44   20   23 1
  45   20   46 1
  46   20   47 1
  47   21   26 1
  48   21   48 1
  49   21   49 1
  50   23   28 1
  51   23   50 1
  52   25   51 1
  53   27   28 1
  54   28   52 1
  55   29   30 2
  56   30   31 1
  57   30   53 1

#	End of record

