#	Name: ASD05503036
#	Creating user name:	WinNT
#	Creation time:	15. 06. 2019 21:01

#	Modifying user name:	WinNT
#	Modification time:	15. 06. 2019 21:01

#	Program:	/corina/corina34_cracker 3.40 0067  02.08.2006

@<TRIPOS>MOLECULE
ASD05503036
  45   46    0    0    0
SMALL
NO_CHARGES


@<TRIPOS>ATOM
   1 C1            -0.1563     1.3602     0.4559 C.ar    
   2 C2            -0.0919    -0.0180     0.2955 C.ar    
   3 C3             1.1414    -0.6488     0.2143 C.ar    
   4 C4             2.3067     0.1000     0.2936 C.ar    
   5 C5             2.2355     1.4785     0.4541 C.ar    
   6 C6             1.0062     2.1032     0.5347 C.ar    
   7 N7            -1.2695    -0.7696     0.2163 N.am    
   8 C8            -1.3234    -1.8559    -0.5796 C.2     
   9 C9            -2.5481    -2.7340    -0.5741 C.3     
  10 O10           -0.3862    -2.1268    -1.3003 O.2     
  11 C11           -2.3524    -3.8885    -1.5589 C.3     
  12 C12           -3.5958    -4.7800    -1.5534 C.3     
  13 N13            3.5517    -0.5319     0.2127 N.am    
  14 C14            4.5824     0.0856    -0.3978 C.2     
  15 C15            5.8681    -0.6220    -0.5744 C.ar    
  16 O16            4.4547     1.2245    -0.8032 O.2     
  17 C17            6.8564    -0.5357     0.4076 C.ar    
  18 C18            8.0539    -1.1990     0.2367 C.ar    
  19 C19            8.2765    -1.9484    -0.9049 C.ar    
  20 C20            7.3013    -2.0376    -1.8823 C.ar    
  21 C21            6.0971    -1.3840    -1.7213 C.ar    
  22 C22            5.0358    -1.4828    -2.7867 C.3     
  23 C23            6.6159     0.2804     1.6514 C.3     
  24 H24           -1.1159     1.8522     0.5147 H       
  25 H25            1.1940    -1.7203     0.0899 H       
  26 H26            3.1422     2.0619     0.5163 H       
  27 H27            0.9534     3.1747     0.6590 H       
  28 H28           -2.0471    -0.5088     0.7343 H       
  29 H29           -2.7041    -3.1337     0.4279 H       
  30 H30           -3.4174    -2.1470    -0.8705 H       
  31 H31           -2.1964    -3.4888    -2.5609 H       
  32 H32           -1.4831    -4.4755    -1.2625 H       
  33 H33           -3.7518    -5.1797    -0.5514 H       
  34 H34           -4.4651    -4.1930    -1.8498 H       
  35 H35           -3.4563    -5.6024    -2.2550 H       
  36 H36            3.6733    -1.4147     0.5959 H       
  37 H37            8.8196    -1.1328     0.9955 H       
  38 H38            9.2157    -2.4657    -1.0338 H       
  39 H39            7.4816    -2.6237    -2.7714 H       
  40 H40            4.3913    -2.3371    -2.5794 H       
  41 H41            4.4395    -0.5704    -2.7913 H       
  42 H42            5.5091    -1.6125    -3.7600 H       
  43 H43            6.1661    -0.3500     2.4183 H       
  44 H44            7.5643     0.6752     2.0159 H       
  45 H45            5.9435     1.1064     1.4196 H       
@<TRIPOS>BOND
   1    1    2 ar
   2    1    6 ar
   3    1   24 1
   4    2    3 ar
   5    2    7 1
   6    3    4 ar
   7    3   25 1
   8    4    5 ar
   9    4   13 1
  10    5    6 ar
  11    5   26 1
  12    6   27 1
  13    7    8 am
  14    7   28 1
  15    8    9 1
  16    8   10 2
  17    9   11 1
  18    9   29 1
  19    9   30 1
  20   11   12 1
  21   11   31 1
  22   11   32 1
  23   12   33 1
  24   12   34 1
  25   12   35 1
  26   13   14 am
  27   13   36 1
  28   14   15 1
  29   14   16 2
  30   15   17 ar
  31   15   21 ar
  32   17   18 ar
  33   17   23 1
  34   18   19 ar
  35   18   37 1
  36   19   20 ar
  37   19   38 1
  38   20   21 ar
  39   20   39 1
  40   21   22 1
  41   22   40 1
  42   22   41 1
  43   22   42 1
  44   23   43 1
  45   23   44 1
  46   23   45 1

#	End of record

