#	Name: ASD03540053
#	Creating user name:	WinNT
#	Creation time:	15. 06. 2019 20:42

#	Modifying user name:	WinNT
#	Modification time:	15. 06. 2019 20:42

#	Program:	/corina/corina34_cracker 3.40 0067  02.08.2006

@<TRIPOS>MOLECULE
ASD03540053
  52   55    0    0    0
SMALL
NO_CHARGES


@<TRIPOS>ATOM
   1 C1            -0.0162     1.3436     0.0094 C.2     
   2 N2             0.0021    -0.0041     0.0020 N.am    
   3 O3             1.0277     1.9653     0.0028 O.2     
   4 O4            -1.1912     2.0008     0.0186 O.3     
   5 O5             2.5681    -2.2689    -0.0354 O.3     
   6 N6             1.3939    -1.9805    -0.0223 N.2     
   7 C7             1.2195    -0.6850    -0.0133 C.2     
   8 C8             2.5180    -0.1100    -0.0226 C.2     
   9 C9             3.3477    -1.1780    -0.0367 C.2     
  10 C10            4.8543    -1.1478    -0.0507 C.3     
  11 C11            5.6027    -2.3134     1.9335 C.2     
  12 N12            6.0695    -2.3792     3.2114 N.am    
  13 C13            6.2839    -1.1938     3.8724 C.2     
  14 C14            6.0372     0.0177     3.2678 C.2     
  15 C15            5.5577     0.0298     1.9515 C.2     
  16 N16            5.3555    -1.1462     1.3259 N.am    
  17 S17            6.8787    -1.6255     5.4813 S.3     
  18 C18            6.3556    -3.5035     3.9298 C.2     
  19 C19            6.8090    -3.3718     5.1842 C.2     
  20 O20            5.3272     1.0845     1.3830 O.2     
  21 O21            5.4090    -3.3470     1.3236 O.2     
  22 C22            6.2778     1.3078     4.0086 C.3     
  23 C23            7.1717    -4.4474     6.1159 C.2     
  24 N24            7.6145    -4.1466     7.3528 N.am    
  25 O25            7.0724    -5.6100     5.7713 O.2     
  26 C26            7.9763    -5.2196     8.2824 C.3     
  27 C27            8.4368    -4.6206     9.5863 C.ar    
  28 C28            7.5226    -4.3712    10.5928 C.ar    
  29 C29            7.9439    -3.8223    11.7892 C.ar    
  30 C30            9.2821    -3.5222    11.9794 C.ar    
  31 C31           10.1968    -3.7725    10.9705 C.ar    
  32 C32            9.7740    -4.3263     9.7770 C.ar    
  33 F33            9.6950    -2.9853    13.1483 F       
  34 C34           -1.1349     3.4517     0.0262 C.3     
  35 H35           -0.8313    -0.5005     0.0073 H       
  36 H36            2.7818     0.9373    -0.0192 H       
  37 H37            5.2305    -2.0273    -0.5733 H       
  38 H38            5.1949    -0.2477    -0.5625 H       
  39 H39            6.2190    -4.4826     3.4951 H       
  40 H40            7.3014     1.6403     3.8362 H       
  41 H41            5.5837     2.0677     3.6497 H       
  42 H42            6.1223     1.1486     5.0756 H       
  43 H43            7.6937    -3.2197     7.6276 H       
  44 H44            7.1081    -5.8540     8.4605 H       
  45 H45            8.7806    -5.8167     7.8527 H       
  46 H46            6.4788    -4.6050    10.4441 H       
  47 H47            7.2295    -3.6272    12.5753 H       
  48 H48           11.2409    -3.5388    11.1178 H       
  49 H49           10.4880    -4.5254     8.9915 H       
  50 H50           -0.6116     3.7997    -0.8644 H       
  51 H51           -2.1477     3.8546     0.0332 H       
  52 H52           -0.6031     3.7900     0.9155 H       
@<TRIPOS>BOND
   1    1    2 am
   2    1    3 2
   3    1    4 1
   4    2    7 1
   5    2   35 1
   6    4   34 1
   7    5    6 1
   8    5    9 1
   9    6    7 2
  10    7    8 1
  11    8    9 2
  12    8   36 1
  13    9   10 1
  14   10   16 1
  15   10   37 1
  16   10   38 1
  17   11   12 am
  18   11   16 am
  19   11   21 2
  20   12   13 1
  21   12   18 1
  22   13   14 2
  23   13   17 1
  24   14   15 1
  25   14   22 1
  26   15   16 am
  27   15   20 2
  28   17   19 1
  29   18   19 2
  30   18   39 1
  31   19   23 1
  32   22   40 1
  33   22   41 1
  34   22   42 1
  35   23   24 am
  36   23   25 2
  37   24   26 1
  38   24   43 1
  39   26   27 1
  40   26   44 1
  41   26   45 1
  42   27   28 ar
  43   27   32 ar
  44   28   29 ar
  45   28   46 1
  46   29   30 ar
  47   29   47 1
  48   30   31 ar
  49   30   33 1
  50   31   32 ar
  51   31   48 1
  52   32   49 1
  53   34   50 1
  54   34   51 1
  55   34   52 1

#	End of record

