#	Name: ASD01911006
#	Creating user name:	WinNT
#	Creation time:	15. 06. 2019 19:56

#	Modifying user name:	WinNT
#	Modification time:	15. 06. 2019 19:56

#	Program:	/corina/corina34_cracker 3.40 0067  02.08.2006

@<TRIPOS>MOLECULE
ASD01911006
  52   55    0    0    0
SMALL
NO_CHARGES


@<TRIPOS>ATOM
   1 N1             0.3705     0.6657    -1.5584 N.am    
   2 C2             0.1420    -0.6457    -0.9672 C.3     
   3 C3            -1.0315    -0.6017     0.0134 C.3     
   4 N4            -2.1436     0.1158    -0.6324 N.am    
   5 C5            -1.9114     1.5171    -1.0130 C.3     
   6 C6            -0.5421     1.6362    -1.6239 C.2     
   7 C7            -3.3260    -0.4874    -0.8655 C.2     
   8 C8            -4.4618     0.2939    -1.3940 C.ar    
   9 C9            -4.6372     1.6250    -1.0028 C.ar    
  10 C10           -5.6955     2.3590    -1.4929 C.ar    
  11 C11           -6.5956     1.7830    -2.3778 C.ar    
  12 C12           -6.4301     0.4466    -2.7775 C.ar    
  13 C13           -5.3565    -0.2936    -2.2875 C.ar    
  14 C14           -7.3578    -0.1506    -3.6904 C.1     
  15 O15           -3.4574    -1.6750    -0.6406 O.2     
  16 C16           -8.1184    -0.6403    -4.4387 C.1     
  17 C17           -9.0461    -1.2376    -5.3516 C.ar    
  18 N18           -8.8826    -2.5032    -5.7253 N.ar    
  19 C19           -9.7144    -3.0879    -6.5629 C.ar    
  20 C20          -10.7942    -2.4018    -7.0874 C.ar    
  21 C21          -11.0034    -1.0777    -6.7244 C.ar    
  22 C22          -10.1203    -0.4878    -5.8390 C.ar    
  23 C23            1.6386     0.9278    -2.0902 C.ar    
  24 O24           -7.6355     2.5101    -2.8564 O.3     
  25 C25            2.6307     1.4766    -1.2869 C.ar    
  26 C26            3.8818     1.7336    -1.8154 C.ar    
  27 C27            4.1459     1.4451    -3.1415 C.ar    
  28 C28            3.1601     0.8992    -3.9433 C.ar    
  29 C29            1.9096     0.6346    -3.4200 C.ar    
  30 C30           -7.7428     3.8624    -2.4071 C.3     
  31 O31           -0.2571     2.6590    -2.2102 O.2     
  32 Cl32           2.2992     1.8396     0.3781 Cl      
  33 H33           -0.0782    -1.3624    -1.7583 H       
  34 H34            1.0406    -0.9619    -0.4375 H       
  35 H35           -1.3427    -1.6168     0.2603 H       
  36 H36           -0.7329    -0.0770     0.9210 H       
  37 H37           -2.6651     1.8287    -1.7361 H       
  38 H38           -1.9686     2.1502    -0.1276 H       
  39 H39           -3.9407     2.0794    -0.3138 H       
  40 H40           -5.8251     3.3865    -1.1867 H       
  41 H41           -5.2233    -1.3216    -2.5908 H       
  42 H42           -9.5503    -4.1176    -6.8442 H       
  43 H43          -11.4691    -2.8914    -7.7739 H       
  44 H44          -11.8402    -0.5223    -7.1216 H       
  45 H45          -10.2536     0.5399    -5.5353 H       
  46 H46            4.6535     2.1605    -1.1921 H       
  47 H47            5.1242     1.6467    -3.5523 H       
  48 H48            3.3697     0.6757    -4.9789 H       
  49 H49            1.1405     0.2083    -4.0471 H       
  50 H50           -7.8495     3.8775    -1.3224 H       
  51 H51           -6.8456     4.4121    -2.6916 H       
  52 H52           -8.6152     4.3291    -2.8645 H       
@<TRIPOS>BOND
   1    1    2 1
   2    1   23 1
   3    1    6 am
   4    2    3 1
   5    2   33 1
   6    2   34 1
   7    3    4 1
   8    3   35 1
   9    3   36 1
  10    4    5 1
  11    4    7 am
  12    5    6 1
  13    5   37 1
  14    5   38 1
  15    6   31 2
  16    7    8 1
  17    7   15 2
  18    8    9 ar
  19    8   13 ar
  20    9   10 ar
  21    9   39 1
  22   10   11 ar
  23   10   40 1
  24   11   12 ar
  25   11   24 1
  26   12   13 ar
  27   12   14 1
  28   13   41 1
  29   14   16 3
  30   16   17 1
  31   17   18 ar
  32   17   22 ar
  33   18   19 ar
  34   19   20 ar
  35   19   42 1
  36   20   21 ar
  37   20   43 1
  38   21   22 ar
  39   21   44 1
  40   22   45 1
  41   23   25 ar
  42   23   29 ar
  43   24   30 1
  44   25   26 ar
  45   25   32 1
  46   26   27 ar
  47   26   46 1
  48   27   28 ar
  49   27   47 1
  50   28   29 ar
  51   28   48 1
  52   29   49 1
  53   30   50 1
  54   30   51 1
  55   30   52 1

#	End of record

