#	Name: ASD02270004
#	Creating user name:	WinNT
#	Creation time:	15. 06. 2019 20:20

#	Modifying user name:	WinNT
#	Modification time:	15. 06. 2019 20:20

#	Program:	/corina/corina34_cracker 3.40 0067  02.08.2006

@<TRIPOS>MOLECULE
ASD02270004
  54   57    0    0    0
SMALL
NO_CHARGES


@<TRIPOS>ATOM
   1 N1            -0.2332     1.3102     0.1491 N.am    
   2 C2            -0.0766    -0.1487     0.2082 C.3     
   3 N3             1.3689    -0.4007     0.4141 N.3     
   4 C4             2.0042     0.7943    -0.1791 C.3     
   5 C5             0.9654     1.8846    -0.0858 C.2     
   6 O6             1.1721     3.0739    -0.2024 O.2     
   7 C7             3.2501     1.1760     0.6157 C.3     
   8 C8             3.9167     2.3888    -0.0397 C.3     
   9 N9             4.2619     2.0654    -1.4300 N.3     
  10 C10            3.0623     1.7606    -2.2203 C.3     
  11 C11            2.3670     0.5271    -1.6374 C.3     
  12 C12            5.0365     3.1508    -2.0462 C.3     
  13 C13            5.5879     2.6822    -3.3943 C.3     
  14 N14            6.3605     3.7646    -4.0088 N.am    
  15 C15            6.9444     3.5784    -5.2092 C.2     
  16 C16            7.7235     4.6699    -5.8289 C.ar    
  17 C17            8.3294     4.4795    -7.0724 C.ar    
  18 C18            9.0562     5.5031    -7.6467 C.ar    
  19 C19            9.1844     6.7192    -6.9892 C.ar    
  20 C20            8.5842     6.9115    -5.7547 C.ar    
  21 C21            7.8515     5.8975    -5.1756 C.ar    
  22 F22            9.8969     7.7183    -7.5544 F       
  23 O23            6.8301     2.5122    -5.7819 O.2     
  24 C24            1.7735    -1.5628    -0.2468 C.ar    
  25 C25            2.7357    -2.3875     0.3219 C.ar    
  26 C26            3.1342    -3.5367    -0.3330 C.ar    
  27 C27            2.5772    -3.8672    -1.5541 C.ar    
  28 C28            1.6172    -3.0475    -2.1251 C.ar    
  29 C29            1.2103    -1.8988    -1.4711 C.ar    
  30 F30            1.0746    -3.3732    -3.3187 F       
  31 F31            9.6438     5.3211    -8.8495 F       
  32 H32           -1.0705     1.7877     0.2580 H       
  33 H33           -0.6502    -0.5538     1.0418 H       
  34 H34           -0.4060    -0.5992    -0.7281 H       
  35 H35            2.9670     1.4250     1.6385 H       
  36 H36            3.9471     0.3381     0.6243 H       
  37 H37            3.2292     3.2345    -0.0232 H       
  38 H38            4.8226     2.6463     0.5091 H       
  39 H39            2.3808     2.6107    -2.1889 H       
  40 H40            3.3485     1.5622    -3.2532 H       
  41 H41            3.0382    -0.3298    -1.6942 H       
  42 H42            1.4604     0.3181    -2.2054 H       
  43 H43            4.3917     4.0163    -2.1986 H       
  44 H44            5.8633     3.4246    -1.3908 H       
  45 H45            6.2328     1.8167    -3.2419 H       
  46 H46            4.7612     2.4084    -4.0497 H       
  47 H47            6.4517     4.6153    -3.5519 H       
  48 H48            8.2300     3.5333    -7.5836 H       
  49 H49            8.6869     7.8595    -5.2475 H       
  50 H50            7.3846     6.0493    -4.2137 H       
  51 H51            3.1724    -2.1303     1.2757 H       
  52 H52            3.8823    -4.1776     0.1096 H       
  53 H53            2.8911    -4.7658    -2.0642 H       
  54 H54            0.4621    -1.2595    -1.9158 H       
@<TRIPOS>BOND
   1    1    2 1
   2    1    5 am
   3    1   32 1
   4    2    3 1
   5    2   33 1
   6    2   34 1
   7    3    4 1
   8    3   24 1
   9    4    5 1
  10    4    7 1
  11    4   11 1
  12    5    6 2
  13    7    8 1
  14    7   35 1
  15    7   36 1
  16    8    9 1
  17    8   37 1
  18    8   38 1
  19    9   10 1
  20    9   12 1
  21   10   11 1
  22   10   39 1
  23   10   40 1
  24   11   41 1
  25   11   42 1
  26   12   13 1
  27   12   43 1
  28   12   44 1
  29   13   14 1
  30   13   45 1
  31   13   46 1
  32   14   15 am
  33   14   47 1
  34   15   16 1
  35   15   23 2
  36   16   17 ar
  37   16   21 ar
  38   17   18 ar
  39   17   48 1
  40   18   19 ar
  41   18   31 1
  42   19   20 ar
  43   19   22 1
  44   20   21 ar
  45   20   49 1
  46   21   50 1
  47   24   25 ar
  48   24   29 ar
  49   25   26 ar
  50   25   51 1
  51   26   27 ar
  52   26   52 1
  53   27   28 ar
  54   27   53 1
  55   28   29 ar
  56   28   30 1
  57   29   54 1

#	End of record

