#	Name: ASD03331561
#	Creating user name:	WinNT
#	Creation time:	15. 06. 2019 20:39

#	Modifying user name:	WinNT
#	Modification time:	15. 06. 2019 20:39

#	Program:	/corina/corina34_cracker 3.40 0067  02.08.2006

@<TRIPOS>MOLECULE
ASD03331561
  32   34    0    0    0
SMALL
NO_CHARGES


@<TRIPOS>ATOM
   1 C1            -0.0222     1.5064     0.1017 C.2     
   2 C2            -0.0068     0.0034     0.2160 C.3     
   3 C3             1.4340    -0.4775    -0.0034 C.3     
   4 C4             2.3811     0.3543     0.8663 C.3     
   5 C5             2.4488     1.7877     0.3278 C.3     
   6 N6             1.0838     2.2902     0.1520 N.pl3   
   7 C7             0.6769     3.5823     0.0122 C.2     
   8 N8            -0.6300     3.5977    -0.1177 N.2     
   9 C9            -1.0915     2.3270    -0.0714 C.2     
  10 C10           -2.4984     1.9088    -0.1848 C.2     
  11 O11           -2.7888     0.7301    -0.1249 O.2     
  12 O12           -3.4646     2.8331    -0.3551 O.3     
  13 C13            1.5591     4.7697     0.0075 C.ar    
  14 C14            2.9288     4.6231    -0.2160 C.ar    
  15 C15            3.7477     5.7349    -0.2193 C.ar    
  16 C16            3.2096     6.9958    -0.0007 C.ar    
  17 C17            1.8508     7.1444     0.2219 C.ar    
  18 C18            1.0237     6.0401     0.2209 C.ar    
  19 F19            4.0140     8.0812    -0.0046 F       
  20 F20            5.0741     5.5955    -0.4350 F       
  21 H21           -0.3468    -0.2937     1.2081 H       
  22 H22           -0.6590    -0.4300    -0.5422 H       
  23 H23            1.5134    -1.5285     0.2743 H       
  24 H24            1.7025    -0.3562    -1.0529 H       
  25 H25            2.0129     0.3691     1.8921 H       
  26 H26            3.3767    -0.0888     0.8449 H       
  27 H27            2.9824     2.4198     1.0376 H       
  28 H28            2.9668     1.7936    -0.6313 H       
  29 H29           -4.3735     2.5105    -0.4244 H       
  30 H30            3.3475     3.6421    -0.3857 H       
  31 H31            1.4370     8.1274     0.3922 H       
  32 H32           -0.0364     6.1585     0.3898 H       
@<TRIPOS>BOND
   1    1    2 1
   2    1    6 1
   3    1    9 2
   4    2    3 1
   5    2   21 1
   6    2   22 1
   7    3    4 1
   8    3   23 1
   9    3   24 1
  10    4    5 1
  11    4   25 1
  12    4   26 1
  13    5    6 1
  14    5   27 1
  15    5   28 1
  16    6    7 1
  17    7    8 2
  18    7   13 1
  19    8    9 1
  20    9   10 1
  21   10   11 2
  22   10   12 1
  23   12   29 1
  24   13   14 ar
  25   13   18 ar
  26   14   15 ar
  27   14   30 1
  28   15   16 ar
  29   15   20 1
  30   16   17 ar
  31   16   19 1
  32   17   18 ar
  33   17   31 1
  34   18   32 1

#	End of record

