#	Name: ASD09360005
#	Creating user name:	WinNT
#	Creation time:	15. 06. 2019 21:21

#	Modifying user name:	WinNT
#	Modification time:	15. 06. 2019 21:21

#	Program:	/corina/corina34_cracker 3.40 0067  02.08.2006

@<TRIPOS>MOLECULE
ASD09360005
  78   84    0    0    0
SMALL
NO_CHARGES


@<TRIPOS>ATOM
   1 N1            -0.1223     1.0409     0.1585 N.am    
   2 C2             0.0829    -0.2825     0.0304 C.2     
   3 C3            -1.1996    -0.9697    -0.2239 C.2     
   4 C4            -2.1972    -0.0543    -0.2510 C.2     
   5 C5            -1.5595     1.2923    -0.0002 C.3     
   6 C6             0.8581     2.0043     0.4050 C.ar    
   7 C7            -2.1269     1.9092     1.2522 C.ar    
   8 C8            -3.6211    -0.3192    -0.4747 C.2     
   9 O9             1.1640    -0.8315     0.1113 O.2     
  10 O10           -1.3533    -2.3021    -0.4023 O.3     
  11 O11           -4.2579    -0.9547     0.3448 O.2     
  12 C12           -4.2833     0.1850    -1.6949 C.ar    
  13 C13           -3.0185     2.9585     1.1601 C.ar    
  14 C14           -3.5424     3.5280     2.3191 C.ar    
  15 C15           -3.1624     3.0340     3.5651 C.ar    
  16 C16           -2.2699     1.9841     3.6455 C.ar    
  17 C17           -1.7574     1.4189     2.4919 C.ar    
  18 C18            2.1881     1.6225     0.5398 C.ar    
  19 C19            3.1575     2.5720     0.7827 C.ar    
  20 C20            2.8034     3.9159     0.8931 C.ar    
  21 C21            1.4691     4.2966     0.7575 C.ar    
  22 C22            0.5035     3.3446     0.5094 C.ar    
  23 C23           -5.6497    -0.0359    -1.8915 C.ar    
  24 C24           -6.2656     0.4348    -3.0285 C.ar    
  25 C25           -5.5266     1.1320    -3.9854 C.ar    
  26 C26           -4.1624     1.3533    -3.7903 C.ar    
  27 C27           -3.5454     0.8886    -2.6515 C.ar    
  28 C28            3.8448     4.9393     1.1549 C.ar    
  29 C29            3.4926     6.2828     1.2655 C.ar    
  30 C30            4.4665     7.2313     1.5098 C.ar    
  31 C31            5.7897     6.8487     1.6445 C.ar    
  32 C32            6.1441     5.5161     1.5355 C.ar    
  33 C33            5.1785     4.5596     1.2968 C.ar    
  34 Br34           3.9912     9.0554     1.6597 Br      
  35 C35           -4.5012     4.6569     2.2264 C.ar    
  36 C36           -4.9393     5.2975     3.3823 C.ar    
  37 C37           -5.8345     6.3507     3.2892 C.ar    
  38 C38           -6.2923     6.7648     2.0462 C.ar    
  39 C39           -5.8578     6.1287     0.8981 C.ar    
  40 C40           -4.9613     5.0825     0.9815 C.ar    
  41 C41           -6.1911     1.6377    -5.2101 C.ar    
  42 C42           -5.4371     2.2370    -6.2185 C.ar    
  43 C43           -6.0605     2.7060    -7.3563 C.ar    
  44 C44           -7.4324     2.5827    -7.4979 C.ar    
  45 C45           -8.1858     1.9884    -6.4996 C.ar    
  46 C46           -7.5715     1.5105    -5.3604 C.ar    
  47 Cl47          -8.2108     3.1760    -8.9317 Cl      
  48 C48            6.8482     7.8878     1.9105 C.3     
  49 O49           -6.2648     6.9782     4.4153 O.3     
  50 H50           -1.7272     1.9510    -0.8523 H       
  51 H51           -0.5282    -2.8036    -0.3500 H       
  52 H52           -3.3094     3.3378     0.1917 H       
  53 H53           -3.5652     3.4720     4.4664 H       
  54 H54           -1.9744     1.6006     4.6109 H       
  55 H55           -1.0596     0.5974     2.5594 H       
  56 H56            2.4620     0.5813     0.4546 H       
  57 H57            4.1905     2.2750     0.8877 H       
  58 H58            1.1926     5.3371     0.8430 H       
  59 H59           -0.5302     3.6390     0.4044 H       
  60 H60           -6.2216    -0.5761    -1.1516 H       
  61 H61           -7.3211     0.2642    -3.1806 H       
  62 H62           -3.5917     1.8927    -4.5317 H       
  63 H63           -2.4899     1.0602    -2.5006 H       
  64 H64            2.4602     6.5820     1.1600 H       
  65 H65            7.1782     5.2231     1.6416 H       
  66 H66            5.4566     3.5195     1.2123 H       
  67 H67           -4.5825     4.9739     4.3490 H       
  68 H68           -6.9901     7.5860     1.9755 H       
  69 H69           -6.2175     6.4541    -0.0668 H       
  70 H70           -4.6235     4.5879     0.0828 H       
  71 H71           -4.3671     2.3342    -6.1087 H       
  72 H72           -5.4775     3.1703    -8.1379 H       
  73 H73           -9.2555     1.8947    -6.6149 H       
  74 H74           -8.1599     1.0468    -4.5825 H       
  75 H75            6.9660     8.0194     2.9861 H       
  76 H76            7.7943     7.5615     1.4786 H       
  77 H77            6.5500     8.8341     1.4592 H       
  78 H78           -5.7152     7.7277     4.6824 H       
@<TRIPOS>BOND
   1    1    2 am
   2    1    6 1
   3    1    5 1
   4    2    3 1
   5    2    9 2
   6    3    4 2
   7    3   10 1
   8    4    5 1
   9    4    8 1
  10    5    7 1
  11    5   50 1
  12    6   18 ar
  13    6   22 ar
  14    7   13 ar
  15    7   17 ar
  16    8   11 2
  17    8   12 1
  18   10   51 1
  19   12   23 ar
  20   12   27 ar
  21   13   14 ar
  22   13   52 1
  23   14   15 ar
  24   14   35 1
  25   15   16 ar
  26   15   53 1
  27   16   17 ar
  28   16   54 1
  29   17   55 1
  30   18   19 ar
  31   18   56 1
  32   19   20 ar
  33   19   57 1
  34   20   21 ar
  35   20   28 1
  36   21   22 ar
  37   21   58 1
  38   22   59 1
  39   23   24 ar
  40   23   60 1
  41   24   25 ar
  42   24   61 1
  43   25   26 ar
  44   25   41 1
  45   26   27 ar
  46   26   62 1
  47   27   63 1
  48   28   29 ar
  49   28   33 ar
  50   29   30 ar
  51   29   64 1
  52   30   31 ar
  53   30   34 1
  54   31   32 ar
  55   31   48 1
  56   32   33 ar
  57   32   65 1
  58   33   66 1
  59   35   36 ar
  60   35   40 ar
  61   36   37 ar
  62   36   67 1
  63   37   38 ar
  64   37   49 1
  65   38   39 ar
  66   38   68 1
  67   39   40 ar
  68   39   69 1
  69   40   70 1
  70   41   42 ar
  71   41   46 ar
  72   42   43 ar
  73   42   71 1
  74   43   44 ar
  75   43   72 1
  76   44   45 ar
  77   44   47 1
  78   45   46 ar
  79   45   73 1
  80   46   74 1
  81   48   75 1
  82   48   76 1
  83   48   77 1
  84   49   78 1

#	End of record

