#	Name: ASD04910503
#	Creating user name:	WinNT
#	Creation time:	15. 06. 2019 20:56

#	Modifying user name:	WinNT
#	Modification time:	15. 06. 2019 20:56

#	Program:	/corina/corina34_cracker 3.40 0067  02.08.2006

@<TRIPOS>MOLECULE
ASD04910503
  67   69    0    0    0
SMALL
NO_CHARGES


@<TRIPOS>ATOM
   1 C1             1.2288     0.8773     0.5436 C.ar    
   2 C2             0.8471    -0.4306     0.4142 C.ar    
   3 C3             1.7955    -1.4391     0.5772 C.ar    
   4 N4             3.0589    -1.1479     0.8552 N.ar    
   5 C5             3.4677     0.0968     0.9880 C.ar    
   6 C6             2.5723     1.1566     0.8381 C.ar    
   7 C7             3.0314     2.5509     0.9871 C.2     
   8 N8             4.3238     2.8082     1.2700 N.am    
   9 O9             2.2438     3.4678     0.8547 O.2     
  10 C10            4.7796     4.1926     1.4180 C.3     
  11 C11            6.2764     4.2055     1.7350 C.3     
  12 C12            6.7453     5.6296     1.8872 C.2     
  13 O13            8.0325     5.8859     2.1689 O.3     
  14 O14            5.9627     6.5407     1.7556 O.2     
  15 N15            1.4128    -2.7635     0.4475 N.pl3   
  16 C16            0.0049    -3.1005     0.2231 C.3     
  17 C17           -0.7186    -3.1902     1.5683 C.3     
  18 C18           -0.0872    -4.4269    -0.4863 C.ar    
  19 C19           -2.2057    -3.4602     1.3305 C.3     
  20 C20           -2.9035    -3.6888     2.6727 C.3     
  21 C21           -2.8362    -2.2572     0.6262 C.3     
  22 C22           -1.0237    -4.6106    -1.4870 C.ar    
  23 C23           -1.1102    -5.8250    -2.1393 C.ar    
  24 C24           -0.2557    -6.8618    -1.7893 C.ar    
  25 C25            0.6835    -6.6743    -0.7841 C.ar    
  26 C26            0.7687    -5.4560    -0.1391 C.ar    
  27 C27           -2.1314    -6.0245    -3.2294 C.3     
  28 C28            1.6125    -7.7973    -0.4009 C.3     
  29 N29           -0.3414    -8.0956    -2.4492 N.pl3   
  30 N30           -1.4905    -8.8877    -2.5704 N.2     
  31 C31           -1.1780    -9.9604    -3.2520 C.2     
  32 C32            0.1785    -9.8868    -3.5869 C.2     
  33 C33            0.6690    -8.7291    -3.0865 C.2     
  34 C34            0.9549   -10.9130    -4.3713 C.3     
  35 F35            0.1080   -11.9694    -4.7234 F       
  36 F36            1.4703   -10.3222    -5.5300 F       
  37 F37            2.0072   -11.4000    -3.5885 F       
  38 H38            0.5133     1.6764     0.4175 H       
  39 H39           -0.1794    -0.6790     0.1882 H       
  40 H40            4.5040     0.2990     1.2151 H       
  41 H41            4.9521     2.0768     1.3757 H       
  42 H42            4.6001     4.7354     0.4900 H       
  43 H43            4.2321     4.6706     2.2302 H       
  44 H44            6.4559     3.6627     2.6630 H       
  45 H45            6.8240     3.7275     0.9227 H       
  46 H46            8.2860     6.8149     2.2571 H       
  47 H47            2.0770    -3.4681     0.5051 H       
  48 H48           -0.4606    -2.3280    -0.3890 H       
  49 H49           -0.2916    -4.0021     2.1571 H       
  50 H50           -0.6016    -2.2500     2.1072 H       
  51 H51           -2.3188    -4.3468     0.7066 H       
  52 H52           -2.7905    -2.8022     3.2967 H       
  53 H53           -3.9630    -3.8811     2.5033 H       
  54 H54           -2.4544    -4.5459     3.1745 H       
  55 H55           -3.9131    -2.4061     0.5466 H       
  56 H56           -2.6360    -1.3533     1.2016 H       
  57 H57           -2.4088    -2.1550    -0.3713 H       
  58 H58           -1.6883    -3.8038    -1.7585 H       
  59 H59            1.4991    -5.3095     0.6429 H       
  60 H60           -1.7131    -5.7014    -4.1827 H       
  61 H61           -2.3981    -7.0797    -3.2887 H       
  62 H62           -3.0216    -5.4367    -3.0054 H       
  63 H63            2.5363    -7.7160    -0.9737 H       
  64 H64            1.8383    -7.7348     0.6636 H       
  65 H65            1.1349    -8.7533    -0.6156 H       
  66 H66           -1.8512   -10.7641    -3.5110 H       
  67 H67            1.6862    -8.3772    -3.1752 H       
@<TRIPOS>BOND
   1    1    2 ar
   2    1    6 ar
   3    1   38 1
   4    2    3 ar
   5    2   39 1
   6    3    4 ar
   7    3   15 1
   8    4    5 ar
   9    5    6 ar
  10    5   40 1
  11    6    7 1
  12    7    8 am
  13    7    9 2
  14    8   10 1
  15    8   41 1
  16   10   11 1
  17   10   42 1
  18   10   43 1
  19   11   12 1
  20   11   44 1
  21   11   45 1
  22   12   13 1
  23   12   14 2
  24   13   46 1
  25   15   16 1
  26   15   47 1
  27   16   17 1
  28   16   18 1
  29   16   48 1
  30   17   19 1
  31   17   49 1
  32   17   50 1
  33   18   22 ar
  34   18   26 ar
  35   19   20 1
  36   19   21 1
  37   19   51 1
  38   20   52 1
  39   20   53 1
  40   20   54 1
  41   21   55 1
  42   21   56 1
  43   21   57 1
  44   22   23 ar
  45   22   58 1
  46   23   24 ar
  47   23   27 1
  48   24   25 ar
  49   24   29 1
  50   25   26 ar
  51   25   28 1
  52   26   59 1
  53   27   60 1
  54   27   61 1
  55   27   62 1
  56   28   63 1
  57   28   64 1
  58   28   65 1
  59   29   30 1
  60   29   33 1
  61   30   31 2
  62   31   32 1
  63   31   66 1
  64   32   33 2
  65   32   34 1
  66   33   67 1
  67   34   35 1
  68   34   36 1
  69   34   37 1

#	End of record

