#	Name: ASD00960018
#	Creating user name:	WinNT
#	Creation time:	15. 06. 2019 18:53

#	Modifying user name:	WinNT
#	Modification time:	15. 06. 2019 18:53

#	Program:	/corina/corina34_cracker 3.40 0067  02.08.2006

@<TRIPOS>MOLECULE
ASD00960018
  37   38    0    0    0
SMALL
NO_CHARGES


@<TRIPOS>ATOM
   1 C1            -0.0189     1.5409     0.0105 C.3     
   2 C2             0.0021    -0.0041     0.0020 C.3     
   3 C3             1.5055    -0.3590    -0.0142 C.3     
   4 O4             2.1632     0.7948     0.5532 O.3     
   5 C5             1.4743     1.9366    -0.0016 C.3     
   6 C6             1.7048     3.1728     0.8698 C.3     
   7 O7             3.0904     3.5216     0.8449 O.3     
   8 O8            -0.6439    -0.5072    -1.1692 O.3     
   9 *9            -1.2605    -1.7624    -0.9896 Du      
  10 N10            1.9245     2.1869    -1.3731 N.2     
  11 N11            2.9898     2.4871    -1.5690 N.1     
  12 N12            4.0551     2.7874    -1.7649 N.pl3   
  13 O13           -0.6784     2.0391    -1.1552 O.3     
  14 *14           -2.0619     2.2510    -0.9849 Du      
  15 C15            1.7655    -1.5794     0.8307 C.2     
  16 O16            2.4395    -1.4902     1.8296 O.2     
  17 O17            1.2485    -2.7656     0.4737 O.3     
  18 C18            1.5401    -3.8978     1.3346 C.3     
  19 C19            0.8814    -5.1341     0.7790 C.ar    
  20 C20            1.5619    -5.9362    -0.1178 C.ar    
  21 C21            0.9576    -7.0702    -0.6275 C.ar    
  22 C22           -0.3270    -7.4024    -0.2400 C.ar    
  23 C23           -1.0073    -6.6008     0.6576 C.ar    
  24 C24           -0.4014    -5.4691     1.1706 C.ar    
  25 H25           -0.5048     1.9113     0.9131 H       
  26 H26           -0.4735    -0.3974     0.9004 H       
  27 H27            1.8451    -0.5248    -1.0366 H       
  28 H28            1.1139     4.0040     0.4849 H       
  29 H29            1.4030     2.9564     1.8946 H       
  30 H30            3.3100     4.2985     1.3772 H       
  31 H31            2.6183    -4.0505     1.3814 H       
  32 H32            1.1572    -3.7009     2.3360 H       
  33 H33            2.5656    -5.6767    -0.4206 H       
  34 H34            1.4891    -7.6965    -1.3287 H       
  35 H35           -0.7994    -8.2880    -0.6387 H       
  36 H36           -2.0111    -6.8601     0.9601 H       
  37 H37           -0.9314    -4.8448     1.8747 H       
@<TRIPOS>BOND
   1    1    2 1
   2    1    5 1
   3    1   13 1
   4    1   25 1
   5    2    3 1
   6    2    8 1
   7    2   26 1
   8    3    4 1
   9    3   15 1
  10    3   27 1
  11    4    5 1
  12    5    6 1
  13    5   10 1
  14    6    7 1
  15    6   28 1
  16    6   29 1
  17    7   30 1
  18    8    9 1
  19   10   11 2
  20   11   12 2
  21   13   14 1
  22   15   16 2
  23   15   17 1
  24   17   18 1
  25   18   19 1
  26   18   31 1
  27   18   32 1
  28   19   20 ar
  29   19   24 ar
  30   20   21 ar
  31   20   33 1
  32   21   22 ar
  33   21   34 1
  34   22   23 ar
  35   22   35 1
  36   23   24 ar
  37   23   36 1
  38   24   37 1

#	End of record

