#	Name: ASD03331356
#	Creating user name:	WinNT
#	Creation time:	15. 06. 2019 20:39

#	Modifying user name:	WinNT
#	Modification time:	15. 06. 2019 20:39

#	Program:	/corina/corina34_cracker 3.40 0067  02.08.2006

@<TRIPOS>MOLECULE
ASD03331356
  57   59    0    0    0
SMALL
NO_CHARGES


@<TRIPOS>ATOM
   1 N1            -0.2571     1.5587    -0.6100 N.2     
   2 N2            -0.1327     0.1795    -0.3781 N.am    
   3 C3             1.1842    -0.1002    -0.2404 C.2     
   4 C4             1.8744     1.0587    -0.3775 C.2     
   5 C5             0.9501     2.0880    -0.6100 C.2     
   6 C6             3.3773     1.1392    -0.2806 C.3     
   7 C7             1.8544    -1.4273     0.0176 C.3     
   8 C8             3.3471    -1.2676    -0.3067 C.3     
   9 O9             3.8486    -0.0793     0.3110 O.3     
  10 C10           -1.1447    -0.7076    -0.3048 C.2     
  11 O11           -0.9096    -1.8815    -0.0979 O.2     
  12 N12           -2.4174    -0.2925    -0.4611 N.am    
  13 C13           -4.6991    -0.7361    -1.1582 C.2     
  14 C14           -3.5173    -1.2568    -0.3814 C.3     
  15 C15           -3.9165    -1.4554     1.0822 C.3     
  16 C16           -4.3188    -0.1094     1.6882 C.3     
  17 O17           -4.7622     0.4391    -1.4509 O.2     
  18 C18           -5.0982    -2.4241     1.1616 C.3     
  19 C19           -2.7318    -2.0314     1.8603 C.3     
  20 N20           -5.6858    -1.5765    -1.5278 N.am    
  21 C21           -6.8717    -1.0573    -2.2136 C.3     
  22 C22           -7.8299    -2.2103    -2.5191 C.3     
  23 O23           -8.3140    -2.7647    -1.2942 O.3     
  24 C24            1.2743     3.5205    -0.8198 C.ar    
  25 C25            0.5491     4.5080    -0.1512 C.ar    
  26 C26            0.8559     5.8410    -0.3501 C.ar    
  27 C27            1.8790     6.1970    -1.2095 C.ar    
  28 C28            2.6020     5.2211    -1.8756 C.ar    
  29 C29            2.3073     3.8846    -1.6802 C.ar    
  30 F30            3.6001     5.5759    -2.7142 F       
  31 F31           -0.4510     4.1616     0.6884 F       
  32 H32            3.8051     1.2550    -1.2764 H       
  33 H33            3.6614     1.9862     0.3440 H       
  34 H34            1.7315    -1.7060     1.0641 H       
  35 H35            1.4170    -2.1928    -0.6233 H       
  36 H36            3.8948    -2.1314     0.0703 H       
  37 H37            3.4785    -1.1985    -1.3866 H       
  38 H38           -2.6050     0.6447    -0.6262 H       
  39 H39           -3.1966    -2.2095    -0.8030 H       
  40 H40           -5.1629     0.3009     1.1338 H       
  41 H41           -4.6032    -0.2509     2.7309 H       
  42 H42           -3.4770     0.5807     1.6316 H       
  43 H43           -4.7964    -3.3977     0.7755 H       
  44 H44           -5.4145    -2.5269     2.1996 H       
  45 H45           -5.9254    -2.0376     0.5662 H       
  46 H46           -1.8899    -1.3413     1.8037 H       
  47 H47           -3.0162    -2.1729     2.9030 H       
  48 H48           -2.4452    -2.9903     1.4285 H       
  49 H49           -5.6108    -2.5251    -1.3396 H       
  50 H50           -7.3714    -0.3293    -1.5745 H       
  51 H51           -6.5717    -0.5776    -3.1452 H       
  52 H52           -8.6695    -1.8390    -3.1068 H       
  53 H53           -7.3037    -2.9802    -3.0835 H       
  54 H54           -8.9282    -3.5022    -1.4119 H       
  55 H55            0.2951     6.6060     0.1665 H       
  56 H56            2.1151     7.2398    -1.3622 H       
  57 H57            2.8743     3.1244    -2.1969 H       
@<TRIPOS>BOND
   1    1    2 1
   2    1    5 2
   3    2    3 1
   4    2   10 am
   5    3    4 2
   6    3    7 1
   7    4    5 1
   8    4    6 1
   9    5   24 1
  10    6    9 1
  11    6   32 1
  12    6   33 1
  13    7    8 1
  14    7   34 1
  15    7   35 1
  16    8    9 1
  17    8   36 1
  18    8   37 1
  19   10   11 2
  20   10   12 am
  21   12   14 1
  22   12   38 1
  23   13   17 2
  24   13   20 am
  25   13   14 1
  26   14   15 1
  27   14   39 1
  28   15   16 1
  29   15   18 1
  30   15   19 1
  31   16   40 1
  32   16   41 1
  33   16   42 1
  34   18   43 1
  35   18   44 1
  36   18   45 1
  37   19   46 1
  38   19   47 1
  39   19   48 1
  40   20   21 1
  41   20   49 1
  42   21   22 1
  43   21   50 1
  44   21   51 1
  45   22   23 1
  46   22   52 1
  47   22   53 1
  48   23   54 1
  49   24   25 ar
  50   24   29 ar
  51   25   26 ar
  52   25   31 1
  53   26   27 ar
  54   26   55 1
  55   27   28 ar
  56   27   56 1
  57   28   29 ar
  58   28   30 1
  59   29   57 1

#	End of record

