#	Name: ASD00071003
#	Creating user name:	WinNT
#	Creation time:	15. 06. 2019 18:30

#	Modifying user name:	WinNT
#	Modification time:	15. 06. 2019 18:30

#	Program:	/corina/corina34_cracker 3.40 0067  02.08.2006

@<TRIPOS>MOLECULE
ASD00071003
  37   39    0    0    0
SMALL
NO_CHARGES


@<TRIPOS>ATOM
   1 C1            -0.0270     1.3966     0.1564 C.ar    
   2 C2            -0.0140     0.0182     0.0067 C.ar    
   3 C3             1.1912    -0.6484    -0.1493 C.ar    
   4 C4             2.3818     0.0650    -0.1553 C.ar    
   5 C5             2.3663     1.4383    -0.0055 C.ar    
   6 C6             1.1659     2.1053     0.1497 C.ar    
   7 O7            -1.2074     2.0536     0.3039 O.3     
   8 O8             1.2072    -1.9993    -0.2957 O.3     
   9 C9             2.4849    -2.6199    -0.4519 C.3     
  10 C10           -1.3081    -0.7539     0.0142 C.3     
  11 N11           -3.4041    -1.8490    -2.8840 N.ar    
  12 C12           -2.9413    -1.6937    -1.6608 C.ar    
  13 C13           -1.8086    -0.9091    -1.3988 C.ar    
  14 C14           -1.1621    -0.2872    -2.4238 C.ar    
  15 C15           -1.6627    -0.4575    -3.7310 C.ar    
  16 C16           -1.0452     0.1541    -4.8325 C.ar    
  17 C17           -1.5564    -0.0332    -6.0814 C.ar    
  18 C18           -2.6852    -0.8240    -6.2796 C.ar    
  19 C19           -3.3092    -1.4317    -5.2329 C.ar    
  20 C20           -2.8107    -1.2627    -3.9303 C.ar    
  21 N21           -3.5890    -2.3208    -0.6070 N.pl3   
  22 H22            3.3211    -0.4540    -0.2768 H       
  23 H23            3.2938     1.9916    -0.0101 H       
  24 H24            1.1564     3.1789     0.2663 H       
  25 H25           -1.4922     2.1491     1.2231 H       
  26 H26            2.3551    -3.6969    -0.5587 H       
  27 H27            2.9753    -2.2232    -1.3407 H       
  28 H28            3.0988    -2.4131     0.4248 H       
  29 H29           -1.1412    -1.7387     0.4507 H       
  30 H30           -2.0491    -0.2155     0.6050 H       
  31 H31           -0.2888     0.3210    -2.2399 H       
  32 H32           -0.1696     0.7703    -4.6910 H       
  33 H33           -1.0802     0.4381    -6.9284 H       
  34 H34           -3.0720    -0.9573    -7.2791 H       
  35 H35           -4.1842    -2.0413    -5.4035 H       
  36 H36           -4.4189    -2.7982    -0.7630 H       
  37 H37           -3.2123    -2.2819     0.2860 H       
@<TRIPOS>BOND
   1    1    2 ar
   2    1    6 ar
   3    1    7 1
   4    2    3 ar
   5    2   10 1
   6    3    4 ar
   7    3    8 1
   8    4    5 ar
   9    4   22 1
  10    5    6 ar
  11    5   23 1
  12    6   24 1
  13    7   25 1
  14    8    9 1
  15    9   26 1
  16    9   27 1
  17    9   28 1
  18   10   13 1
  19   10   29 1
  20   10   30 1
  21   11   12 ar
  22   11   20 ar
  23   12   13 ar
  24   12   21 1
  25   13   14 ar
  26   14   15 ar
  27   14   31 1
  28   15   16 ar
  29   15   20 ar
  30   16   17 ar
  31   16   32 1
  32   17   18 ar
  33   17   33 1
  34   18   19 ar
  35   18   34 1
  36   19   20 ar
  37   19   35 1
  38   21   36 1
  39   21   37 1

#	End of record

