#	Name: ASD02500193
#	Creating user name:	WinNT
#	Creation time:	15. 06. 2019 20:22

#	Modifying user name:	WinNT
#	Modification time:	15. 06. 2019 20:22

#	Program:	/corina/corina34_cracker 3.40 0067  02.08.2006

@<TRIPOS>MOLECULE
ASD02500193
  66   70    0    0    0
SMALL
NO_CHARGES


@<TRIPOS>ATOM
   1 N1            -5.1274     4.9603     0.7246 N.ar    
   2 C2            -6.3347     5.4405     0.5512 C.ar    
   3 C3            -7.4046     5.0405     1.3492 C.ar    
   4 C4            -7.2086     4.1244     2.3430 C.ar    
   5 C5            -5.9108     3.6105     2.5261 C.ar    
   6 C6            -5.6328     2.6663     3.5271 C.ar    
   7 C7            -4.3640     2.1936     3.6725 C.ar    
   8 C8            -3.3371     2.6349     2.8410 C.ar    
   9 C9            -3.5712     3.5494     1.8605 C.ar    
  10 C10           -4.8678     4.0609     1.6790 C.ar    
  11 S11           -2.2537     4.0908     0.8232 S.o2    
  12 O12           -2.2889     5.5112     0.8384 O.2     
  13 O13           -1.1097     3.3375     1.2016 O.2     
  14 N14           -2.6264     3.6302    -0.7232 N.am    
  15 C15           -2.6532     2.2813    -1.0595 C.ar    
  16 C16           -2.2732     1.8759    -2.3362 C.ar    
  17 C17           -2.2987     0.5419    -2.6721 C.ar    
  18 C18           -2.7067    -0.4070    -1.7298 C.ar    
  19 C19           -3.0875     0.0031    -0.4490 C.ar    
  20 C20           -3.0545     1.3385    -0.1173 C.ar    
  21 C21           -1.8341     2.8995    -3.3514 C.3     
  22 C22           -2.7356    -1.8381    -2.0868 C.2     
  23 O23           -3.1717    -2.1865    -3.1670 O.2     
  24 N24           -2.2787    -2.7593    -1.2155 N.am    
  25 C25           -2.2115    -4.1779    -1.5937 C.3     
  26 C26           -0.7758    -4.6740    -1.3822 C.3     
  27 N27           -0.3354    -4.2778    -0.0372 N.am    
  28 C28           -0.4025    -2.8593     0.3409 C.3     
  29 C29           -1.8331    -2.3624     0.1275 C.3     
  30 C30            0.1215    -5.1991     0.8340 C.2     
  31 C31            0.6644    -4.7735     2.1453 C.ar    
  32 C32            0.4831    -5.5610     3.2876 C.ar    
  33 C33            1.0047    -5.1299     4.4906 C.ar    
  34 N34            1.6670    -3.9926     4.5746 N.ar    
  35 C35            1.8624    -3.2169     3.5221 C.ar    
  36 C36            1.3755    -3.5789     2.2731 C.ar    
  37 O37            0.0883    -6.3786     0.5441 O.2     
  38 O38            2.5506    -2.0560     3.6630 O.3     
  39 C39            3.0304    -1.7411     4.9716 C.3     
  40 H40           -6.5046     6.1657    -0.2309 H       
  41 H41           -8.3879     5.4548     1.1822 H       
  42 H42           -8.0264     3.8034     2.9711 H       
  43 H43           -6.4205     2.3172     4.1783 H       
  44 H44           -4.1510     1.4672     4.4429 H       
  45 H45           -2.3390     2.2454     2.9769 H       
  46 H46           -2.8260     4.3015    -1.3944 H       
  47 H47           -2.0042     0.2281    -3.6626 H       
  48 H48           -3.4032    -0.7275     0.2811 H       
  49 H49           -3.3441     1.6555     0.8736 H       
  50 H50           -0.7568     3.0473    -3.2757 H       
  51 H51           -2.0831     2.5481    -4.3527 H       
  52 H52           -2.3447     3.8432    -3.1601 H       
  53 H53           -2.8937    -4.7555    -0.9699 H       
  54 H54           -2.4867    -4.2904    -2.6423 H       
  55 H55           -0.7471    -5.7599    -1.4715 H       
  56 H56           -0.1201    -4.2256    -2.1287 H       
  57 H57           -0.1274    -2.7468     1.3896 H       
  58 H58            0.2797    -2.2817    -0.2829 H       
  59 H59           -1.8584    -1.2763     0.2152 H       
  60 H60           -2.4877    -2.8078     0.8766 H       
  61 H61           -0.0581    -6.4938     3.2288 H       
  62 H62            0.8681    -5.7328     5.3762 H       
  63 H63            1.5409    -2.9444     1.4149 H       
  64 H64            3.5616    -0.7896     4.9446 H       
  65 H65            2.1881    -1.6675     5.6595 H       
  66 H66            3.7076    -2.5258     5.3090 H       
@<TRIPOS>BOND
   1    1    2 ar
   2    1   10 ar
   3    2    3 ar
   4    2   40 1
   5    3    4 ar
   6    3   41 1
   7    4    5 ar
   8    4   42 1
   9    5    6 ar
  10    5   10 ar
  11    6    7 ar
  12    6   43 1
  13    7    8 ar
  14    7   44 1
  15    8    9 ar
  16    8   45 1
  17    9   10 ar
  18    9   11 1
  19   11   12 2
  20   11   13 2
  21   11   14 am
  22   14   15 1
  23   14   46 1
  24   15   16 ar
  25   15   20 ar
  26   16   17 ar
  27   16   21 1
  28   17   18 ar
  29   17   47 1
  30   18   19 ar
  31   18   22 1
  32   19   20 ar
  33   19   48 1
  34   20   49 1
  35   21   50 1
  36   21   51 1
  37   21   52 1
  38   22   23 2
  39   22   24 am
  40   24   25 1
  41   24   29 1
  42   25   26 1
  43   25   53 1
  44   25   54 1
  45   26   27 1
  46   26   55 1
  47   26   56 1
  48   27   28 1
  49   27   30 am
  50   28   29 1
  51   28   57 1
  52   28   58 1
  53   29   59 1
  54   29   60 1
  55   30   31 1
  56   30   37 2
  57   31   32 ar
  58   31   36 ar
  59   32   33 ar
  60   32   61 1
  61   33   34 ar
  62   33   62 1
  63   34   35 ar
  64   35   36 ar
  65   35   38 1
  66   36   63 1
  67   38   39 1
  68   39   64 1
  69   39   65 1
  70   39   66 1

#	End of record

