#	Name: ASD04840096
#	Creating user name:	WinNT
#	Creation time:	15. 06. 2019 20:52

#	Modifying user name:	WinNT
#	Modification time:	15. 06. 2019 20:52

#	Program:	/corina/corina34_cracker 3.40 0067  02.08.2006

@<TRIPOS>MOLECULE
ASD04840096
  39   41    0    0    0
SMALL
NO_CHARGES


@<TRIPOS>ATOM
   1 C1             0.3012     1.2987     0.2340 C.ar    
   2 C2             0.0750    -0.0989     0.1192 C.ar    
   3 N3             2.3889    -0.3487    -0.2712 N.ar    
   4 C4             2.5456     0.9496    -0.1562 C.ar    
   5 N5             1.5336     1.7622     0.0902 N.ar    
   6 C6            -1.1500    -0.8617     0.2291 C.2     
   7 C7            -1.0019    -2.1763     0.0641 C.2     
   8 S8             0.6734    -2.5927    -0.2436 S.3     
   9 C9             1.1815    -0.9134    -0.1423 C.ar    
  10 N10           -0.7491     2.1621     0.4860 N.pl3   
  11 C11           -0.4876     3.5834     0.7260 C.3     
  12 P12           -0.6734     4.5074    -0.8345 P.3     
  13 O13           -0.5154     6.0836    -0.5469 O.3     
  14 O14            0.4603     4.0356    -1.8757 O.3     
  15 O15           -2.0115     4.2423    -1.4085 O.2     
  16 C16           -2.1070    -3.1561     0.1319 C.ar    
  17 C17           -3.2859    -2.9332    -0.5811 C.ar    
  18 C18           -4.3131    -3.8517    -0.5139 C.ar    
  19 C19           -4.1764    -4.9918     0.2580 C.ar    
  20 C20           -3.0103    -5.2187     0.9671 C.ar    
  21 C21           -1.9735    -4.3108     0.9044 C.ar    
  22 C22           -5.3029    -5.9905     0.3270 C.3     
  23 C23           -2.4854    -0.2216     0.5082 C.3     
  24 H24            3.5354     1.3675    -0.2663 H       
  25 H25           -1.6591     1.8266     0.5039 H       
  26 H26           -1.1971     3.9644     1.4605 H       
  27 H27            0.5276     3.7074     1.1031 H       
  28 H28           -0.6030     6.6378    -1.3345 H       
  29 H29            1.3645     4.1797    -1.5647 H       
  30 H30           -3.3940    -2.0435    -1.1837 H       
  31 H31           -5.2261    -3.6803    -1.0648 H       
  32 H32           -2.9099    -6.1106     1.5678 H       
  33 H33           -1.0620    -4.4913     1.4549 H       
  34 H34           -5.1810    -6.7308    -0.4637 H       
  35 H35           -5.2879    -6.4886     1.2964 H       
  36 H36           -6.2543    -5.4746     0.1982 H       
  37 H37           -2.9120     0.1501    -0.4234 H       
  38 H38           -3.1575    -0.9594     0.9466 H       
  39 H39           -2.3528     0.6074     1.2033 H       
@<TRIPOS>BOND
   1    1    2 ar
   2    1    5 ar
   3    1   10 1
   4    2    9 ar
   5    2    6 1
   6    3    4 ar
   7    3    9 ar
   8    4    5 ar
   9    4   24 1
  10    6    7 2
  11    6   23 1
  12    7    8 1
  13    7   16 1
  14    8    9 1
  15   10   11 1
  16   10   25 1
  17   11   12 1
  18   11   26 1
  19   11   27 1
  20   12   13 1
  21   12   14 1
  22   12   15 2
  23   13   28 1
  24   14   29 1
  25   16   17 ar
  26   16   21 ar
  27   17   18 ar
  28   17   30 1
  29   18   19 ar
  30   18   31 1
  31   19   20 ar
  32   19   22 1
  33   20   21 ar
  34   20   32 1
  35   21   33 1
  36   22   34 1
  37   22   35 1
  38   22   36 1
  39   23   37 1
  40   23   38 1
  41   23   39 1

#	End of record

