#	Name: ASD01150914
#	Creating user name:	WinNT
#	Creation time:	15. 06. 2019 19:05

#	Modifying user name:	WinNT
#	Modification time:	15. 06. 2019 19:05

#	Program:	/corina/corina34_cracker 3.40 0067  02.08.2006

@<TRIPOS>MOLECULE
ASD01150914
  51   53    0    0    0
SMALL
NO_CHARGES


@<TRIPOS>ATOM
   1 C1            -0.0179     1.4693     0.0101 C.2     
   2 C2             0.0021    -0.0041     0.0020 C.2     
   3 N3             0.0001    -0.6716    -1.1688 N.am    
   4 O4             0.0204    -0.6177     1.0517 O.2     
   5 C5             0.0189    -2.0615    -1.1765 C.2     
   6 N6             0.0394    -2.8543    -0.1023 N.2     
   7 C7             0.0525    -4.1180    -0.4744 C.2     
   8 N8             0.0406    -4.1878    -1.8306 N.pl3   
   9 C9             0.0137    -2.8744    -2.3031 C.2     
  10 C10           -0.0068    -2.4578    -3.6493 C.2     
  11 O11           -0.0011    -3.3754    -4.6403 O.3     
  12 O12           -0.0295    -1.2704    -3.9190 O.2     
  13 C13           -0.0228    -2.8821    -5.9813 C.3     
  14 C14           -0.0127    -4.0597    -6.9581 C.3     
  15 S15            0.0814    -5.5011     0.6168 S.3     
  16 C16            0.0849    -4.6439     2.2109 C.3     
  17 C17            0.0496    -5.4075    -2.6420 C.3     
  18 C18           -1.3679    -5.8449    -2.9073 C.ar    
  19 C19           -2.0360    -5.3825    -4.0257 C.ar    
  20 C20           -3.3363    -5.7837    -4.2690 C.ar    
  21 C21           -3.9683    -6.6475    -3.3942 C.ar    
  22 C22           -3.2999    -7.1106    -2.2763 C.ar    
  23 C23           -1.9981    -6.7128    -2.0353 C.ar    
  24 C24            1.0445     2.3404     0.0047 C.2     
  25 O25            0.5228     3.5691     0.0162 O.3     
  26 N26           -0.6837     3.5722     0.0278 N.2     
  27 C27           -1.1805     2.3708     0.0196 C.2     
  28 C28            2.5078     1.9804    -0.0113 C.3     
  29 C29           -2.6370     1.9839     0.0288 C.3     
  30 H30           -0.0145    -0.1822    -2.0061 H       
  31 H31           -0.9245    -2.2895    -6.1359 H       
  32 H32            0.8551    -2.2595    -6.1536 H       
  33 H33           -0.0292    -3.6834    -7.9809 H       
  34 H34            0.8890    -4.6522    -6.8034 H       
  35 H35           -0.8906    -4.6823    -6.7857 H       
  36 H36            0.1024    -5.3767     3.0175 H       
  37 H37            0.9671    -4.0073     2.2792 H       
  38 H38           -0.8126    -4.0313     2.2960 H       
  39 H39            0.5523    -5.2103    -3.5889 H       
  40 H40            0.5790    -6.1960    -2.1070 H       
  41 H41           -1.5422    -4.7076    -4.7091 H       
  42 H42           -3.8585    -5.4219    -5.1424 H       
  43 H43           -4.9845    -6.9603    -3.5840 H       
  44 H44           -3.7938    -7.7852    -1.5927 H       
  45 H45           -1.4759    -7.0746    -1.1619 H       
  46 H46            2.8508     1.8991    -1.0427 H       
  47 H47            3.0781     2.7550     0.5013 H       
  48 H48            2.6529     1.0266     0.4961 H       
  49 H49           -2.9977     1.9020    -0.9965 H       
  50 H50           -2.7549     1.0248     0.5332 H       
  51 H51           -3.2117     2.7450     0.5565 H       
@<TRIPOS>BOND
   1    1    2 1
   2    1   24 2
   3    1   27 1
   4    2    3 am
   5    2    4 2
   6    3    5 1
   7    3   30 1
   8    5    6 1
   9    5    9 2
  10    6    7 2
  11    7    8 1
  12    7   15 1
  13    8    9 1
  14    8   17 1
  15    9   10 1
  16   10   11 1
  17   10   12 2
  18   11   13 1
  19   13   14 1
  20   13   31 1
  21   13   32 1
  22   14   33 1
  23   14   34 1
  24   14   35 1
  25   15   16 1
  26   16   36 1
  27   16   37 1
  28   16   38 1
  29   17   18 1
  30   17   39 1
  31   17   40 1
  32   18   19 ar
  33   18   23 ar
  34   19   20 ar
  35   19   41 1
  36   20   21 ar
  37   20   42 1
  38   21   22 ar
  39   21   43 1
  40   22   23 ar
  41   22   44 1
  42   23   45 1
  43   24   25 1
  44   24   28 1
  45   25   26 1
  46   26   27 2
  47   27   29 1
  48   28   46 1
  49   28   47 1
  50   28   48 1
  51   29   49 1
  52   29   50 1
  53   29   51 1

#	End of record

