#	Name: ASD01240029
#	Creating user name:	WinNT
#	Creation time:	15. 06. 2019 19:15

#	Modifying user name:	WinNT
#	Modification time:	15. 06. 2019 19:15

#	Program:	/corina/corina34_cracker 3.40 0067  02.08.2006

@<TRIPOS>MOLECULE
ASD01240029
  31   33    0    0    0
SMALL
NO_CHARGES


@<TRIPOS>ATOM
   1 O1            -0.2867    -0.0734    -0.6948 O.2     
   2 C2            -0.1603     1.1082    -0.4311 C.2     
   3 N3             1.0236     1.7875    -0.4251 N.am    
   4 C4             0.7620     3.1294     0.0483 C.3     
   5 C5            -0.7011     3.3718    -0.4366 C.3     
   6 C6            -1.2724     2.0263    -0.0744 C.2     
   7 C7            -2.4816     1.7295     0.4470 C.2     
   8 C8            -2.7767     0.3575     0.8845 C.ar    
   9 C9            -1.7480    -0.4650     1.3580 C.ar    
  10 C10           -2.0296    -1.7499     1.7672 C.ar    
  11 Br11          -0.6411    -2.8623     2.4078 Br      
  12 C12           -3.3335    -2.2301     1.7105 C.ar    
  13 C13           -4.3591    -1.4166     1.2409 C.ar    
  14 C14           -4.0883    -0.1286     0.8343 C.ar    
  15 Br15          -6.1292    -2.0776     1.1665 Br      
  16 O16           -3.6061    -3.4972     2.1146 O.3     
  17 C17           -1.1852     4.5626     0.3251 C.2     
  18 C18           -0.3153     5.5889     0.4010 C.2     
  19 C19            1.0035     5.4911    -0.2572 C.2     
  20 C20            1.5697     4.2801    -0.4378 C.2     
  21 I21           -0.8339     7.3248     1.4530 I       
  22 H22            1.8867     1.4336    -0.6908 H       
  23 H23            0.7781     3.1323     1.1382 H       
  24 H24           -0.7435     3.5372    -1.5132 H       
  25 H25           -3.2322     2.5001     0.5428 H       
  26 H26           -0.7350    -0.0932     1.4020 H       
  27 H27           -4.8854     0.5024     0.4697 H       
  28 H28           -3.8286    -3.5716     3.0527 H       
  29 H29           -2.1631     4.5984     0.7822 H       
  30 H30            1.5112     6.3837    -0.5919 H       
  31 H31            2.5372     4.1552    -0.9011 H       
@<TRIPOS>BOND
   1    1    2 2
   2    2    3 am
   3    2    6 1
   4    3    4 1
   5    3   22 1
   6    4    5 1
   7    4   20 1
   8    4   23 1
   9    5    6 1
  10    5   17 1
  11    5   24 1
  12    6    7 2
  13    7    8 1
  14    7   25 1
  15    8    9 ar
  16    8   14 ar
  17    9   10 ar
  18    9   26 1
  19   10   11 1
  20   10   12 ar
  21   12   13 ar
  22   12   16 1
  23   13   14 ar
  24   13   15 1
  25   14   27 1
  26   16   28 1
  27   17   18 2
  28   17   29 1
  29   18   19 1
  30   18   21 1
  31   19   20 2
  32   19   30 1
  33   20   31 1

#	End of record

