#	Name: ASD01148364
#	Creating user name:	WinNT
#	Creation time:	15. 06. 2019 19:02

#	Modifying user name:	WinNT
#	Modification time:	15. 06. 2019 19:02

#	Program:	/corina/corina34_cracker 3.40 0067  02.08.2006

@<TRIPOS>MOLECULE
ASD01148364
  58   61    0    0    0
SMALL
NO_CHARGES


@<TRIPOS>ATOM
   1 C1            -0.4092     1.8295    -0.0445 C.ar    
   2 C2            -0.4701     0.4500     0.0151 C.ar    
   3 C3             0.6947    -0.2906     0.0939 C.ar    
   4 C4             1.9201     0.3484     0.1126 C.ar    
   5 C5             1.9811     1.7283     0.0520 C.ar    
   6 C6             0.8166     2.4688    -0.0253 C.ar    
   7 C7             3.3171     2.4252     0.0734 C.3     
   8 O8             4.3320     1.6147    -0.5531 O.3     
   9 C9             3.3045     3.6750    -0.8388 C.3     
  10 C10            3.8469     3.1333    -2.1477 C.2     
  11 N11            4.3980     1.9894    -1.9148 N.2     
  12 C12            3.7591     3.7994    -3.4620 C.ar    
  13 C13            4.3035     3.1866    -4.5938 C.ar    
  14 C14            3.1268     5.0399    -3.5756 C.ar    
  15 C15            3.0450     5.6611    -4.8016 C.ar    
  16 C16            3.5943     5.0511    -5.9316 C.ar    
  17 C17            4.2217     3.8079    -5.8192 C.ar    
  18 C18            3.5061     5.7179    -7.2477 C.2     
  19 O19            4.0788     5.2433    -8.2091 O.2     
  20 N20            2.7906     6.8522    -7.3818 N.am    
  21 C21            4.8143     3.1499    -7.0386 C.3     
  22 C22            3.7164     2.7940     1.5036 C.3     
  23 F23            3.7866     1.6337     2.2821 F       
  24 F24            4.9656     3.4236     1.4913 F       
  25 F25            2.7620     3.6619     2.0451 F       
  26 N26            2.7069     7.4843    -8.6293 N.pl3   
  27 C27            1.8562     6.9206    -9.6805 C.3     
  28 C28            3.4346     8.6517    -8.8709 C.ar    
  29 C29            3.3528     9.2797   -10.1073 C.ar    
  30 C30            4.0733    10.4342   -10.3427 C.ar    
  31 C31            4.8754    10.9651    -9.3492 C.ar    
  32 C32            4.9595    10.3423    -8.1174 C.ar    
  33 C33            4.2373     9.1907    -7.8735 C.ar    
  34 C34            0.6282    -1.7947     0.1600 C.3     
  35 F35           -0.7091    -2.2043     0.1270 F       
  36 F36            1.3100    -2.3401    -0.9331 F       
  37 F37            1.2219    -2.2361     1.3474 F       
  38 H38           -1.3189     2.4079    -0.1106 H       
  39 H39           -1.4276    -0.0493     0.0005 H       
  40 H40            2.8299    -0.2301     0.1749 H       
  41 H41            0.8642     3.5467    -0.0723 H       
  42 H42            2.2893     4.0506    -0.9665 H       
  43 H43            3.9582     4.4511    -0.4407 H       
  44 H44            4.7888     2.2257    -4.5068 H       
  45 H45            2.7017     5.5114    -2.7019 H       
  46 H46            2.5559     6.6200    -4.8895 H       
  47 H47            2.3336     7.2309    -6.6146 H       
  48 H48            5.8113     3.5515    -7.2197 H       
  49 H49            4.8800     2.0742    -6.8753 H       
  50 H50            4.1802     3.3482    -7.9027 H       
  51 H51            0.8546     7.3436    -9.6030 H       
  52 H52            2.2776     7.1608   -10.6566 H       
  53 H53            1.8035     5.8382    -9.5638 H       
  54 H54            2.7268     8.8654   -10.8837 H       
  55 H55            4.0104    10.9227   -11.3038 H       
  56 H56            5.4378    11.8680    -9.5359 H       
  57 H57            5.5872    10.7593    -7.3438 H       
  58 H58            4.3034     8.7047    -6.9112 H       
@<TRIPOS>BOND
   1    1    2 ar
   2    1    6 ar
   3    1   38 1
   4    2    3 ar
   5    2   39 1
   6    3    4 ar
   7    3   34 1
   8    4    5 ar
   9    4   40 1
  10    5    6 ar
  11    5    7 1
  12    6   41 1
  13    7    8 1
  14    7    9 1
  15    7   22 1
  16    8   11 1
  17    9   10 1
  18    9   42 1
  19    9   43 1
  20   10   11 2
  21   10   12 1
  22   12   13 ar
  23   12   14 ar
  24   13   17 ar
  25   13   44 1
  26   14   15 ar
  27   14   45 1
  28   15   16 ar
  29   15   46 1
  30   16   17 ar
  31   16   18 1
  32   17   21 1
  33   18   19 2
  34   18   20 am
  35   20   26 1
  36   20   47 1
  37   21   48 1
  38   21   49 1
  39   21   50 1
  40   22   23 1
  41   22   24 1
  42   22   25 1
  43   26   27 1
  44   26   28 1
  45   27   51 1
  46   27   52 1
  47   27   53 1
  48   28   29 ar
  49   28   33 ar
  50   29   30 ar
  51   29   54 1
  52   30   31 ar
  53   30   55 1
  54   31   32 ar
  55   31   56 1
  56   32   33 ar
  57   32   57 1
  58   33   58 1
  59   34   35 1
  60   34   36 1
  61   34   37 1

#	End of record

