#	Name: ASD03330860
#	Creating user name:	WinNT
#	Creation time:	15. 06. 2019 20:38

#	Modifying user name:	WinNT
#	Modification time:	15. 06. 2019 20:38

#	Program:	/corina/corina34_cracker 3.40 0067  02.08.2006

@<TRIPOS>MOLECULE
ASD03330860
  70   72    0    0    0
SMALL
NO_CHARGES


@<TRIPOS>ATOM
   1 N1            -0.6122     0.4552     0.0125 N.pl3   
   2 C2            -0.9087    -0.8671     0.1310 C.2     
   3 C3             0.0749    -1.9616     0.4533 C.3     
   4 N4             0.9023    -1.5450     1.5963 N.3     
   5 C5             2.0888    -0.8110     1.1525 C.3     
   6 C6             1.7863     0.0119    -0.0965 C.3     
   7 C7             0.7096     1.0543     0.2175 C.3     
   8 C8            -1.7664     1.1050    -0.3163 C.2     
   9 N9            -2.7386     0.2251    -0.3807 N.2     
  10 C10           -2.2423    -1.0020    -0.1068 C.2     
  11 C11           -3.0076    -2.2606    -0.0725 C.2     
  12 O12           -2.4454    -3.3073     0.1872 O.2     
  13 N13           -4.3308    -2.2519    -0.3290 N.am    
  14 C14            1.2765    -2.6995     2.4239 C.3     
  15 C15           -6.3136    -3.3721    -1.1673 C.2     
  16 C16           -5.0917    -3.5033    -0.2949 C.3     
  17 C17           -5.5213    -3.7999     1.1432 C.3     
  18 C18           -6.4090    -2.6637     1.6550 C.3     
  19 O19           -6.8107    -2.2818    -1.3546 O.2     
  20 N20           -6.8538    -4.4664    -1.7393 N.am    
  21 C21           -8.1083    -4.3578    -2.4881 C.3     
  22 C22           -6.3031    -5.1146     1.1811 C.3     
  23 C23           -4.2814    -3.9181     2.0318 C.3     
  24 C24           -1.8996     2.5568    -0.5594 C.ar    
  25 C25           -2.6065     3.0207    -1.6755 C.ar    
  26 C26           -2.7275     4.3824    -1.8964 C.ar    
  27 C27           -2.1508     5.2820    -1.0166 C.ar    
  28 C28           -1.4491     4.8259     0.0911 C.ar    
  29 C29           -1.3263     3.4708     0.3255 C.ar    
  30 O30           -3.1716     2.1376    -2.5392 O.3     
  31 C31           -3.9731     2.6807    -3.5902 C.3     
  32 C32           -3.0749     3.0781    -4.7633 C.3     
  33 C33           -4.9843     1.6307    -4.0550 C.3     
  34 F34           -0.8893     5.7106     0.9449 F       
  35 F35           -2.2709     6.6095    -1.2369 F       
  36 H36           -0.4653    -2.8735     0.7077 H       
  37 H37            0.7131    -2.1441    -0.4112 H       
  38 H38            2.4164    -0.1441     1.9500 H       
  39 H39            2.8860    -1.5201     0.9297 H       
  40 H40            2.6942     0.5169    -0.4265 H       
  41 H41            1.4318    -0.6481    -0.8882 H       
  42 H42            0.8280     1.9115    -0.4452 H       
  43 H43            0.8066     1.3774     1.2540 H       
  44 H44           -4.7792    -1.4171    -0.5362 H       
  45 H45            1.7826    -3.4410     1.8056 H       
  46 H46            1.9448    -2.3739     3.2210 H       
  47 H47            0.3797    -3.1405     2.8591 H       
  48 H48           -4.4681    -4.3179    -0.6632 H       
  49 H49           -7.2924    -2.5795     1.0220 H       
  50 H50           -6.7151    -2.8751     2.6796 H       
  51 H51           -5.8521    -1.7272     1.6280 H       
  52 H52           -6.4121    -5.3258    -1.6551 H       
  53 H53           -8.8944    -3.9900    -1.8287 H       
  54 H54           -7.9767    -3.6642    -3.3187 H       
  55 H55           -8.3870    -5.3382    -2.8742 H       
  56 H56           -5.6572    -5.9308     0.8574 H       
  57 H57           -6.6461    -5.3041     2.1982 H       
  58 H58           -7.1628    -5.0454     0.5146 H       
  59 H59           -3.7244    -2.9816     2.0048 H       
  60 H60           -4.5874    -4.1295     3.0564 H       
  61 H61           -3.6489    -4.7276     1.6672 H       
  62 H62           -3.2722     4.7429    -2.7565 H       
  63 H63           -0.7835     3.1186     1.1902 H       
  64 H64           -4.5041     3.5598    -3.2251 H       
  65 H65           -3.6863     3.4923    -5.5650 H       
  66 H66           -2.3546     3.8261    -4.4323 H       
  67 H67           -2.5440     2.1989    -5.1285 H       
  68 H68           -5.6242     1.3476    -3.2192 H       
  69 H69           -5.5957     2.0449    -4.8566 H       
  70 H70           -4.4533     0.7515    -4.4201 H       
@<TRIPOS>BOND
   1    1    2 1
   2    1    7 1
   3    1    8 1
   4    2    3 1
   5    2   10 2
   6    3    4 1
   7    3   36 1
   8    3   37 1
   9    4    5 1
  10    4   14 1
  11    5    6 1
  12    5   38 1
  13    5   39 1
  14    6    7 1
  15    6   40 1
  16    6   41 1
  17    7   42 1
  18    7   43 1
  19    8    9 2
  20    8   24 1
  21    9   10 1
  22   10   11 1
  23   11   12 2
  24   11   13 am
  25   13   16 1
  26   13   44 1
  27   14   45 1
  28   14   46 1
  29   14   47 1
  30   15   19 2
  31   15   20 am
  32   15   16 1
  33   16   17 1
  34   16   48 1
  35   17   18 1
  36   17   22 1
  37   17   23 1
  38   18   49 1
  39   18   50 1
  40   18   51 1
  41   20   21 1
  42   20   52 1
  43   21   53 1
  44   21   54 1
  45   21   55 1
  46   22   56 1
  47   22   57 1
  48   22   58 1
  49   23   59 1
  50   23   60 1
  51   23   61 1
  52   24   25 ar
  53   24   29 ar
  54   25   26 ar
  55   25   30 1
  56   26   27 ar
  57   26   62 1
  58   27   28 ar
  59   27   35 1
  60   28   29 ar
  61   28   34 1
  62   29   63 1
  63   30   31 1
  64   31   32 1
  65   31   33 1
  66   31   64 1
  67   32   65 1
  68   32   66 1
  69   32   67 1
  70   33   68 1
  71   33   69 1
  72   33   70 1

#	End of record

