#	Name: ASD01948195
#	Creating user name:	WinNT
#	Creation time:	15. 06. 2019 20:13

#	Modifying user name:	WinNT
#	Modification time:	15. 06. 2019 20:13

#	Program:	/corina/corina34_cracker 3.40 0067  02.08.2006

@<TRIPOS>MOLECULE
ASD01948195
  76   81    0    0    0
SMALL
NO_CHARGES


@<TRIPOS>ATOM
   1 C1             2.4356     5.3042     5.2468 C.ar    
   2 C2             1.5597     5.8015     6.2248 C.ar    
   3 C3             0.3248     5.1862     6.4433 C.ar    
   4 C4            -0.0336     4.0844     5.6929 C.ar    
   5 C5             0.8321     3.5864     4.7212 C.ar    
   6 C6             2.0643     4.1893     4.4993 C.ar    
   7 F7            -1.2272     3.4869     5.9015 F       
   8 O8             3.5359     6.0861     5.2592 O.3     
   9 C9             3.4234     7.0562     6.1843 C.2     
  10 C10            2.2479     6.9548     6.8185 C.2     
  11 F11           -0.5153     5.6673     7.3856 F       
  12 N12            2.9296     3.6804     3.5181 N.am    
  13 N13            0.4590     2.4659     3.9647 N.pl3   
  14 C14            0.6293     1.1806     4.4883 C.ar    
  15 C15           -0.4681     0.4715     4.9671 C.ar    
  16 C16            1.8929     0.6067     4.5265 C.ar    
  17 C17            2.0582    -0.6638     5.0441 C.ar    
  18 C18            0.9669    -1.3649     5.5237 C.ar    
  19 C19           -0.2954    -0.7990     5.4834 C.ar    
  20 I20            1.2241    -3.2913     6.3059 I       
  21 F21           -1.7003     1.0241     4.9276 F       
  22 C22            5.4842     4.6077     3.9003 C.3     
  23 C23            5.7959     3.2341     4.4977 C.3     
  24 C24            5.9333     2.2075     3.3716 C.3     
  25 O25            7.0240     2.5733     2.5240 O.3     
  26 C26            6.1950     0.8245     3.9714 C.3     
  27 O27            6.2034    -0.1530     2.9291 O.3     
  28 C28            5.7682     5.8361     4.7672 C.3     
  29 C29            6.6676     5.5198     3.5706 C.3     
  30 C30            6.6360     3.3107     1.3630 C.3     
  31 C31            7.8515     3.5942     0.5185 C.ar    
  32 C32            8.2358     2.6989    -0.4622 C.ar    
  33 C33            8.5788     4.7522     0.7207 C.ar    
  34 C34            9.6938     5.0122    -0.0540 C.ar    
  35 C35           10.0817     4.1140    -1.0305 C.ar    
  36 C36            9.3508     2.9589    -1.2368 C.ar    
  37 C37            6.5532    -1.4673     3.3676 C.3     
  38 C38            6.5236    -2.4127     2.1944 C.ar    
  39 C39            7.6967    -2.7393     1.5402 C.ar    
  40 C40            7.6695    -3.6065     0.4640 C.ar    
  41 C41            6.4693    -4.1475     0.0424 C.ar    
  42 C42            5.2963    -3.8216     0.6972 C.ar    
  43 C43            5.3241    -2.9578     1.7761 C.ar    
  44 S44            4.0433     4.6739     2.8004 S.o2    
  45 O45            4.3318     4.0398     1.5619 O.2     
  46 O46            3.4428     5.9611     2.8420 O.2     
  47 H47            4.1721     7.8079     6.3861 H       
  48 H48            1.8800     7.5933     7.6080 H       
  49 H49            2.8753     2.7468     3.2605 H       
  50 H50            0.0828     2.5825     3.0783 H       
  51 H51            2.7460     1.1527     4.1517 H       
  52 H52            3.0412    -1.1101     5.0738 H       
  53 H53           -1.1455    -1.3490     5.8591 H       
  54 H54            6.7291     3.2851     5.0587 H       
  55 H55            4.9870     2.9359     5.1646 H       
  56 H56            5.0126     2.1823     2.7886 H       
  57 H57            7.1606     0.8247     4.4772 H       
  58 H58            5.4096     0.5847     4.6881 H       
  59 H59            5.0894     6.6840     4.6763 H       
  60 H60            6.1770     5.6656     5.7631 H       
  61 H61            7.6682     5.1412     3.7793 H       
  62 H62            6.5806     6.1596     2.6925 H       
  63 H63            5.9197     2.7272     0.7846 H       
  64 H64            6.1771     4.2516     1.6668 H       
  65 H65            7.6652     1.7962    -0.6229 H       
  66 H66            8.2758     5.4539     1.4837 H       
  67 H67           10.2617     5.9172     0.1036 H       
  68 H68           10.9526     4.3174    -1.6360 H       
  69 H69            9.6538     2.2572    -1.9998 H       
  70 H70            7.5549    -1.4525     3.7971 H       
  71 H71            5.8396    -1.8008     4.1211 H       
  72 H72            8.6344    -2.3167     1.8696 H       
  73 H73            8.5860    -3.8611    -0.0476 H       
  74 H74            6.4480    -4.8245    -0.7988 H       
  75 H75            4.3586    -4.2440     0.3676 H       
  76 H76            4.4077    -2.7032     2.2877 H       
@<TRIPOS>BOND
   1    1    2 ar
   2    1    8 1
   3    1    6 ar
   4    2    3 ar
   5    2   10 1
   6    3    4 ar
   7    3   11 1
   8    4    5 ar
   9    4    7 1
  10    5    6 ar
  11    5   13 1
  12    6   12 1
  13    8    9 1
  14    9   10 2
  15    9   47 1
  16   10   48 1
  17   12   44 am
  18   12   49 1
  19   13   14 1
  20   13   50 1
  21   14   15 ar
  22   14   16 ar
  23   15   21 1
  24   15   19 ar
  25   16   17 ar
  26   16   51 1
  27   17   18 ar
  28   17   52 1
  29   18   19 ar
  30   18   20 1
  31   19   53 1
  32   22   23 1
  33   22   28 1
  34   22   44 1
  35   22   29 1
  36   23   24 1
  37   23   54 1
  38   23   55 1
  39   24   25 1
  40   24   26 1
  41   24   56 1
  42   25   30 1
  43   26   27 1
  44   26   57 1
  45   26   58 1
  46   27   37 1
  47   28   29 1
  48   28   59 1
  49   28   60 1
  50   29   61 1
  51   29   62 1
  52   30   31 1
  53   30   63 1
  54   30   64 1
  55   31   32 ar
  56   31   33 ar
  57   32   36 ar
  58   32   65 1
  59   33   34 ar
  60   33   66 1
  61   34   35 ar
  62   34   67 1
  63   35   36 ar
  64   35   68 1
  65   36   69 1
  66   37   38 1
  67   37   70 1
  68   37   71 1
  69   38   39 ar
  70   38   43 ar
  71   39   40 ar
  72   39   72 1
  73   40   41 ar
  74   40   73 1
  75   41   42 ar
  76   41   74 1
  77   42   43 ar
  78   42   75 1
  79   43   76 1
  80   44   45 2
  81   44   46 2

#	End of record

