#	Name: ASD02508293
#	Creating user name:	WinNT
#	Creation time:	15. 06. 2019 20:24

#	Modifying user name:	WinNT
#	Modification time:	15. 06. 2019 20:24

#	Program:	/corina/corina34_cracker 3.40 0067  02.08.2006

@<TRIPOS>MOLECULE
ASD02508293
  34   34    0    0    0
SMALL
NO_CHARGES


@<TRIPOS>ATOM
   1 C1            -0.0187     1.5258     0.0104 C.3     
   2 C2             0.0021    -0.0041     0.0020 C.3     
   3 C3             1.4167     2.0553    -0.0004 C.3     
   4 N4             0.6043    -0.4911     1.2455 N.am    
   5 S5             1.5329    -1.8622     1.2343 S.o2    
   6 C6             2.9599    -1.5177     0.2597 C.ar    
   7 C7             4.0952    -1.0007     0.8552 C.ar    
   8 C8             5.2147    -0.7304     0.0906 C.ar    
   9 C9             5.1989    -0.9775    -1.2694 C.ar    
  10 C10            4.0639    -1.4953    -1.8648 C.ar    
  11 C11            2.9459    -1.7697    -1.0994 C.ar    
  12 O12            1.9919    -2.0470     2.5664 O.2     
  13 O13            0.7900    -2.8442     0.5249 O.2     
  14 C14            1.3963     3.5622     0.0079 C.2     
  15 O15            0.3418     4.1520     0.0211 O.2     
  16 O16            2.5495     4.2491     0.0005 O.3     
  17 C17           -1.4075    -0.5249    -0.1112 C.2     
  18 O18           -1.8624    -1.2306     0.7577 O.2     
  19 O19           -2.1577    -0.2050    -1.1773 O.3     
  20 N20            6.3973    -0.6871    -2.0883 N.pl3   
  21 O21            7.3973    -0.2305    -1.5638 O.2     
  22 O22            6.3834    -0.9048    -3.2866 O.2     
  23 H23           -0.5459     1.8868    -0.8726 H       
  24 H24           -0.5289     1.8773     0.9072 H       
  25 H25            0.5883    -0.3548    -0.8473 H       
  26 H26            1.9439     1.6943     0.8826 H       
  27 H27            1.9269     1.7038    -0.8972 H       
  28 H28            0.4591    -0.0105     2.0755 H       
  29 H29            4.1075    -0.8077     1.9177 H       
  30 H30            6.1015    -0.3259     0.5557 H       
  31 H31            4.0515    -1.6880    -2.9274 H       
  32 H32            2.0591    -2.1742    -1.5645 H       
  33 H33            2.4858     5.2140     0.0063 H       
  34 H34           -3.0556    -0.5628    -1.2056 H       
@<TRIPOS>BOND
   1    1    2 1
   2    1    3 1
   3    1   23 1
   4    1   24 1
   5    2   17 1
   6    2    4 1
   7    2   25 1
   8    3   14 1
   9    3   26 1
  10    3   27 1
  11    4    5 am
  12    4   28 1
  13    5    6 1
  14    5   12 2
  15    5   13 2
  16    6    7 ar
  17    6   11 ar
  18    7    8 ar
  19    7   29 1
  20    8    9 ar
  21    8   30 1
  22    9   10 ar
  23    9   20 1
  24   10   11 ar
  25   10   31 1
  26   11   32 1
  27   14   15 2
  28   14   16 1
  29   16   33 1
  30   17   18 2
  31   17   19 1
  32   19   34 1
  33   20   21 2
  34   20   22 2

#	End of record

