#	Name: ASD01814577
#	Creating user name:	WinNT
#	Creation time:	15. 06. 2019 19:32

#	Modifying user name:	WinNT
#	Modification time:	15. 06. 2019 19:32

#	Program:	/corina/corina34_cracker 3.40 0067  02.08.2006

@<TRIPOS>MOLECULE
ASD01814577
  62   67    0    0    0
SMALL
NO_CHARGES


@<TRIPOS>ATOM
   1 N1            -0.7334     1.9594    -1.7707 N.2     
   2 C2            -0.9834     0.8283    -2.3871 C.2     
   3 C3            -0.1173     0.3616    -3.3878 C.2     
   4 C4             0.9799     1.0896    -3.7121 C.2     
   5 N5             1.2164     2.2633    -3.0549 N.pl3   
   6 C6             0.3474     2.6867    -2.0828 C.2     
   7 N7             2.2352     3.2162    -3.1568 N.2     
   8 C8             2.0053     4.1810    -2.2891 C.2     
   9 C9             0.8397     3.8931    -1.5992 C.2     
  10 C10            2.5587     5.4890    -1.7794 C.3     
  11 N11            1.6552     5.9788    -0.7337 N.am    
  12 C12            0.5748     4.9955    -0.6062 C.3     
  13 C13            1.7916     7.1166    -0.0244 C.2     
  14 O14            0.9199     7.4575     0.7518 O.2     
  15 C15            2.9978     7.9480    -0.1896 C.ar    
  16 C16            2.8836     9.3416    -0.2993 C.ar    
  17 C17            4.2610     7.3521    -0.2319 C.ar    
  18 C18            5.3846     8.1333    -0.3860 C.ar    
  19 C19            5.2681     9.5118    -0.4995 C.ar    
  20 C20            4.0231    10.1142    -0.4538 C.ar    
  21 O21            1.6623     9.9304    -0.2547 O.3     
  22 C22            1.6314    11.3589    -0.2298 C.3     
  23 Cl23          -0.4473    -1.1351    -4.2032 Cl      
  24 F24            6.3764    10.2698    -0.6499 F       
  25 C25            0.3922    11.4882    -2.3931 C.3     
  26 C26            1.6827    11.8945    -1.6636 C.3     
  27 C27            0.3430    11.8287     0.4517 C.3     
  28 C28           -0.8567    11.4267    -0.4211 C.3     
  29 N29           -0.7365    12.1689    -1.7043 N.3     
  30 C30            0.1503     9.9850    -2.1242 C.3     
  31 C31           -0.6749     9.9444    -0.8211 C.3     
  32 C32           -1.9729    12.0645    -2.4906 C.3     
  33 C33           -3.1267    12.7017    -1.7136 C.3     
  34 O34           -2.8271    14.0752    -1.4572 O.3     
  35 C35           -4.4117    12.6054    -2.5386 C.3     
  36 H36           -1.8591     0.2539    -2.1230 H       
  37 H37            1.6577     0.7457    -4.4795 H       
  38 H38            3.5540     5.3320    -1.3637 H       
  39 H39            2.6074     6.2118    -2.5938 H       
  40 H40           -0.3829     5.4677    -0.8252 H       
  41 H41            0.5642     4.5877     0.4045 H       
  42 H42            4.3561     6.2799    -0.1436 H       
  43 H43            6.3604     7.6716    -0.4182 H       
  44 H44            3.9396    11.1876    -0.5389 H       
  45 H45            2.4920    11.7306     0.3263 H       
  46 H46            0.4297    11.7251    -3.4564 H       
  47 H47            1.7646    12.9813    -1.6446 H       
  48 H48            2.5434    11.4708    -2.1810 H       
  49 H49            0.2557    11.3584     1.4312 H       
  50 H50            0.3646    12.9125     0.5658 H       
  51 H51           -1.8079    11.6149     0.0767 H       
  52 H52           -0.4129     9.5389    -2.9439 H       
  53 H53            1.0994     9.4664    -1.9885 H       
  54 H54           -0.1315     9.4059    -0.0447 H       
  55 H55           -1.6438     9.4783    -1.0001 H       
  56 H56           -1.8443    12.5834    -3.4405 H       
  57 H57           -2.1970    11.0143    -2.6776 H       
  58 H58           -3.2618    12.1766    -0.7681 H       
  59 H59           -3.5167    14.5433    -0.9668 H       
  60 H60           -5.2336    13.0594    -1.9850 H       
  61 H61           -4.2766    13.1305    -3.4841 H       
  62 H62           -4.6402    11.5578    -2.7342 H       
@<TRIPOS>BOND
   1    1    2 2
   2    1    6 1
   3    2    3 1
   4    2   36 1
   5    3    4 2
   6    3   23 1
   7    4    5 1
   8    4   37 1
   9    5    7 1
  10    5    6 1
  11    6    9 2
  12    7    8 2
  13    8   10 1
  14    8    9 1
  15    9   12 1
  16   10   11 1
  17   10   38 1
  18   10   39 1
  19   11   12 1
  20   11   13 am
  21   12   40 1
  22   12   41 1
  23   13   14 2
  24   13   15 1
  25   15   17 ar
  26   15   16 ar
  27   16   20 ar
  28   16   21 1
  29   17   18 ar
  30   17   42 1
  31   18   19 ar
  32   18   43 1
  33   19   20 ar
  34   19   24 1
  35   20   44 1
  36   21   22 1
  37   22   27 1
  38   22   26 1
  39   22   45 1
  40   25   26 1
  41   25   29 1
  42   25   30 1
  43   25   46 1
  44   26   47 1
  45   26   48 1
  46   27   28 1
  47   27   49 1
  48   27   50 1
  49   28   29 1
  50   28   31 1
  51   28   51 1
  52   29   32 1
  53   30   31 1
  54   30   52 1
  55   30   53 1
  56   31   54 1
  57   31   55 1
  58   32   33 1
  59   32   56 1
  60   32   57 1
  61   33   34 1
  62   33   35 1
  63   33   58 1
  64   34   59 1
  65   35   60 1
  66   35   61 1
  67   35   62 1

#	End of record

