#	Name: ASD01883848
#	Creating user name:	WinNT
#	Creation time:	15. 06. 2019 19:47

#	Modifying user name:	WinNT
#	Modification time:	15. 06. 2019 19:47

#	Program:	/corina/corina34_cracker 3.40 0067  02.08.2006

@<TRIPOS>MOLECULE
ASD01883848
  48   52    0    0    0
SMALL
NO_CHARGES


@<TRIPOS>ATOM
   1 O1            -0.0163     1.3537     0.0095 O.3     
   2 C2             0.0132     0.0116     0.2139 C.2     
   3 C3            -0.4156    -1.9094     1.5731 C.2     
   4 C4            -0.4561    -0.5160     1.3843 C.2     
   5 C5             0.5227    -0.8464    -0.7822 C.2     
   6 C6             0.5522    -2.1792    -0.5819 C.2     
   7 N7            -0.5345    -3.9272     2.2522 N.2     
   8 N8            -0.7824    -2.7043     2.5665 N.2     
   9 N9             0.0909    -2.7167     0.5842 N.pl3   
  10 C10           -0.0043    -3.9910     1.0589 C.2     
  11 C11            0.4239    -5.2442     0.3399 C.3     
  12 C12           -0.7472    -5.7857    -0.4825 C.3     
  13 C13           -0.4798    -6.9942    -1.3820 C.3     
  14 C14           -1.3017    -7.1601    -0.1022 C.3     
  15 Cl15          -1.0935     0.5206     2.6225 Cl      
  16 C16            1.2425     2.0218    -0.0953 C.3     
  17 C17            1.0156     3.5083    -0.1941 C.ar    
  18 C18            2.1013     4.3741    -0.3056 C.ar    
  19 C19            1.8842     5.7477    -0.3965 C.ar    
  20 C20            0.5963     6.2430    -0.3755 C.ar    
  21 C21           -0.4782     5.3786    -0.2646 C.ar    
  22 C22           -0.2687     4.0142    -0.1798 C.ar    
  23 C23            3.4839     3.8358    -0.3272 C.ar    
  24 C24            4.3740     4.2342    -1.3224 C.ar    
  25 C25            5.6590     3.7306    -1.3374 C.ar    
  26 C26            6.0636     2.8317    -0.3671 C.ar    
  27 C27            5.1840     2.4324     0.6230 C.ar    
  28 C28            3.8986     2.9344     0.6511 C.ar    
  29 H29            0.8907    -0.4340    -1.7100 H       
  30 H30            0.9443    -2.8274    -1.3517 H       
  31 H31            1.2584    -5.0157    -0.3231 H       
  32 H32            0.7334    -5.9935     1.0685 H       
  33 H33           -1.4554    -5.0385    -0.8407 H       
  34 H34           -1.0123    -7.0422    -2.3318 H       
  35 H35            0.5304    -7.4034    -1.3879 H       
  36 H36           -0.8322    -7.6785     0.7338 H       
  37 H37           -2.3749    -7.3173    -0.2101 H       
  38 H38            1.8441     1.8039     0.7872 H       
  39 H39            1.7653     1.6741    -0.9863 H       
  40 H40            2.7223     6.4234    -0.4828 H       
  41 H41            0.4269     7.3073    -0.4455 H       
  42 H42           -1.4844     5.7705    -0.2482 H       
  43 H43           -1.1111     3.3439    -0.0933 H       
  44 H44            4.0589     4.9354    -2.0809 H       
  45 H45            6.3497     4.0388    -2.1083 H       
  46 H46            7.0699     2.4399    -0.3827 H       
  47 H47            5.5050     1.7301     1.3780 H       
  48 H48            3.2141     2.6257     1.4274 H       
@<TRIPOS>BOND
   1    1    2 1
   2    1   16 1
   3    2    5 1
   4    2    4 2
   5    3    4 1
   6    3    9 1
   7    3    8 2
   8    4   15 1
   9    5    6 2
  10    5   29 1
  11    6    9 1
  12    6   30 1
  13    7    8 1
  14    7   10 2
  15    9   10 1
  16   10   11 1
  17   11   12 1
  18   11   31 1
  19   11   32 1
  20   12   13 1
  21   12   14 1
  22   12   33 1
  23   13   14 1
  24   13   34 1
  25   13   35 1
  26   14   36 1
  27   14   37 1
  28   16   17 1
  29   16   38 1
  30   16   39 1
  31   17   18 ar
  32   17   22 ar
  33   18   19 ar
  34   18   23 1
  35   19   20 ar
  36   19   40 1
  37   20   21 ar
  38   20   41 1
  39   21   22 ar
  40   21   42 1
  41   22   43 1
  42   23   24 ar
  43   23   28 ar
  44   24   25 ar
  45   24   44 1
  46   25   26 ar
  47   25   45 1
  48   26   27 ar
  49   26   46 1
  50   27   28 ar
  51   27   47 1
  52   28   48 1

#	End of record

