#	Name: ASD03731720
#	Creating user name:	WinNT
#	Creation time:	15. 06. 2019 20:46

#	Modifying user name:	WinNT
#	Modification time:	15. 06. 2019 20:46

#	Program:	/corina/corina34_cracker 3.40 0067  02.08.2006

@<TRIPOS>MOLECULE
ASD03731720
  36   37    0    0    0
SMALL
NO_CHARGES


@<TRIPOS>ATOM
   1 C1            -0.7945     1.3895     0.4227 C.2     
   2 C2            -0.5701    -0.0647     0.3059 C.ar    
   3 C3             0.5778    -0.5477    -0.3280 C.ar    
   4 C4             0.7838    -1.9050    -0.4345 C.ar    
   5 C5            -0.1484    -2.7944     0.0876 C.ar    
   6 C6            -1.2919    -2.3178     0.7186 C.ar    
   7 C7            -1.5021    -0.9619     0.8342 C.ar    
   8 O8             0.0200     2.1688    -0.0331 O.2     
   9 N9            -1.9049     1.8534     1.0295 N.am    
  10 S10           -2.1566     3.4849     1.1604 S.o2    
  11 O11           -3.3865     3.5944     1.8637 O.2     
  12 O12           -0.9476     3.9825     1.7171 O.2     
  13 C13           -2.3497     4.0520    -0.5518 C.3     
  14 O14            0.0581    -4.1313    -0.0192 O.3     
  15 C15           -0.4509    -4.7707    -1.1051 C.ar    
  16 C16           -0.3652    -6.1535    -1.2018 C.ar    
  17 C17           -0.8838    -6.8008    -2.3074 C.ar    
  18 C18           -1.4869    -6.0724    -3.3164 C.ar    
  19 C19           -1.5729    -4.6959    -3.2223 C.ar    
  20 C20           -1.0620    -4.0441    -2.1161 C.ar    
  21 C21           -2.2305    -3.9058    -4.3243 C.3     
  22 Cl22           0.3929    -7.0678     0.0643 Cl      
  23 H23            1.3022     0.1426    -0.7342 H       
  24 H24            1.6705    -2.2791    -0.9246 H       
  25 H25           -2.0139    -3.0119     1.1227 H       
  26 H26           -2.3883    -0.5924     1.3287 H       
  27 H27           -2.5566     1.2317     1.3895 H       
  28 H28           -3.1992     3.5446    -1.0089 H       
  29 H29           -2.5215     5.1283    -0.5609 H       
  30 H30           -1.4445     3.8238    -1.1144 H       
  31 H31           -0.8176    -7.8760    -2.3835 H       
  32 H32           -1.8913    -6.5799    -4.1798 H       
  33 H33           -1.1339    -2.9691    -2.0413 H       
  34 H34           -3.2950    -3.8045    -4.1133 H       
  35 H35           -1.7760    -2.9168    -4.3833 H       
  36 H36           -2.0960    -4.4247    -5.2734 H       
@<TRIPOS>BOND
   1    1    2 1
   2    1    8 2
   3    1    9 am
   4    2    3 ar
   5    2    7 ar
   6    3    4 ar
   7    3   23 1
   8    4    5 ar
   9    4   24 1
  10    5    6 ar
  11    5   14 1
  12    6    7 ar
  13    6   25 1
  14    7   26 1
  15    9   10 am
  16    9   27 1
  17   10   11 2
  18   10   12 2
  19   10   13 1
  20   13   28 1
  21   13   29 1
  22   13   30 1
  23   14   15 1
  24   15   16 ar
  25   15   20 ar
  26   16   17 ar
  27   16   22 1
  28   17   18 ar
  29   17   31 1
  30   18   19 ar
  31   18   32 1
  32   19   20 ar
  33   19   21 1
  34   20   33 1
  35   21   34 1
  36   21   35 1
  37   21   36 1

#	End of record

