#	Name: ASD01412029
#	Creating user name:	WinNT
#	Creation time:	15. 06. 2019 19:19

#	Modifying user name:	WinNT
#	Modification time:	15. 06. 2019 19:19

#	Program:	/corina/corina34_cracker 3.40 0067  02.08.2006

@<TRIPOS>MOLECULE
ASD01412029
  81   85    0    0    0
SMALL
NO_CHARGES


@<TRIPOS>ATOM
   1 C1            -1.0689     2.4239     1.4881 C.ar    
   2 C2            -0.6432     1.0905     1.6552 C.ar    
   3 C3            -1.5830     0.0497     1.6478 C.ar    
   4 C4            -2.9049     0.3269     1.4795 C.ar    
   5 C5            -3.3378     1.6505     1.3125 C.ar    
   6 C6            -2.4184     2.6968     1.3216 C.ar    
   7 N7             0.0549     3.2215     1.5383 N.pl3   
   8 C8             1.1573     2.4222     1.7307 C.2     
   9 C9             0.7642     1.1255     1.8053 C.2     
  10 C10            1.6650    -0.0649     2.0116 C.3     
  11 C11            1.2618    -0.7932     3.2954 C.3     
  12 C12            2.1763    -2.0018     3.5048 C.3     
  13 C13            2.0433    -2.9543     2.3149 C.3     
  14 C14            2.4465    -2.2260     1.0312 C.3     
  15 C15            1.5320    -1.0174     0.8217 C.3     
  16 C16           -4.7743     1.9363     1.1310 C.2     
  17 O17           -5.1525     3.0827     0.9860 O.2     
  18 N18           -5.6670     0.9265     1.1259 N.am    
  19 C19           -7.0929     1.2102     0.9457 C.3     
  20 C20           -7.8700    -0.0806     0.9786 C.2     
  21 C21           -7.5770     2.1258     2.0718 C.3     
  22 C22           -7.3090     1.9014    -0.4021 C.3     
  23 C23           -8.0326    -2.4081     0.5344 C.ar    
  24 O24           -8.9786    -0.1086     1.4695 O.2     
  25 C25           -9.4236    -2.4061     0.4891 C.ar    
  26 C26          -10.1180    -3.5923     0.5544 C.ar    
  27 C27           -9.4230    -4.8026     0.6662 C.ar    
  28 C28           -8.0235    -4.7999     0.7110 C.ar    
  29 C29           -7.3375    -3.6087     0.6456 C.ar    
  30 C30          -10.1600    -6.0718     0.7368 C.2     
  31 C31          -11.2239    -6.2809    -0.0692 C.2     
  32 N32           -7.3329    -1.2038     0.4625 N.am    
  33 C33            0.0716     4.6806     1.4075 C.3     
  34 C34            2.5520     2.9005     1.8392 C.ar    
  35 N35            3.4482     2.5303     0.9316 N.ar    
  36 C36            4.7002     2.9347     0.9930 C.ar    
  37 C37            5.1295     3.7649     2.0123 C.ar    
  38 C38            4.2259     4.1762     2.9825 C.ar    
  39 C39            2.9154     3.7421     2.8914 C.ar    
  40 C40            1.8979     4.1619     3.9207 C.3     
  41 C41          -11.4518    -5.4273    -1.1781 C.2     
  42 O42          -10.5849    -4.6536    -1.5383 O.2     
  43 O43          -12.6301    -5.4732    -1.8338 O.3     
  44 H44           -1.2578    -0.9722     1.7754 H       
  45 H45           -3.6253    -0.4778     1.4741 H       
  46 H46           -2.7541     3.7152     1.1933 H       
  47 H47            2.6985     0.2714     2.0940 H       
  48 H48            1.3565    -0.1146     4.1431 H       
  49 H49            0.2282    -1.1295     3.2130 H       
  50 H50            3.2098    -1.6654     3.5872 H       
  51 H51            1.8890    -2.5206     4.4194 H       
  52 H52            2.6948    -3.8153     2.4641 H       
  53 H53            1.0097    -3.2906     2.2325 H       
  54 H54            3.4800    -1.8897     1.1136 H       
  55 H55            2.3517    -2.9046     0.1834 H       
  56 H56            0.4985    -1.3538     0.7393 H       
  57 H57            1.8192    -0.4986    -0.0929 H       
  58 H58           -5.3653     0.0119     1.2415 H       
  59 H59           -7.0150     3.0594     2.0480 H       
  60 H60           -8.6379     2.3369     1.9377 H       
  61 H61           -7.4230     1.6334     3.0320 H       
  62 H62           -6.9641     1.2491    -1.2044 H       
  63 H63           -8.3699     2.1125    -0.5362 H       
  64 H64           -6.7470     2.8350    -0.4259 H       
  65 H65           -9.9588    -1.4720     0.4028 H       
  66 H66          -11.1974    -3.5897     0.5198 H       
  67 H67           -7.4834    -5.7310     0.7976 H       
  68 H68           -6.2581    -3.6057     0.6797 H       
  69 H69           -9.8513    -6.8376     1.4330 H       
  70 H70          -11.9008    -7.0983     0.1312 H       
  71 H71           -6.4597    -1.1747     0.0411 H       
  72 H72            0.0877     5.1340     2.3986 H       
  73 H73            0.9597     4.9856     0.8540 H       
  74 H74           -0.8200     5.0077     0.8727 H       
  75 H75            5.4014     2.6133     0.2370 H       
  76 H76            6.1587     4.0899     2.0534 H       
  77 H77            4.5380     4.8241     3.7883 H       
  78 H78            1.4794     5.1296     3.6443 H       
  79 H79            1.1000     3.4206     3.9662 H       
  80 H80            2.3783     4.2389     4.8961 H       
  81 H81          -12.6922    -4.8551    -2.5749 H       
@<TRIPOS>BOND
   1    1    2 ar
   2    1    7 1
   3    1    6 ar
   4    2    3 ar
   5    2    9 1
   6    3    4 ar
   7    3   44 1
   8    4    5 ar
   9    4   45 1
  10    5    6 ar
  11    5   16 1
  12    6   46 1
  13    7    8 1
  14    7   33 1
  15    8    9 2
  16    8   34 1
  17    9   10 1
  18   10   11 1
  19   10   15 1
  20   10   47 1
  21   11   12 1
  22   11   48 1
  23   11   49 1
  24   12   13 1
  25   12   50 1
  26   12   51 1
  27   13   14 1
  28   13   52 1
  29   13   53 1
  30   14   15 1
  31   14   54 1
  32   14   55 1
  33   15   56 1
  34   15   57 1
  35   16   17 2
  36   16   18 am
  37   18   19 1
  38   18   58 1
  39   19   20 1
  40   19   21 1
  41   19   22 1
  42   20   24 2
  43   20   32 am
  44   21   59 1
  45   21   60 1
  46   21   61 1
  47   22   62 1
  48   22   63 1
  49   22   64 1
  50   23   25 ar
  51   23   29 ar
  52   23   32 1
  53   25   26 ar
  54   25   65 1
  55   26   27 ar
  56   26   66 1
  57   27   28 ar
  58   27   30 1
  59   28   29 ar
  60   28   67 1
  61   29   68 1
  62   30   31 2
  63   30   69 1
  64   31   41 1
  65   31   70 1
  66   32   71 1
  67   33   72 1
  68   33   73 1
  69   33   74 1
  70   34   35 ar
  71   34   39 ar
  72   35   36 ar
  73   36   37 ar
  74   36   75 1
  75   37   38 ar
  76   37   76 1
  77   38   39 ar
  78   38   77 1
  79   39   40 1
  80   40   78 1
  81   40   79 1
  82   40   80 1
  83   41   42 2
  84   41   43 1
  85   43   81 1

#	End of record

