#	Name: ASD04590750
#	Creating user name:	WinNT
#	Creation time:	15. 06. 2019 20:51

#	Modifying user name:	WinNT
#	Modification time:	15. 06. 2019 20:51

#	Program:	/corina/corina34_cracker 3.40 0067  02.08.2006

@<TRIPOS>MOLECULE
ASD04590750
  47   51    0    0    0
SMALL
NO_CHARGES


@<TRIPOS>ATOM
   1 N1            -0.0171     1.3231    -0.0125 N.ar    
   2 C2             0.0017    -0.0035    -0.0054 C.ar    
   3 N3             1.1295    -0.6948    -0.0123 N.ar    
   4 C4             2.3047    -0.0727    -0.0269 C.ar    
   5 C5             2.3188     1.3368    -0.0348 C.ar    
   6 C6             1.1070     2.0203    -0.0270 C.ar    
   7 N7             3.6025    -0.5184    -0.0368 N.pl3   
   8 C8             4.4810     0.5527    -0.0510 C.ar    
   9 C9             3.7311     1.7389    -0.0504 C.ar    
  10 C10            5.8731     0.6486    -0.0648 C.ar    
  11 N11            6.4600     1.8322    -0.0769 N.ar    
  12 C12            5.7734     2.9626    -0.0766 C.ar    
  13 C13            4.4065     2.9614    -0.0640 C.ar    
  14 C14            4.0026    -1.9277    -0.0321 C.3     
  15 N15           -1.2028    -0.6891     0.0103 N.pl3   
  16 C16           -2.3957     0.0076     0.1306 C.ar    
  17 N17           -2.3698     1.3179     0.3316 N.ar    
  18 C18           -3.4768     2.0204     0.4517 C.ar    
  19 C19           -4.7239     1.3976     0.3704 C.ar    
  20 C20           -4.7804     0.0110     0.1581 C.ar    
  21 C21           -3.6048    -0.6786     0.0328 C.ar    
  22 C22           -5.9631     2.1846     0.5060 C.2     
  23 O23           -5.8975     3.5149     0.7101 O.3     
  24 C24            3.4628    -2.6246     1.2292 C.3     
  25 C25            2.5307    -3.7540     0.7439 C.3     
  26 C26            3.0230    -4.0621    -0.6920 C.3     
  27 C27            3.3796    -2.6579    -1.2398 C.3     
  28 O28           -7.0437     1.6336     0.4338 O.2     
  29 O29            6.6279    -0.4796    -0.0653 O.3     
  30 H30            1.0845     3.1000    -0.0324 H       
  31 H31            6.3025     3.9040    -0.0864 H       
  32 H32            3.8573     3.8914    -0.0642 H       
  33 H33            5.0891    -2.0073    -0.0666 H       
  34 H34           -1.2113    -1.6563    -0.0628 H       
  35 H35           -3.4199     3.0865     0.6149 H       
  36 H36           -5.7299    -0.4991     0.0906 H       
  37 H37           -3.6139    -1.7460    -0.1316 H       
  38 H38           -6.7366     3.9883     0.7928 H       
  39 H39            4.2874    -3.0431     1.8063 H       
  40 H40            2.9033    -1.9143     1.8377 H       
  41 H41            2.6340    -4.6334     1.3795 H       
  42 H42            1.4954    -3.4135     0.7274 H       
  43 H43            3.9043    -4.7031    -0.6690 H       
  44 H44            2.2285    -4.5171    -1.2835 H       
  45 H45            2.4814    -2.1404    -1.5766 H       
  46 H46            4.1024    -2.7374    -2.0518 H       
  47 H47            6.8382    -0.8117    -0.9488 H       
@<TRIPOS>BOND
   1    1    2 ar
   2    1    6 ar
   3    2    3 ar
   4    2   15 1
   5    3    4 ar
   6    4    5 ar
   7    4    7 1
   8    5    6 ar
   9    5    9 1
  10    6   30 1
  11    7    8 1
  12    7   14 1
  13    8    9 ar
  14    8   10 ar
  15    9   13 ar
  16   10   11 ar
  17   10   29 1
  18   11   12 ar
  19   12   13 ar
  20   12   31 1
  21   13   32 1
  22   14   24 1
  23   14   27 1
  24   14   33 1
  25   15   16 1
  26   15   34 1
  27   16   17 ar
  28   16   21 ar
  29   17   18 ar
  30   18   19 ar
  31   18   35 1
  32   19   20 ar
  33   19   22 1
  34   20   21 ar
  35   20   36 1
  36   21   37 1
  37   22   28 2
  38   22   23 1
  39   23   38 1
  40   24   25 1
  41   24   39 1
  42   24   40 1
  43   25   26 1
  44   25   41 1
  45   25   42 1
  46   26   27 1
  47   26   43 1
  48   26   44 1
  49   27   45 1
  50   27   46 1
  51   29   47 1

#	End of record

