#	Name: ASD03090333
#	Creating user name:	WinNT
#	Creation time:	15. 06. 2019 20:28

#	Modifying user name:	WinNT
#	Modification time:	15. 06. 2019 20:28

#	Program:	/corina/corina34_cracker 3.40 0067  02.08.2006

@<TRIPOS>MOLECULE
ASD03090333
  52   54    0    0    0
SMALL
NO_CHARGES


@<TRIPOS>ATOM
   1 N1             0.4452     1.5097     1.4758 N.ar    
   2 C2             0.4082     0.1914     1.4414 C.ar    
   3 C3             1.5349    -0.5411     1.1296 C.ar    
   4 C4             2.7270     0.1350     0.8475 C.ar    
   5 C5             2.7203     1.5330     0.8952 C.ar    
   6 C6             1.5477     2.1858     1.2166 C.ar    
   7 C7             3.9611    -0.6085     0.5084 C.2     
   8 N8             5.7410    -3.4558    -0.5302 N.pl3   
   9 C9             4.8147    -4.4455    -0.8745 C.ar    
  10 C10            3.5984    -4.0910    -1.4431 C.ar    
  11 C11            2.6817    -5.0703    -1.7839 C.ar    
  12 C12            2.9760    -6.4049    -1.5585 C.ar    
  13 C13            4.1919    -6.7623    -0.9900 C.ar    
  14 C14            5.1132    -5.7835    -0.6534 C.ar    
  15 N15            4.0259    -1.8644     0.1143 N.2     
  16 C16            5.2974    -2.2027    -0.1033 C.2     
  17 N17            6.0653    -1.1672     0.1487 N.2     
  18 N18            5.2199    -0.1173     0.5427 N.pl3   
  19 C19            5.6231     1.2385     0.9240 C.3     
  20 C20            5.7269     2.1109    -0.3285 C.3     
  21 C21            6.1417     3.5056     0.0637 C.2     
  22 N22            6.2975     4.4534    -0.8818 N.am    
  23 C23            6.7008     5.8092    -0.5005 C.3     
  24 O24            6.3352     3.7752     1.2302 O.2     
  25 C25            6.0637     4.1277    -2.2909 C.3     
  26 F26            2.0799    -7.3595    -1.8914 F       
  27 C27           -0.8823    -0.5241     1.7474 C.3     
  28 O28            4.4801    -8.0724    -0.7685 O.3     
  29 C29            5.7489    -8.3671    -0.1808 C.3     
  30 F30            1.4985    -4.7241    -2.3366 F       
  31 H31            1.4975    -1.6202     1.1040 H       
  32 H32            3.6194     2.0930     0.6844 H       
  33 H33            1.5323     3.2650     1.2556 H       
  34 H34            6.6916    -3.6401    -0.5879 H       
  35 H35            3.3675    -3.0507    -1.6190 H       
  36 H36            6.0590    -6.0604    -0.2117 H       
  37 H37            4.8809     1.6614     1.6010 H       
  38 H38            6.5915     1.2027     1.4231 H       
  39 H39            6.4692     1.6880    -1.0055 H       
  40 H40            4.7586     2.1467    -0.8276 H       
  41 H41            7.7884     5.8806    -0.5086 H       
  42 H42            6.2844     6.5249    -1.2093 H       
  43 H43            6.3295     6.0308     0.5001 H       
  44 H44            5.0181     4.3118    -2.5377 H       
  45 H45            6.7004     4.7513    -2.9184 H       
  46 H46            6.2987     3.0776    -2.4649 H       
  47 H47           -1.4478    -0.6636     0.8260 H       
  48 H48           -0.6630    -1.4959     2.1896 H       
  49 H49           -1.4697     0.0695     2.4478 H       
  50 H50            5.8511    -9.4455    -0.0589 H       
  51 H51            6.5440    -7.9978    -0.8285 H       
  52 H52            5.8194    -7.8830     0.7932 H       
@<TRIPOS>BOND
   1    1    2 ar
   2    1    6 ar
   3    2    3 ar
   4    2   27 1
   5    3    4 ar
   6    3   31 1
   7    4    5 ar
   8    4    7 1
   9    5    6 ar
  10    5   32 1
  11    6   33 1
  12    7   15 2
  13    7   18 1
  14    8    9 1
  15    8   16 1
  16    8   34 1
  17    9   10 ar
  18    9   14 ar
  19   10   11 ar
  20   10   35 1
  21   11   12 ar
  22   11   30 1
  23   12   13 ar
  24   12   26 1
  25   13   14 ar
  26   13   28 1
  27   14   36 1
  28   15   16 1
  29   16   17 2
  30   17   18 1
  31   18   19 1
  32   19   20 1
  33   19   37 1
  34   19   38 1
  35   20   21 1
  36   20   39 1
  37   20   40 1
  38   21   22 am
  39   21   24 2
  40   22   23 1
  41   22   25 1
  42   23   41 1
  43   23   42 1
  44   23   43 1
  45   25   44 1
  46   25   45 1
  47   25   46 1
  48   27   47 1
  49   27   48 1
  50   27   49 1
  51   28   29 1
  52   29   50 1
  53   29   51 1
  54   29   52 1

#	End of record

