#	Name: ASD04590268
#	Creating user name:	WinNT
#	Creation time:	15. 06. 2019 20:50

#	Modifying user name:	WinNT
#	Modification time:	15. 06. 2019 20:50

#	Program:	/corina/corina34_cracker 3.40 0067  02.08.2006

@<TRIPOS>MOLECULE
ASD04590268
  45   49    0    0    0
SMALL
NO_CHARGES


@<TRIPOS>ATOM
   1 C1            -0.0157     1.3069     0.0092 C.2     
   2 N2             0.0021    -0.0041     0.0020 N.2     
   3 N3             1.2662     1.7876    -0.0004 N.pl3   
   4 C4             2.1124     0.6949    -0.0144 C.ar    
   5 C5             1.2849    -0.4421    -0.0126 C.ar    
   6 C6             3.4917     0.5471    -0.0279 C.ar    
   7 C7             4.0468    -0.7155    -0.0396 C.ar    
   8 C8             3.2353    -1.8408    -0.0384 C.ar    
   9 C9             1.8649    -1.7144    -0.0250 C.ar    
  10 C10           -1.2358     2.1402     0.0198 C.2     
  11 N11           -1.2742     3.4583     0.0262 N.2     
  12 C12           -2.5674     1.6645     0.0186 C.2     
  13 C13           -3.3909     2.7410     0.0304 C.2     
  14 N14           -2.6165     3.8578     0.0353 N.pl3   
  15 N15           -2.9654     0.3177     0.0067 N.am    
  16 C16           -4.2757     0.0022     0.0070 C.2     
  17 C17           -4.6931    -1.4101    -0.0054 C.2     
  18 O18           -5.1136     0.8840     0.0175 O.2     
  19 C19           -4.9572    -2.2829    -1.1685 C.2     
  20 N20           -5.2954    -3.4393    -0.6574 N.2     
  21 O21           -5.2838    -3.4233     0.5489 O.3     
  22 C22           -4.9271    -2.2426     1.0599 C.2     
  23 C23           -4.8126    -1.8905     2.5207 C.3     
  24 C24           -4.8604    -1.9254    -2.6047 C.ar    
  25 C25           -4.4231    -2.8690    -3.5325 C.ar    
  26 C26           -4.3350    -2.5307    -4.8676 C.ar    
  27 C27           -4.6796    -1.2579    -5.2855 C.ar    
  28 C28           -5.1143    -0.3174    -4.3691 C.ar    
  29 C29           -5.2118    -0.6463    -3.0323 C.ar    
  30 H30            1.5310     2.7207     0.0018 H       
  31 H31            4.1294     1.4187    -0.0297 H       
  32 H32            5.1208    -0.8289    -0.0502 H       
  33 H33            3.6825    -2.8238    -0.0483 H       
  34 H34            1.2396    -2.5950    -0.0240 H       
  35 H35           -4.4706     2.7158     0.0324 H       
  36 H36           -2.9378     4.7731     0.0435 H       
  37 H37           -2.2973    -0.3855    -0.0016 H       
  38 H38           -5.0697    -2.7602     3.1253 H       
  39 H39           -3.7902    -1.5839     2.7415 H       
  40 H40           -5.4951    -1.0727     2.7520 H       
  41 H41           -4.1534    -3.8629    -3.2072 H       
  42 H42           -3.9959    -3.2610    -5.5874 H       
  43 H43           -4.6088    -0.9975    -6.3313 H       
  44 H44           -5.3821     0.6749    -4.7010 H       
  45 H45           -5.5516     0.0887    -2.3177 H       
@<TRIPOS>BOND
   1    1    2 2
   2    1    3 1
   3    1   10 1
   4    2    5 1
   5    3    4 1
   6    3   30 1
   7    4    5 ar
   8    4    6 ar
   9    5    9 ar
  10    6    7 ar
  11    6   31 1
  12    7    8 ar
  13    7   32 1
  14    8    9 ar
  15    8   33 1
  16    9   34 1
  17   10   11 2
  18   10   12 1
  19   11   14 1
  20   12   13 2
  21   12   15 1
  22   13   14 1
  23   13   35 1
  24   14   36 1
  25   15   16 am
  26   15   37 1
  27   16   17 1
  28   16   18 2
  29   17   19 1
  30   17   22 2
  31   19   20 2
  32   19   24 1
  33   20   21 1
  34   21   22 1
  35   22   23 1
  36   23   38 1
  37   23   39 1
  38   23   40 1
  39   24   25 ar
  40   24   29 ar
  41   25   26 ar
  42   25   41 1
  43   26   27 ar
  44   26   42 1
  45   27   28 ar
  46   27   43 1
  47   28   29 ar
  48   28   44 1
  49   29   45 1

#	End of record

