#	Name: ASD01208305
#	Creating user name:	WinNT
#	Creation time:	15. 06. 2019 19:09

#	Modifying user name:	WinNT
#	Modification time:	15. 06. 2019 19:09

#	Program:	/corina/corina34_cracker 3.40 0067  02.08.2006

@<TRIPOS>MOLECULE
ASD01208305
  61   64    0    0    0
SMALL
NO_CHARGES


@<TRIPOS>ATOM
   1 C1             1.0434     0.7931    -1.9822 C.3     
   2 O2             1.5413    -1.0654    -0.4646 O.3     
   3 C3             0.9628    -2.2642    -0.2363 C.2     
   4 N4             0.0699    -2.5914    -1.1243 N.2     
   5 C5            -0.0054    -1.5126    -2.1286 C.3     
   6 C6             1.2867    -0.7107    -1.8392 C.3     
   7 N7             2.2406    -2.8319     1.8779 N.pl3   
   8 C8             1.3095    -3.1191     0.9080 C.2     
   9 C9             0.7576    -4.3484     1.1965 C.2     
  10 C10            1.3644    -4.8168     2.3629 C.2     
  11 C11            2.2758    -3.8680     2.7680 C.2     
  12 C12            3.1441    -3.9553     3.9611 C.ar    
  13 C13            3.0809    -5.0748     4.7921 C.ar    
  14 C14            3.8960    -5.1527     5.9089 C.ar    
  15 C15            4.7745    -4.1194     6.2026 C.ar    
  16 C16            4.8405    -3.0046     5.3792 C.ar    
  17 C17            4.0330    -2.9215     4.2565 C.ar    
  18 O18            5.7025    -1.9955     5.6713 O.3     
  19 C19            5.1974    -0.8697     6.2406 C.ar    
  20 C20            6.0339     0.1997     6.5270 C.ar    
  21 C21            5.5178     1.3429     7.1058 C.ar    
  22 C22            4.1690     1.4221     7.3996 C.ar    
  23 C23            3.3334     0.3578     7.1156 C.ar    
  24 C24            3.8432    -0.7854     6.5312 C.ar    
  25 S25            3.5141     2.8818     8.1378 S.o2    
  26 O26            2.3624     2.4335     8.8391 O.2     
  27 O27            4.6177     3.4503     8.8293 O.2     
  28 C28            3.0376     3.9252     6.7325 C.3     
  29 O29            3.8352    -6.2424     6.7187 O.3     
  30 C30            4.7654    -6.2983     7.8021 C.3     
  31 C31            4.9839    -7.7562     8.2119 C.3     
  32 C32            4.2108    -5.5119     8.9915 C.3     
  33 O33            3.7657    -8.2927     8.7315 O.3     
  34 C34            3.8614    -9.6569     9.1459 C.3     
  35 H35            1.9322     1.3370    -1.6624 H       
  36 H36            0.8286     1.0289    -3.0245 H       
  37 H37            0.0078    -1.9203    -3.1394 H       
  38 H38           -0.8899    -0.8954    -1.9711 H       
  39 H39            2.1025    -1.0359    -2.4848 H       
  40 H40            2.7845    -2.0299     1.9209 H       
  41 H41           -0.0052    -4.8563     0.6250 H       
  42 H42            1.1563    -5.7537     2.8582 H       
  43 H43            2.3970    -5.8791     4.5647 H       
  44 H44            5.4082    -4.1830     7.0748 H       
  45 H45            4.0882    -2.0555     3.6136 H       
  46 H46            7.0875     0.1381     6.2980 H       
  47 H47            6.1685     2.1754     7.3292 H       
  48 H48            2.2804     0.4219     7.3468 H       
  49 H49            3.1892    -1.6146     6.3052 H       
  50 H50            2.2933     3.4049     6.1296 H       
  51 H51            2.6173     4.8610     7.1008 H       
  52 H52            3.9160     4.1365     6.1226 H       
  53 H53            5.7143    -5.8627     7.4891 H       
  54 H54            5.2943    -8.3354     7.3422 H       
  55 H55            5.7586    -7.8062     8.9771 H       
  56 H56            4.9203    -5.5545     9.8179 H       
  57 H57            4.0551    -4.4733     8.6996 H       
  58 H58            3.2619    -5.9475     9.3045 H       
  59 H59            2.8961    -9.9893     9.5276 H       
  60 H60            4.1485   -10.2756     8.2956 H       
  61 H61            4.6128    -9.7464     9.9305 H       
@<TRIPOS>BOND
   1    1    6 1
   2    1   35 1
   3    1   36 1
   4    2    3 1
   5    2    6 1
   6    3    4 2
   7    3    8 1
   8    4    5 1
   9    5    6 1
  10    5   37 1
  11    5   38 1
  12    6   39 1
  13    7    8 1
  14    7   11 1
  15    7   40 1
  16    8    9 2
  17    9   10 1
  18    9   41 1
  19   10   11 2
  20   10   42 1
  21   11   12 1
  22   12   13 ar
  23   12   17 ar
  24   13   14 ar
  25   13   43 1
  26   14   15 ar
  27   14   29 1
  28   15   16 ar
  29   15   44 1
  30   16   17 ar
  31   16   18 1
  32   17   45 1
  33   18   19 1
  34   19   20 ar
  35   19   24 ar
  36   20   21 ar
  37   20   46 1
  38   21   22 ar
  39   21   47 1
  40   22   23 ar
  41   22   25 1
  42   23   24 ar
  43   23   48 1
  44   24   49 1
  45   25   26 2
  46   25   27 2
  47   25   28 1
  48   28   50 1
  49   28   51 1
  50   28   52 1
  51   29   30 1
  52   30   31 1
  53   30   32 1
  54   30   53 1
  55   31   33 1
  56   31   54 1
  57   31   55 1
  58   32   56 1
  59   32   57 1
  60   32   58 1
  61   33   34 1
  62   34   59 1
  63   34   60 1
  64   34   61 1

#	End of record

