#	Name: ASD02030558
#	Creating user name:	WinNT
#	Creation time:	15. 06. 2019 20:15

#	Modifying user name:	WinNT
#	Modification time:	15. 06. 2019 20:15

#	Program:	/corina/corina34_cracker 3.40 0067  02.08.2006

@<TRIPOS>MOLECULE
ASD02030558
  36   38    0    0    0
SMALL
NO_CHARGES


@<TRIPOS>ATOM
   1 S1            -0.0220     1.7682     0.0118 S.3     
   2 C2             0.0021    -0.0041     0.0020 C.2     
   3 N3             1.3150    -0.3971    -0.0126 N.am    
   4 C4             2.2811     0.5054    -0.0170 C.2     
   5 C5             1.7940     1.9357    -0.0047 C.3     
   6 C6             2.2555     2.6726    -1.2636 C.3     
   7 C7             1.7685     4.0980    -1.2182 C.2     
   8 N8             2.0575     4.9414    -2.2290 N.am    
   9 O9             1.1164     4.4863    -0.2721 O.2     
  10 C10            1.6089     6.2543    -2.1872 C.2     
  11 C11            0.6112     8.4965    -1.6946 C.2     
  12 S12            0.6942     6.9242    -0.9172 S.3     
  13 C13            1.8460     7.1868    -3.1566 C.2     
  14 C14            2.5961     6.9123    -4.3451 C.1     
  15 N15            3.1912     6.6945    -5.2879 N.1     
  16 O16            3.4572     0.2106    -0.0298 O.2     
  17 N17           -1.0376    -0.7891     0.0081 N.2     
  18 C18            0.3936    10.9585    -1.8621 C.3     
  19 C19           -0.0967     9.7106    -1.1246 C.3     
  20 C20            1.2632     8.4829    -2.8639 C.2     
  21 C21            1.3740     9.6935    -3.7770 C.3     
  22 C22            0.3088    10.7149    -3.3719 C.3     
  23 H23            1.5363    -1.3415    -0.0195 H       
  24 H24            2.1399     2.4511     0.8913 H       
  25 H25            3.3443     2.6621    -1.3122 H       
  26 H26            1.8476     2.1772    -2.1447 H       
  27 H27            2.5789     4.6309    -2.9856 H       
  28 H28           -0.9185    -1.7518     0.0018 H       
  29 H29           -0.2307    11.8103    -1.5923 H       
  30 H30            1.4285    11.1616    -1.5870 H       
  31 H31           -1.1721     9.6018    -1.2651 H       
  32 H32            0.1278     9.8024    -0.0619 H       
  33 H33            2.3640    10.1382    -3.6756 H       
  34 H34            1.2126     9.3876    -4.8106 H       
  35 H35           -0.6794    10.3300    -3.6238 H       
  36 H36            0.4819    11.6514    -3.9021 H       
@<TRIPOS>BOND
   1    1    2 1
   2    1    5 1
   3    2    3 1
   4    2   17 2
   5    3    4 am
   6    3   23 1
   7    4    5 1
   8    4   16 2
   9    5    6 1
  10    5   24 1
  11    6    7 1
  12    6   25 1
  13    6   26 1
  14    7    8 am
  15    7    9 2
  16    8   10 1
  17    8   27 1
  18   10   13 2
  19   10   12 1
  20   11   12 1
  21   11   20 2
  22   11   19 1
  23   13   20 1
  24   13   14 1
  25   14   15 3
  26   17   28 1
  27   18   19 1
  28   18   22 1
  29   18   29 1
  30   18   30 1
  31   19   31 1
  32   19   32 1
  33   20   21 1
  34   21   22 1
  35   21   33 1
  36   21   34 1
  37   22   35 1
  38   22   36 1

#	End of record

