#	Name: ASD06020065
#	Creating user name:	WinNT
#	Creation time:	15. 06. 2019 21:04

#	Modifying user name:	WinNT
#	Modification time:	15. 06. 2019 21:04

#	Program:	/corina/corina34_cracker 3.40 0067  02.08.2006

@<TRIPOS>MOLECULE
ASD06020065
  38   41    0    0    0
SMALL
NO_CHARGES


@<TRIPOS>ATOM
   1 C1            -0.0166     1.3946     0.0029 C.ar    
   2 C2             0.0030    -0.0035     0.0025 C.ar    
   3 C3             1.2298    -0.6765    -0.0198 C.ar    
   4 C4             2.4025     0.1205    -0.0403 C.ar    
   5 C5             2.2924     1.4754    -0.0376 C.ar    
   6 N6             1.1144     2.0787    -0.0177 N.ar    
   7 S7            -1.2863    -1.2014     0.0249 S.3     
   8 C8            -0.0966    -2.4968     0.0030 C.2     
   9 N9             1.1001    -2.0041    -0.0181 N.2     
  10 N10           -1.2340     2.0699     0.0191 N.pl3   
  11 C11           -0.1547     5.4472     0.4363 C.ar    
  12 N12           -0.1347     4.1340     0.3296 N.ar    
  13 C13           -1.2589     3.4521     0.1314 C.ar    
  14 C14           -2.4649     4.1499     0.0378 C.ar    
  15 C15           -2.4370     5.5255     0.1558 C.ar    
  16 N16           -1.2759     6.1344     0.3524 N.ar    
  17 C17           -3.7110     6.3250     0.0615 C.3     
  18 C18           -0.4167    -3.9378     0.0084 C.ar    
  19 C19            0.6121    -4.8846    -0.0105 C.ar    
  20 C20            0.3093    -6.2292    -0.0049 C.ar    
  21 C21           -1.0180    -6.6457     0.0195 C.ar    
  22 C22           -2.0446    -5.7084     0.0384 C.ar    
  23 C23           -1.7501    -4.3600     0.0383 C.ar    
  24 F24           -2.7478    -3.4494     0.0618 F       
  25 Cl25           2.2688    -4.3671    -0.0416 Cl      
  26 N26           -1.3192    -8.0061     0.0246 N.pl3   
  27 H27            3.3765    -0.3457    -0.0576 H       
  28 H28            3.1901     2.0756    -0.0534 H       
  29 H29           -2.0648     1.5738    -0.0481 H       
  30 H30            0.7731     5.9747     0.6015 H       
  31 H31           -3.3960     3.6268    -0.1232 H       
  32 H32           -4.1464     6.4332     1.0549 H       
  33 H33           -3.4918     7.3109    -0.3485 H       
  34 H34           -4.4163     5.8091    -0.5900 H       
  35 H35            1.1037    -6.9607    -0.0199 H       
  36 H36           -3.0737    -6.0357     0.0570 H       
  37 H37           -0.6040    -8.6613     0.0112 H       
  38 H38           -2.2441    -8.2981     0.0417 H       
@<TRIPOS>BOND
   1    1    2 ar
   2    1    6 ar
   3    1   10 1
   4    2    3 ar
   5    2    7 1
   6    3    4 ar
   7    3    9 1
   8    4    5 ar
   9    4   27 1
  10    5    6 ar
  11    5   28 1
  12    7    8 1
  13    8    9 2
  14    8   18 1
  15   10   13 1
  16   10   29 1
  17   11   12 ar
  18   11   16 ar
  19   11   30 1
  20   12   13 ar
  21   13   14 ar
  22   14   15 ar
  23   14   31 1
  24   15   16 ar
  25   15   17 1
  26   17   32 1
  27   17   33 1
  28   17   34 1
  29   18   19 ar
  30   18   23 ar
  31   19   20 ar
  32   19   25 1
  33   20   21 ar
  34   20   35 1
  35   21   22 ar
  36   21   26 1
  37   22   23 ar
  38   22   36 1
  39   23   24 1
  40   26   37 1
  41   26   38 1

#	End of record

