#	Name: ASD01180199
#	Creating user name:	WinNT
#	Creation time:	15. 06. 2019 19:07

#	Modifying user name:	WinNT
#	Modification time:	15. 06. 2019 19:07

#	Program:	/corina/corina34_cracker 3.40 0067  02.08.2006

@<TRIPOS>MOLECULE
ASD01180199
  61   63    0    0    0
SMALL
NO_CHARGES


@<TRIPOS>ATOM
   1 C1             0.7903     1.4265     0.9422 C.ar    
   2 C2             0.6491     0.0620     0.7941 C.ar    
   3 C3             1.7754    -0.7365     0.6055 C.ar    
   4 C4             3.0401    -0.1526     0.5673 C.ar    
   5 C5             3.1721     1.2127     0.7162 C.ar    
   6 C6             2.0496     2.0029     0.9036 C.ar    
   7 C7             1.6286    -2.2044     0.4463 C.ar    
   8 C8             2.7544    -3.0034     0.2577 C.ar    
   9 C9             2.6120    -4.3683     0.1107 C.ar    
  10 C10            1.3546    -4.9433     0.1498 C.ar    
  11 C11            0.2335    -4.1549     0.3363 C.ar    
  12 C12            0.3647    -2.7896     0.4907 C.ar    
  13 C13            1.2054    -6.4342    -0.0118 C.3     
  14 C14            1.0255    -7.0808     1.3631 C.3     
  15 N15            0.0336    -6.7204    -0.8432 N.pl3   
  16 C16            0.1274    -6.6417    -2.2224 C.ar    
  17 N17           -0.9609    -6.8052    -2.9620 N.ar    
  18 C18           -0.9192    -6.7389    -4.2765 C.ar    
  19 C19            0.2859    -6.4922    -4.9357 C.ar    
  20 C20            1.4536    -6.3152    -4.1775 C.ar    
  21 C21            1.3636    -6.3862    -2.8137 C.ar    
  22 C22            0.3318    -6.4189    -6.4086 C.2     
  23 N23           -0.7953    -6.5908    -7.1273 N.am    
  24 O24            1.3865    -6.2035    -6.9740 O.2     
  25 C25           -0.7498    -6.5181    -8.5898 C.3     
  26 C26           -2.1528    -6.7466    -9.1557 C.3     
  27 C27           -2.1059    -6.6718   -10.6601 C.2     
  28 O28           -3.2285    -6.8430   -11.3759 O.3     
  29 O29           -1.0579    -6.4578   -11.2220 O.2     
  30 C30            0.9864    -8.6026     1.2098 C.3     
  31 C31            2.3456    -9.1003     0.7142 C.3     
  32 C32            0.6709    -9.2435     2.5628 C.3     
  33 F33            2.1833     3.3395     1.0485 F       
  34 H34           -0.0825     2.0467     1.0839 H       
  35 H35           -0.3329    -0.3865     0.8247 H       
  36 H36            3.9157    -0.7679     0.4217 H       
  37 H37            4.1519     1.6661     0.6871 H       
  38 H38            3.7367    -2.5555     0.2263 H       
  39 H39            3.4840    -4.9886    -0.0356 H       
  40 H40           -0.7460    -4.6089     0.3657 H       
  41 H41           -0.5113    -2.1749     0.6362 H       
  42 H42            2.0976    -6.8389    -0.4897 H       
  43 H43            1.8591    -6.8018     2.0077 H       
  44 H44            0.0916    -6.7362     1.8072 H       
  45 H45           -0.8079    -6.9650    -0.4275 H       
  46 H46           -1.8245    -6.8768    -4.8489 H       
  47 H47            2.4010    -6.1229    -4.6591 H       
  48 H48            2.2437    -6.2544    -2.2018 H       
  49 H49           -1.6367    -6.7627    -6.6762 H       
  50 H50           -0.3911    -5.5347    -8.8937 H       
  51 H51           -0.0750    -7.2847    -8.9708 H       
  52 H52           -2.5115    -7.7300    -8.8518 H       
  53 H53           -2.8275    -5.9800    -8.7746 H       
  54 H54           -3.1487    -6.7862   -12.3379 H       
  55 H55            0.2149    -8.8755     0.4898 H       
  56 H56            2.2975   -10.1753     0.5404 H       
  57 H57            2.6012    -8.5929    -0.2160 H       
  58 H58            3.1064    -8.8874     1.4652 H       
  59 H59           -0.2974    -8.8889     2.9159 H       
  60 H60            0.6431   -10.3276     2.4536 H       
  61 H61            1.4424    -8.9705     3.2828 H       
@<TRIPOS>BOND
   1    1    2 ar
   2    1    6 ar
   3    1   34 1
   4    2    3 ar
   5    2   35 1
   6    3    4 ar
   7    3    7 1
   8    4    5 ar
   9    4   36 1
  10    5    6 ar
  11    5   37 1
  12    6   33 1
  13    7    8 ar
  14    7   12 ar
  15    8    9 ar
  16    8   38 1
  17    9   10 ar
  18    9   39 1
  19   10   11 ar
  20   10   13 1
  21   11   12 ar
  22   11   40 1
  23   12   41 1
  24   13   14 1
  25   13   15 1
  26   13   42 1
  27   14   30 1
  28   14   43 1
  29   14   44 1
  30   15   16 1
  31   15   45 1
  32   16   17 ar
  33   16   21 ar
  34   17   18 ar
  35   18   19 ar
  36   18   46 1
  37   19   20 ar
  38   19   22 1
  39   20   21 ar
  40   20   47 1
  41   21   48 1
  42   22   23 am
  43   22   24 2
  44   23   25 1
  45   23   49 1
  46   25   26 1
  47   25   50 1
  48   25   51 1
  49   26   27 1
  50   26   52 1
  51   26   53 1
  52   27   28 1
  53   27   29 2
  54   28   54 1
  55   30   31 1
  56   30   32 1
  57   30   55 1
  58   31   56 1
  59   31   57 1
  60   31   58 1
  61   32   59 1
  62   32   60 1
  63   32   61 1

#	End of record

