#	Name: ASD01881571
#	Creating user name:	WinNT
#	Creation time:	15. 06. 2019 19:42

#	Modifying user name:	WinNT
#	Modification time:	15. 06. 2019 19:42

#	Program:	/corina/corina34_cracker 3.40 0067  02.08.2006

@<TRIPOS>MOLECULE
ASD01881571
  47   51    0    0    0
SMALL
NO_CHARGES


@<TRIPOS>ATOM
   1 N1            -0.0158     1.3109     0.0092 N.ar    
   2 C2             0.0021    -0.0041     0.0020 C.ar    
   3 C3             1.1947    -0.7105    -0.0132 C.ar    
   4 C4             2.3946    -0.0206    -0.0209 C.ar    
   5 C5             2.3535     1.3678    -0.0131 C.ar    
   6 C6             1.1093     2.0224     0.0023 C.ar    
   7 N7             3.3109     2.3614    -0.0165 N.pl3   
   8 C8             2.6555     3.5518    -0.0036 C.2     
   9 N9             1.3686     3.3541     0.0074 N.2     
  10 C10            4.7631     2.1690    -0.0308 C.3     
  11 C11            3.3212     4.9037    -0.0022 C.3     
  12 N12            3.5245     5.3509    -1.3866 N.3     
  13 C13            3.9553     6.7720    -1.4293 C.3     
  14 C14            3.6086     7.2409    -2.8587 C.3     
  15 C15            2.4847     6.2947    -3.3293 C.3     
  16 C16            2.2470     5.3338    -2.1446 C.3     
  17 C17            2.2018     7.7835    -3.1185 C.3     
  18 C18            1.9979     8.6460    -4.3656 C.3     
  19 O19            0.6624     9.1542    -4.3802 O.3     
  20 C20            0.3147     9.9455    -5.4292 C.ar    
  21 C21           -0.9673    10.4736    -5.5070 C.ar    
  22 C22            1.2411    10.2314    -6.4203 C.ar    
  23 C23            0.8849    11.0368    -7.4867 C.ar    
  24 C24           -0.3946    11.5574    -7.5647 C.ar    
  25 C25           -1.3186    11.2779    -6.5747 C.ar    
  26 Cl26           2.0443    11.3953    -8.7281 Cl      
  27 Cl27          -2.1279    10.1232    -4.2645 Cl      
  28 H28           -0.9325    -0.5452     0.0084 H       
  29 H29            1.1877    -1.7904    -0.0185 H       
  30 H30            3.3372    -0.5475    -0.0324 H       
  31 H31            5.1140     2.1273    -1.0619 H       
  32 H32            5.2449     3.0006     0.4836 H       
  33 H33            5.0111     1.2361     0.4754 H       
  34 H34            2.6882     5.6199     0.5217 H       
  35 H35            4.2850     4.8337     0.5023 H       
  36 H36            3.4054     7.3582    -0.6930 H       
  37 H37            5.0283     6.8494    -1.2536 H       
  38 H38            4.4344     7.5213    -3.5125 H       
  39 H39            2.4739     5.8709    -4.3334 H       
  40 H40            2.0337     4.3284    -2.5075 H       
  41 H41            1.4297     5.6950    -1.5203 H       
  42 H42            1.6033     8.0633    -2.2515 H       
  43 H43            2.7028     9.4773    -4.3517 H       
  44 H44            2.1665     8.0416    -5.2569 H       
  45 H45            2.2402     9.8258    -6.3595 H       
  46 H46           -0.6707    12.1868    -8.3978 H       
  47 H47           -2.3167    11.6855    -6.6377 H       
@<TRIPOS>BOND
   1    1    2 ar
   2    1    6 ar
   3    2    3 ar
   4    2   28 1
   5    3    4 ar
   6    3   29 1
   7    4    5 ar
   8    4   30 1
   9    5    6 ar
  10    5    7 1
  11    6    9 1
  12    7    8 1
  13    7   10 1
  14    8    9 2
  15    8   11 1
  16   10   31 1
  17   10   32 1
  18   10   33 1
  19   11   12 1
  20   11   34 1
  21   11   35 1
  22   12   13 1
  23   12   16 1
  24   13   14 1
  25   13   36 1
  26   13   37 1
  27   14   15 1
  28   14   17 1
  29   14   38 1
  30   15   16 1
  31   15   17 1
  32   15   39 1
  33   16   40 1
  34   16   41 1
  35   17   18 1
  36   17   42 1
  37   18   19 1
  38   18   43 1
  39   18   44 1
  40   19   20 1
  41   20   21 ar
  42   20   22 ar
  43   21   27 1
  44   21   25 ar
  45   22   23 ar
  46   22   45 1
  47   23   24 ar
  48   23   26 1
  49   24   25 ar
  50   24   46 1
  51   25   47 1

#	End of record

