#	Name: ASD02030778
#	Creating user name:	WinNT
#	Creation time:	15. 06. 2019 20:16

#	Modifying user name:	WinNT
#	Modification time:	15. 06. 2019 20:16

#	Program:	/corina/corina34_cracker 3.40 0067  02.08.2006

@<TRIPOS>MOLECULE
ASD02030778
  42   45    0    0    0
SMALL
NO_CHARGES


@<TRIPOS>ATOM
   1 C1             0.8946    -0.0426     1.2945 C.3     
   2 O2             0.1508     0.0193     0.0759 O.3     
   3 C3             0.7369    -0.5072    -1.0326 C.2     
   4 C4             1.0767     0.3005    -2.0682 C.2     
   5 C5             0.8013     1.7796    -1.9820 C.3     
   6 H6             1.6807     2.4168    -1.8886 H       
   7 C7            -0.4709     2.2201    -1.2552 C.3     
   8 C8            -0.3848     2.3250    -2.7799 C.3     
   9 H9            -0.9659     1.6140    -3.3671 H       
  10 C10           -0.2513     3.6704    -3.3621 C.1     
  11 N11           -0.1482     4.7086    -3.8114 N.1     
  12 N12            1.6651    -0.2121    -3.1856 N.am    
  13 C13            1.9946     0.6114    -4.2037 C.2     
  14 O14            1.7698     1.8093    -4.1297 O.2     
  15 C15            2.5980     0.0710    -5.3446 C.2     
  16 C16            2.8376    -1.2890    -5.3930 C.2     
  17 C17            3.4867    -1.8964    -6.6099 C.3     
  18 N18            4.9313    -2.0035    -6.3907 N.pl3   
  19 N19            5.8866    -1.0273    -6.7014 N.2     
  20 C20            7.0644    -1.4840    -6.3610 C.2     
  21 C21            6.8982    -2.7643    -5.8231 C.2     
  22 C22            5.5761    -3.0581    -5.8482 C.2     
  23 Cl23           4.8429    -4.5280    -5.2864 Cl      
  24 C24            8.3743    -0.7563    -6.5213 C.3     
  25 F25            8.1334     0.5401    -6.9888 F       
  26 F26            9.0267    -0.6927    -5.2854 F       
  27 F27            9.1788    -1.4408    -7.4386 F       
  28 N28            2.4979    -2.0584    -4.3714 N.2     
  29 C29            1.9234    -1.5504    -3.2816 C.2     
  30 C30            1.5787    -2.4052    -2.2187 C.2     
  31 C31            0.9954    -1.8870    -1.1022 C.2     
  32 H32            1.0255    -1.0842     1.5878 H       
  33 H33            1.8712     0.4190     1.1479 H       
  34 H34            0.3547     0.4903     2.0772 H       
  35 H35           -1.1086     1.4401    -0.8393 H       
  36 H36           -0.4286     3.1474    -0.6838 H       
  37 H37            2.8717     0.7063    -6.1739 H       
  38 H38            3.0714    -2.8886    -6.7862 H       
  39 H39            3.2968    -1.2637    -7.4769 H       
  40 H40            7.6845    -3.4041    -5.4503 H       
  41 H41            1.7790    -3.4644    -2.2858 H       
  42 H42            0.7299    -2.5323    -0.2779 H       
@<TRIPOS>BOND
   1    1    2 1
   2    1   32 1
   3    1   33 1
   4    1   34 1
   5    2    3 1
   6    3   31 1
   7    3    4 2
   8    4    5 1
   9    4   12 1
  10    5    6 1
  11    5    8 1
  12    5    7 1
  13    7    8 1
  14    7   35 1
  15    7   36 1
  16    8    9 1
  17    8   10 1
  18   10   11 3
  19   12   29 1
  20   12   13 am
  21   13   14 2
  22   13   15 1
  23   15   16 2
  24   15   37 1
  25   16   17 1
  26   16   28 1
  27   17   18 1
  28   17   38 1
  29   17   39 1
  30   18   22 1
  31   18   19 1
  32   19   20 2
  33   20   21 1
  34   20   24 1
  35   21   22 2
  36   21   40 1
  37   22   23 1
  38   24   25 1
  39   24   26 1
  40   24   27 1
  41   28   29 2
  42   29   30 1
  43   30   31 2
  44   30   41 1
  45   31   42 1

#	End of record

