#	Name: ASD00170974
#	Creating user name:	WinNT
#	Creation time:	15. 06. 2019 18:32

#	Modifying user name:	WinNT
#	Modification time:	15. 06. 2019 18:32

#	Program:	/corina/corina34_cracker 3.40 0067  02.08.2006

@<TRIPOS>MOLECULE
ASD00170974
  37   39    0    0    0
SMALL
NO_CHARGES


@<TRIPOS>ATOM
   1 C1            -0.0136     1.2155    -0.0099 C.2     
   2 O2             0.4569     0.7843     1.0272 O.2     
   3 C3             0.7000     1.0073    -1.2883 C.ar    
   4 C4             1.9640     0.4147    -1.2969 C.ar    
   5 C5             2.6244     0.2227    -2.4922 C.ar    
   6 C6             2.0360     0.6165    -3.6827 C.ar    
   7 C7             0.7822     1.2054    -3.6804 C.ar    
   8 C8             0.1098     1.3973    -2.4919 C.ar    
   9 Cl9            2.8734     0.3716    -5.1835 Cl      
  10 C10           -1.3903     3.3009     0.1255 C.2     
  11 C11           -1.2874     1.9342     0.0080 C.2     
  12 C12           -2.5770     1.2843    -0.0965 C.2     
  13 C13           -3.5929     2.1322    -0.0582 C.2     
  14 S14           -3.0248     3.7837     0.1089 S.3     
  15 C15           -2.7457    -0.2068    -0.2357 C.3     
  16 N16           -0.3182     4.1618     0.2461 N.pl3   
  17 H17           -4.6323     1.8458    -0.1217 H       
  18 S18           -2.8747    -0.9570     1.4108 S.3     
  19 C19           -3.0636    -2.6716     1.0515 C.ar    
  20 C20           -3.1963    -3.5897     2.0863 C.ar    
  21 C21           -3.3440    -4.9326     1.8009 C.ar    
  22 C22           -3.3596    -5.3644     0.4871 C.ar    
  23 C23           -3.2274    -4.4537    -0.5453 C.ar    
  24 C24           -3.0859    -3.1084    -0.2676 C.ar    
  25 H25            2.4239     0.1076    -0.3693 H       
  26 H26            3.6024    -0.2353    -2.5000 H       
  27 H27            0.3287     1.5111    -4.6117 H       
  28 H28           -0.8696     1.8525    -2.4917 H       
  29 H29           -3.6517    -0.4185    -0.8034 H       
  30 H30           -1.8841    -0.6227    -0.7580 H       
  31 H31            0.5808     3.8078     0.3313 H       
  32 H32           -0.4639     5.1208     0.2456 H       
  33 H33           -3.1835    -3.2533     3.1125 H       
  34 H34           -3.4472    -5.6466     2.6046 H       
  35 H35           -3.4750    -6.4154     0.2668 H       
  36 H36           -3.2396    -4.7945    -1.5700 H       
  37 H37           -2.9826    -2.3978    -1.0743 H       
@<TRIPOS>BOND
   1    1    2 2
   2    1    3 1
   3    1   11 1
   4    3    4 ar
   5    3    8 ar
   6    4    5 ar
   7    4   25 1
   8    5    6 ar
   9    5   26 1
  10    6    7 ar
  11    6    9 1
  12    7    8 ar
  13    7   27 1
  14    8   28 1
  15   10   11 2
  16   10   14 1
  17   10   16 1
  18   11   12 1
  19   12   13 2
  20   12   15 1
  21   13   14 1
  22   13   17 1
  23   15   18 1
  24   15   29 1
  25   15   30 1
  26   16   31 1
  27   16   32 1
  28   18   19 1
  29   19   20 ar
  30   19   24 ar
  31   20   21 ar
  32   20   33 1
  33   21   22 ar
  34   21   34 1
  35   22   23 ar
  36   22   35 1
  37   23   24 ar
  38   23   36 1
  39   24   37 1

#	End of record

