#	Name: ASD01881320
#	Creating user name:	WinNT
#	Creation time:	15. 06. 2019 19:42

#	Modifying user name:	WinNT
#	Modification time:	15. 06. 2019 19:42

#	Program:	/corina/corina34_cracker 3.40 0067  02.08.2006

@<TRIPOS>MOLECULE
ASD01881320
  63   65    0    0    0
SMALL
NO_CHARGES


@<TRIPOS>ATOM
   1 C1            -0.1977     1.4383     1.3835 C.2     
   2 C2            -0.1751    -0.0108     1.1156 C.ar    
   3 C3             0.9922    -0.6185     0.6393 C.ar    
   4 C4             1.0079    -1.9741     0.3903 C.ar    
   5 C5            -0.1328    -2.7362     0.6117 C.ar    
   6 C6            -1.2942    -2.1359     1.0848 C.ar    
   7 C7            -1.3179    -0.7837     1.3419 C.ar    
   8 O8             0.7982     2.1074     1.1908 O.2     
   9 O9            -1.3244     2.0222     1.8368 O.3     
  10 O10           -0.1133    -4.0704     0.3649 O.3     
  11 C11           -1.3201    -4.7940     0.6141 C.3     
  12 C12           -1.1068    -6.2718     0.2804 C.3     
  13 C13           -2.3989    -7.0465     0.5472 C.3     
  14 C14           -2.1856    -8.5244     0.2135 C.3     
  15 O15           -3.3925    -9.2480     0.4626 O.3     
  16 C16           -3.3729   -10.5818     0.2159 C.ar    
  17 C17           -4.5148   -11.3443     0.4376 C.ar    
  18 C18           -4.5033   -12.6878     0.1917 C.ar    
  19 C19           -3.3390   -13.3025    -0.2854 C.ar    
  20 C20           -2.1890   -12.5352    -0.5088 C.ar    
  21 C21           -2.2129   -11.1810    -0.2632 C.ar    
  22 C22           -5.7435   -13.5088     0.4343 C.3     
  23 C23           -5.7691   -10.6859     0.9515 C.3     
  24 C24           -3.3239   -14.7470    -0.5502 C.2     
  25 O25           -4.3479   -15.3909    -0.4597 O.2     
  26 C26           -2.0363   -15.4292    -0.9343 C.3     
  27 C27           -2.2950   -16.9214    -1.1523 C.3     
  28 C28           -1.0175   -17.6083    -1.6658 C.3     
  29 C29           -0.6413   -18.6778    -0.6196 C.3     
  30 C30           -1.9758   -18.9889     0.1023 C.3     
  31 C31           -2.6506   -17.5974     0.1880 C.3     
  32 Cl32           2.4173     0.3332     0.3620 Cl      
  33 H33            1.9078    -2.4445     0.0224 H       
  34 H34           -2.1784    -2.7323     1.2550 H       
  35 H35           -2.2194    -0.3197     1.7139 H       
  36 H36           -1.2908     2.9751     1.9980 H       
  37 H37           -1.5932    -4.6944     1.6646 H       
  38 H38           -2.1196    -4.3926    -0.0087 H       
  39 H39           -0.8338    -6.3714    -0.7701 H       
  40 H40           -0.3074    -6.6732     0.9032 H       
  41 H41           -2.6720    -6.9470     1.5977 H       
  42 H42           -3.1984    -6.6452    -0.0756 H       
  43 H43           -1.9126    -8.6240    -0.8370 H       
  44 H44           -1.3862    -8.9258     0.8363 H       
  45 H45           -1.2880   -13.0035    -0.8767 H       
  46 H46           -1.3297   -10.5846    -0.4385 H       
  47 H47           -6.2881   -13.6298    -0.5021 H       
  48 H48           -5.4611   -14.4885     0.8196 H       
  49 H49           -6.3784   -13.0018     1.1609 H       
  50 H50           -6.3757   -10.3526     0.1094 H       
  51 H51           -6.3366   -11.4006     1.5476 H       
  52 H52           -5.5024    -9.8283     1.5691 H       
  53 H53           -1.6522   -14.9888    -1.8545 H       
  54 H54           -1.3047   -15.3001    -0.1367 H       
  55 H55           -3.1061   -17.0588    -1.8674 H       
  56 H56           -1.2088   -18.0799    -2.6297 H       
  57 H57           -0.2131   -16.8787    -1.7597 H       
  58 H58           -0.2553   -19.5717    -1.1097 H       
  59 H59            0.0902   -18.2818     0.0848 H       
  60 H60           -2.5825   -19.6768    -0.4867 H       
  61 H61           -1.7915   -19.3908     1.0986 H       
  62 H62           -2.2436   -17.0268     1.0228 H       
  63 H63           -3.7309   -17.7027     0.2873 H       
@<TRIPOS>BOND
   1    1    2 1
   2    1    8 2
   3    1    9 1
   4    2    3 ar
   5    2    7 ar
   6    3    4 ar
   7    3   32 1
   8    4    5 ar
   9    4   33 1
  10    5    6 ar
  11    5   10 1
  12    6    7 ar
  13    6   34 1
  14    7   35 1
  15    9   36 1
  16   10   11 1
  17   11   12 1
  18   11   37 1
  19   11   38 1
  20   12   13 1
  21   12   39 1
  22   12   40 1
  23   13   14 1
  24   13   41 1
  25   13   42 1
  26   14   15 1
  27   14   43 1
  28   14   44 1
  29   15   16 1
  30   16   17 ar
  31   16   21 ar
  32   17   18 ar
  33   17   23 1
  34   18   19 ar
  35   18   22 1
  36   19   20 ar
  37   19   24 1
  38   20   21 ar
  39   20   45 1
  40   21   46 1
  41   22   47 1
  42   22   48 1
  43   22   49 1
  44   23   50 1
  45   23   51 1
  46   23   52 1
  47   24   25 2
  48   24   26 1
  49   26   27 1
  50   26   53 1
  51   26   54 1
  52   27   28 1
  53   27   31 1
  54   27   55 1
  55   28   29 1
  56   28   56 1
  57   28   57 1
  58   29   30 1
  59   29   58 1
  60   29   59 1
  61   30   31 1
  62   30   60 1
  63   30   61 1
  64   31   62 1
  65   31   63 1

#	End of record

