#	Name: ASD03731506
#	Creating user name:	WinNT
#	Creation time:	15. 06. 2019 20:45

#	Modifying user name:	WinNT
#	Modification time:	15. 06. 2019 20:45

#	Program:	/corina/corina34_cracker 3.40 0067  02.08.2006

@<TRIPOS>MOLECULE
ASD03731506
  69   76    0    0    0
SMALL
NO_CHARGES


@<TRIPOS>ATOM
   1 N1            -0.0163     1.3478     0.0095 N.am    
   2 C2             0.0021    -0.0041     0.0020 C.2     
   3 C3             0.6381    -0.7489     1.0999 C.2     
   4 C4             1.1629    -0.0544     2.2781 C.2     
   5 C5             1.7924     1.0739     2.2819 C.2     
   6 C6             2.1129     1.8865     1.1046 C.2     
   7 C7             1.1509     2.0293     0.0020 C.2     
   8 C8             0.6997    -2.0660     1.0459 C.2     
   9 C9             0.1040    -2.7900    -0.0885 C.2     
  10 C10           -0.4898    -2.1235    -1.0555 C.2     
  11 C11           -0.5408    -0.6529    -1.0082 C.2     
  12 C12            1.4323     2.8126    -1.0205 C.2     
  13 C13            2.7216     3.5208    -1.0769 C.2     
  14 C14            3.5959     3.3695    -0.1049 C.2     
  15 C15            3.2738     2.5107     1.0461 C.2     
  16 C16           -1.1896     2.0109     0.0186 C.2     
  17 O17           -2.2343     1.3949     0.0203 O.2     
  18 N18           -1.2020     3.3586     0.0260 N.am    
  19 C19           -2.4774     4.0794     0.0360 C.3     
  20 C20           -2.2116     5.5861     0.0429 C.3     
  21 C21           -3.5436     6.3389     0.0534 C.3     
  22 O22            1.9737    10.4199    -2.0904 O.3     
  23 C23            2.6054    11.6916    -2.3287 C.3     
  24 O24            1.5385    12.5138    -2.8373 O.3     
  25 C25            0.3918    11.9930    -2.3093 C.ar    
  26 C26            0.6599    10.7050    -1.8511 C.ar    
  27 C27           -0.8795    12.5227    -2.1796 C.ar    
  28 C28           -1.8979    11.7764    -1.5944 C.ar    
  29 C29           -1.6201    10.4879    -1.1481 C.ar    
  30 C30           -0.3520     9.9592    -1.2704 C.ar    
  31 O31           -3.1987    12.1114    -1.3577 O.3     
  32 C32           -2.9090     9.9367    -0.5997 C.3     
  33 C33           -3.9655    10.9121    -1.1363 C.3     
  34 N34           -3.2891     7.7816     0.0600 N.am    
  35 C35           -3.1642     8.5288    -1.0550 C.2     
  36 C36           -2.9126     9.8770     0.8991 C.ar    
  37 C37           -2.7403    10.8184     1.8892 C.ar    
  38 C38           -2.8019    10.4439     3.2196 C.ar    
  39 C39           -3.0363     9.1222     3.5525 C.ar    
  40 C40           -3.2085     8.1754     2.5644 C.ar    
  41 C41           -3.1485     8.5433     1.2225 C.ar    
  42 O42           -3.2430     8.1401    -2.2012 O.2     
  43 H43            1.0088    -0.5309     3.2349 H       
  44 H44            2.1116     1.4538     3.2411 H       
  45 H45            1.1895    -2.6146     1.8368 H       
  46 H46            0.1545    -3.8681    -0.1276 H       
  47 H47           -0.9385    -2.6542    -1.8823 H       
  48 H48           -1.0239    -0.1046    -1.8034 H       
  49 H49            0.7154     2.9347    -1.8189 H       
  50 H50            2.9498     4.1631    -1.9146 H       
  51 H51            4.5489     3.8754    -0.1516 H       
  52 H52            3.9900     2.3910     1.8455 H       
  53 H53           -0.3664     3.8513     0.0247 H       
  54 H54           -3.0507     3.8156    -0.8527 H       
  55 H55           -3.0422     3.8060     0.9272 H       
  56 H56           -1.6383     5.8499     0.9316 H       
  57 H57           -1.6467     5.8595    -0.8483 H       
  58 H58           -4.1169     6.0751    -0.8354 H       
  59 H59           -4.1085     6.0655     0.9446 H       
  60 H60            2.9974    12.1046    -1.3993 H       
  61 H61            3.3988    11.5922    -3.0695 H       
  62 H62           -1.0829    13.5221    -2.5348 H       
  63 H63           -0.1480     8.9608    -0.9127 H       
  64 H64           -4.7464    11.0831    -0.3953 H       
  65 H65           -4.3907    10.5464    -2.0710 H       
  66 H66           -2.5572    11.8499     1.6269 H       
  67 H67           -2.6678    11.1822     3.9964 H       
  68 H68           -3.0843     8.8299     4.5911 H       
  69 H69           -3.3906     7.1451     2.8323 H       
@<TRIPOS>BOND
   1    1    2 1
   2    1    7 1
   3    1   16 am
   4    2    3 1
   5    2   11 2
   6    3    4 1
   7    3    8 2
   8    4    5 2
   9    4   43 1
  10    5    6 1
  11    5   44 1
  12    6    7 1
  13    6   15 2
  14    7   12 2
  15    8    9 1
  16    8   45 1
  17    9   10 2
  18    9   46 1
  19   10   11 1
  20   10   47 1
  21   11   48 1
  22   12   13 1
  23   12   49 1
  24   13   14 2
  25   13   50 1
  26   14   15 1
  27   14   51 1
  28   15   52 1
  29   16   17 2
  30   16   18 am
  31   18   19 1
  32   18   53 1
  33   19   20 1
  34   19   54 1
  35   19   55 1
  36   20   21 1
  37   20   56 1
  38   20   57 1
  39   21   34 1
  40   21   58 1
  41   21   59 1
  42   22   23 1
  43   22   26 1
  44   23   24 1
  45   23   60 1
  46   23   61 1
  47   24   25 1
  48   25   26 ar
  49   25   27 ar
  50   26   30 ar
  51   27   28 ar
  52   27   62 1
  53   28   29 ar
  54   28   31 1
  55   29   30 ar
  56   29   32 1
  57   30   63 1
  58   31   33 1
  59   32   33 1
  60   32   35 1
  61   32   36 1
  62   33   64 1
  63   33   65 1
  64   34   35 am
  65   34   41 1
  66   35   42 2
  67   36   37 ar
  68   36   41 ar
  69   37   38 ar
  70   37   66 1
  71   38   39 ar
  72   38   67 1
  73   39   40 ar
  74   39   68 1
  75   40   41 ar
  76   40   69 1

#	End of record

