#	Name: ASD01880399
#	Creating user name:	WinNT
#	Creation time:	15. 06. 2019 19:40

#	Modifying user name:	WinNT
#	Modification time:	15. 06. 2019 19:40

#	Program:	/corina/corina34_cracker 3.40 0067  02.08.2006

@<TRIPOS>MOLECULE
ASD01880399
  41   43    0    0    0
SMALL
NO_CHARGES


@<TRIPOS>ATOM
   1 C1            -0.0158     1.3166     0.0093 C.ar    
   2 N2             0.0021    -0.0041     0.0020 N.ar    
   3 C3             1.1445    -0.6746    -0.0125 C.ar    
   4 C4             2.3648     0.0485    -0.0202 C.ar    
   5 C5             2.2891     1.4440    -0.0120 C.ar    
   6 N6             1.0857     2.0309     0.0026 N.ar    
   7 C7             3.7373    -0.4211    -0.0353 C.2     
   8 C8             4.6485     0.5323    -0.0385 C.2     
   9 S9             3.9102     2.1228    -0.0232 S.3     
  10 C10            6.1352     0.2862    -0.0535 C.3     
  11 C11            6.6251     0.2107    -1.5010 C.3     
  12 C12            8.1345    -0.0391    -1.5161 C.3     
  13 N13            1.1474    -2.0578    -0.0195 N.pl3   
  14 C14           -0.1198    -2.7930    -0.0109 C.3     
  15 C15            0.1587    -4.2740    -0.0210 C.ar    
  16 C16            0.2978    -4.9583     1.1723 C.ar    
  17 C17            0.5530    -6.3160     1.1657 C.ar    
  18 C18            0.6698    -6.9928    -0.0397 C.ar    
  19 C19            0.5297    -6.3039    -1.2357 C.ar    
  20 C20            0.2689    -4.9473    -1.2236 C.ar    
  21 O21            0.9213    -8.3283    -0.0489 O.3     
  22 C22            1.0287    -8.9594    -1.3264 C.3     
  23 H23           -0.9682     1.8258     0.0165 H       
  24 H24            3.9931    -1.4704    -0.0429 H       
  25 H25            6.6437     1.1022     0.4601 H       
  26 H26            6.3530    -0.6539     0.4533 H       
  27 H27            6.1166    -0.6053    -2.0145 H       
  28 H28            6.4073     1.1508    -2.0078 H       
  29 H29            8.6430     0.7768    -1.0026 H       
  30 H30            8.3523    -0.9793    -1.0093 H       
  31 H31            8.4835    -0.0930    -2.5474 H       
  32 H32            1.9884    -2.5410    -0.0301 H       
  33 H33           -0.6832    -2.5354     0.8859 H       
  34 H34           -0.7005    -2.5264    -0.8939 H       
  35 H35            0.2072    -4.4309     2.1104 H       
  36 H36            0.6620    -6.8500     2.0981 H       
  37 H37            0.6201    -6.8285    -2.1754 H       
  38 H38            0.1598    -4.4105    -2.1544 H       
  39 H39            1.2302   -10.0220    -1.1909 H       
  40 H40            0.0945    -8.8336    -1.8736 H       
  41 H41            1.8436    -8.5040    -1.8893 H       
@<TRIPOS>BOND
   1    1    2 ar
   2    1    6 ar
   3    1   23 1
   4    2    3 ar
   5    3    4 ar
   6    3   13 1
   7    4    5 ar
   8    4    7 1
   9    5    6 ar
  10    5    9 1
  11    7    8 2
  12    7   24 1
  13    8    9 1
  14    8   10 1
  15   10   11 1
  16   10   25 1
  17   10   26 1
  18   11   12 1
  19   11   27 1
  20   11   28 1
  21   12   29 1
  22   12   30 1
  23   12   31 1
  24   13   14 1
  25   13   32 1
  26   14   15 1
  27   14   33 1
  28   14   34 1
  29   15   16 ar
  30   15   20 ar
  31   16   17 ar
  32   16   35 1
  33   17   18 ar
  34   17   36 1
  35   18   19 ar
  36   18   21 1
  37   19   20 ar
  38   19   37 1
  39   20   38 1
  40   21   22 1
  41   22   39 1
  42   22   40 1
  43   22   41 1

#	End of record

