#	Name: ASD01350034
#	Creating user name:	WinNT
#	Creation time:	15. 06. 2019 19:16

#	Modifying user name:	WinNT
#	Modification time:	15. 06. 2019 19:16

#	Program:	/corina/corina34_cracker 3.40 0067  02.08.2006

@<TRIPOS>MOLECULE
ASD01350034
  44   46    0    0    0
SMALL
NO_CHARGES


@<TRIPOS>ATOM
   1 C1            -0.0408     1.2712     0.3103 C.3     
   2 C2            -0.3182    -0.2093     0.2635 C.ar    
   3 C3             1.4461     1.5061     0.2391 C.ar    
   4 O4            -0.6776     1.9103    -0.7978 O.3     
   5 C5            -0.6133    -0.8943     1.4274 C.ar    
   6 C6            -0.8677    -2.2524     1.3846 C.ar    
   7 C7            -0.8276    -2.9254     0.1777 C.ar    
   8 C8            -0.5334    -2.2402    -0.9863 C.ar    
   9 C9            -0.2832    -0.8813    -0.9440 C.ar    
  10 C10            2.0469     1.7664    -0.9779 C.ar    
  11 C11            3.4108     1.9820    -1.0440 C.ar    
  12 C12            4.1751     1.9368     0.1082 C.ar    
  13 C13            3.5742     1.6762     1.3268 C.ar    
  14 C14            2.2087     1.4667     1.3931 C.ar    
  15 Cl15           5.8881     2.2065     0.0248 Cl      
  16 Cl16           1.4537     1.1401     2.9219 Cl      
  17 C17           -2.0263     2.3080    -0.5429 C.3     
  18 C18           -2.0345     3.6649     0.1127 C.ar    
  19 C19           -2.7965     2.3748    -1.8632 C.3     
  20 N20           -2.8399     1.0391    -2.4730 N.3     
  21 C21           -2.9223     3.9316     1.1382 C.ar    
  22 C22           -2.9299     5.1763     1.7395 C.ar    
  23 C23           -2.0494     6.1541     1.3157 C.ar    
  24 C24           -1.1611     5.8870     0.2908 C.ar    
  25 C25           -1.1505     4.6410    -0.3076 C.ar    
  26 H26           -0.4298     1.6845     1.2408 H       
  27 H27           -0.6446    -0.3686     2.3703 H       
  28 H28           -1.0976    -2.7877     2.2940 H       
  29 H29           -1.0257    -3.9865     0.1443 H       
  30 H30           -0.5017    -2.7660    -1.9291 H       
  31 H31           -0.0534    -0.3460    -1.8534 H       
  32 H32            1.4507     1.8011    -1.8778 H       
  33 H33            3.8798     2.1854    -1.9954 H       
  34 H34            4.1705     1.6408     2.2266 H       
  35 H35           -2.5003     1.5823     0.1179 H       
  36 H36           -3.8126     2.7210    -1.6740 H       
  37 H37           -2.2969     3.0674    -2.5407 H       
  38 H38           -3.2960     1.0669    -3.3726 H       
  39 H39           -1.9137     0.6461    -2.5492 H       
  40 H40           -3.6102     3.1677     1.4693 H       
  41 H41           -3.6240     5.3849     2.5403 H       
  42 H42           -2.0559     7.1267     1.7851 H       
  43 H43           -0.4734     6.6511    -0.0405 H       
  44 H44           -0.4564     4.4323    -1.1083 H       
@<TRIPOS>BOND
   1    1    2 1
   2    1    3 1
   3    1    4 1
   4    1   26 1
   5    2    5 ar
   6    2    9 ar
   7    3   10 ar
   8    3   14 ar
   9    4   17 1
  10    5    6 ar
  11    5   27 1
  12    6    7 ar
  13    6   28 1
  14    7    8 ar
  15    7   29 1
  16    8    9 ar
  17    8   30 1
  18    9   31 1
  19   10   11 ar
  20   10   32 1
  21   11   12 ar
  22   11   33 1
  23   12   13 ar
  24   12   15 1
  25   13   14 ar
  26   13   34 1
  27   14   16 1
  28   17   18 1
  29   17   19 1
  30   17   35 1
  31   18   21 ar
  32   18   25 ar
  33   19   20 1
  34   19   36 1
  35   19   37 1
  36   20   38 1
  37   20   39 1
  38   21   22 ar
  39   21   40 1
  40   22   23 ar
  41   22   41 1
  42   23   24 ar
  43   23   42 1
  44   24   25 ar
  45   24   43 1
  46   25   44 1

#	End of record

