#	Name: ASD01150520
#	Creating user name:	WinNT
#	Creation time:	15. 06. 2019 19:04

#	Modifying user name:	WinNT
#	Modification time:	15. 06. 2019 19:04

#	Program:	/corina/corina34_cracker 3.40 0067  02.08.2006

@<TRIPOS>MOLECULE
ASD01150520
  50   52    0    0    0
SMALL
NO_CHARGES


@<TRIPOS>ATOM
   1 C1             2.0958     1.2690    -0.6485 C.ar    
   2 C2             2.1062    -0.1062    -0.5202 C.ar    
   3 C3             0.4431     0.0381     1.2051 C.ar    
   4 C4             0.4300     1.4198     1.0789 C.ar    
   5 C5             1.2572     2.0366     0.1510 C.ar    
   6 N6             1.2475     3.4297     0.0208 N.am    
   7 C7             0.0750     4.0751    -0.1089 C.2     
   8 N8             0.0289     5.4144    -0.2358 N.am    
   9 C9             1.1707     6.1331    -0.2344 C.2     
  10 C10            2.4560     5.4336    -0.0930 C.2     
  11 N11            2.4581     4.1325     0.0331 N.2     
  12 O12            1.1371     7.3444    -0.3491 O.2     
  13 O13           -0.9611     3.4381    -0.1119 O.2     
  14 C14           -1.2070     6.0631    -0.3700 C.ar    
  15 O15            3.6229     6.1291    -0.0880 O.3     
  16 C16            4.8277     5.3738     0.0538 C.3     
  17 C17            1.2836    -0.7233     0.4029 C.ar    
  18 C18           -1.6870     6.8612     0.6593 C.ar    
  19 C19           -2.9042     7.5008     0.5283 C.ar    
  20 C20           -3.6486     7.3459    -0.6329 C.ar    
  21 C21           -3.1680     6.5464    -1.6652 C.ar    
  22 C22           -1.9478     5.9114    -1.5352 C.ar    
  23 N23           -0.3898    -0.5877     2.1392 N.am    
  24 C24           -0.9397    -1.7852     1.8561 C.2     
  25 O25           -0.6599    -2.3514     0.8206 O.2     
  26 C26           -1.9021    -2.4207     2.8261 C.3     
  27 F27           -3.8919     6.3947    -2.7957 F       
  28 N28           -4.8826     7.9933    -0.7652 N.3     
  29 C29           -5.8164     7.5664     0.2854 C.3     
  30 C30           -4.7147     9.4527    -0.7589 C.3     
  31 H31            2.7431     1.7486    -1.3677 H       
  32 H32            2.7584    -0.7005    -1.1429 H       
  33 H33           -0.2225     2.0140     1.7014 H       
  34 H34            4.8067     4.8302     0.9983 H       
  35 H35            4.9121     4.6662    -0.7710 H       
  36 H36            5.6833     6.0491     0.0421 H       
  37 H37            1.2939    -1.7988     0.5006 H       
  38 H38           -1.1085     6.9819     1.5632 H       
  39 H39           -3.2771     8.1213     1.3297 H       
  40 H40           -1.5739     5.2906    -2.3359 H       
  41 H41           -0.5714    -0.1597     2.9905 H       
  42 H42           -2.0289    -1.7698     3.6912 H       
  43 H43           -2.8655    -2.5682     2.3381 H       
  44 H44           -1.5080    -3.3837     3.1507 H       
  45 H45           -5.3984     7.8071     1.2628 H       
  46 H46           -6.7670     8.0846     0.1591 H       
  47 H47           -5.9767     6.4906     0.2137 H       
  48 H48           -4.0741     9.7483    -1.5898 H       
  49 H49           -5.6886     9.9309    -0.8631 H       
  50 H50           -4.2568     9.7618     0.1807 H       
@<TRIPOS>BOND
   1    1    2 ar
   2    1    5 ar
   3    1   31 1
   4    2   17 ar
   5    2   32 1
   6    3    4 ar
   7    3   23 1
   8    3   17 ar
   9    4    5 ar
  10    4   33 1
  11    5    6 1
  12    6    7 am
  13    6   11 1
  14    7    8 am
  15    7   13 2
  16    8    9 am
  17    8   14 1
  18    9   10 1
  19    9   12 2
  20   10   11 2
  21   10   15 1
  22   14   18 ar
  23   14   22 ar
  24   15   16 1
  25   16   34 1
  26   16   35 1
  27   16   36 1
  28   17   37 1
  29   18   19 ar
  30   18   38 1
  31   19   20 ar
  32   19   39 1
  33   20   21 ar
  34   20   28 1
  35   21   22 ar
  36   21   27 1
  37   22   40 1
  38   23   24 am
  39   23   41 1
  40   24   25 2
  41   24   26 1
  42   26   42 1
  43   26   43 1
  44   26   44 1
  45   28   29 1
  46   28   30 1
  47   29   45 1
  48   29   46 1
  49   29   47 1
  50   30   48 1
  51   30   49 1
  52   30   50 1

#	End of record

