#	Name: ASD04912008
#	Creating user name:	WinNT
#	Creation time:	15. 06. 2019 20:56

#	Modifying user name:	WinNT
#	Modification time:	15. 06. 2019 20:56

#	Program:	/corina/corina34_cracker 3.40 0067  02.08.2006

@<TRIPOS>MOLECULE
ASD04912008
  57   61    0    0    0
SMALL
NO_CHARGES


@<TRIPOS>ATOM
   1 C1            -0.0160     1.3297     0.0094 C.2     
   2 C2             0.0021    -0.0041     0.0020 C.2     
   3 C3             1.2652    -0.5702    -0.0131 C.2     
   4 C4             2.2728     0.3038    -0.0180 C.2     
   5 S5             1.6328     1.9420    -0.0031 S.3     
   6 C6             3.7359    -0.0572    -0.0332 C.3     
   7 C7             4.3965     0.5254    -1.2846 C.3     
   8 C8             5.8700     0.1987    -1.2766 C.2     
   9 C9             6.5521     0.1008    -0.1130 C.2     
  10 C10            5.9003     0.2548     1.1211 C.2     
  11 C11            4.4254     0.5359     1.1998 C.3     
  12 O12            6.5426     0.1588     2.1484 O.2     
  13 N13            6.4728    -0.0154    -2.5024 N.pl3   
  14 C14            7.7631    -0.6800    -2.4503 C.3     
  15 C15            8.5993     0.1804    -1.4422 C.3     
  16 C16            8.0526    -0.1561    -0.0731 C.3     
  17 N17            8.6610    -0.5537    -3.5999 N.pl3   
  18 N18            9.9543    -0.6675    -3.0257 N.2     
  19 C19            9.9822    -0.2761    -1.7915 C.2     
  20 C20            8.3084    -0.3572    -5.0082 C.3     
  21 C21           11.1813    -0.2786    -0.8786 C.3     
  22 C22            8.6966     0.7237     0.9673 C.ar    
  23 C23            9.4213     0.1556     1.9988 C.ar    
  24 C24           10.0126     0.9599     2.9537 C.ar    
  25 C25            9.8788     2.3386     2.8771 C.ar    
  26 C26            9.1511     2.9061     1.8412 C.ar    
  27 C27            8.5665     2.0977     0.8856 C.ar    
  28 O28           10.4591     3.1320     3.8156 O.3     
  29 C29           10.2797     4.5425     3.6736 C.3     
  30 C30           10.9885     5.2546     4.7968 C.2     
  31 O31           10.9560     6.5946     4.8682 O.3     
  32 O32           11.5860     4.6194     5.6330 O.2     
  33 H33           -0.9068     1.9402     0.0171 H       
  34 H34           -0.9004    -0.5973     0.0078 H       
  35 H35            1.4228    -1.6386    -0.0200 H       
  36 H36            3.8456    -1.1416    -0.0320 H       
  37 H37            3.9340     0.0953    -2.1730 H       
  38 H38            4.2645     1.6073    -1.2946 H       
  39 H39            4.2605     1.6130     1.2272 H       
  40 H40            4.0151     0.0802     2.1009 H       
  41 H41            6.0632     0.2591    -3.3377 H       
  42 H42            7.6639    -1.7132    -2.1173 H       
  43 H43            8.4736     1.2429    -1.6502 H       
  44 H44            8.2439    -1.2045     0.1558 H       
  45 H45            8.2503     0.7100    -5.2227 H       
  46 H46            9.0698    -0.8139    -5.6405 H       
  47 H47            7.3429    -0.8212    -5.2092 H       
  48 H48           12.0464    -0.6669    -1.4162 H       
  49 H49           11.3868     0.7388    -0.5460 H       
  50 H50           10.9779    -0.9096    -0.0134 H       
  51 H51            9.5248    -0.9178     2.0582 H       
  52 H52           10.5782     0.5157     3.7594 H       
  53 H53            9.0455     3.9792     1.7794 H       
  54 H54            8.0000     2.5390     0.0789 H       
  55 H55           10.6937     4.8672     2.7190 H       
  56 H56            9.2161     4.7787     3.7076 H       
  57 H57           11.4253     7.0064     5.6066 H       
@<TRIPOS>BOND
   1    1    2 2
   2    1    5 1
   3    1   33 1
   4    2    3 1
   5    2   34 1
   6    3    4 2
   7    3   35 1
   8    4    5 1
   9    4    6 1
  10    6    7 1
  11    6   11 1
  12    6   36 1
  13    7    8 1
  14    7   37 1
  15    7   38 1
  16    8    9 2
  17    8   13 1
  18    9   10 1
  19    9   16 1
  20   10   11 1
  21   10   12 2
  22   11   39 1
  23   11   40 1
  24   13   14 1
  25   13   41 1
  26   14   15 1
  27   14   17 1
  28   14   42 1
  29   15   16 1
  30   15   19 1
  31   15   43 1
  32   16   22 1
  33   16   44 1
  34   17   18 1
  35   17   20 1
  36   18   19 2
  37   19   21 1
  38   20   45 1
  39   20   46 1
  40   20   47 1
  41   21   48 1
  42   21   49 1
  43   21   50 1
  44   22   23 ar
  45   22   27 ar
  46   23   24 ar
  47   23   51 1
  48   24   25 ar
  49   24   52 1
  50   25   26 ar
  51   25   28 1
  52   26   27 ar
  53   26   53 1
  54   27   54 1
  55   28   29 1
  56   29   30 1
  57   29   55 1
  58   29   56 1
  59   30   31 1
  60   30   32 2
  61   31   57 1

#	End of record

