#	Name: ASD01140279
#	Creating user name:	WinNT
#	Creation time:	15. 06. 2019 19:00

#	Modifying user name:	WinNT
#	Modification time:	15. 06. 2019 19:00

#	Program:	/corina/corina34_cracker 3.40 0067  02.08.2006

@<TRIPOS>MOLECULE
ASD01140279
  36   38    0    0    0
SMALL
NO_CHARGES


@<TRIPOS>ATOM
   1 C1            -0.0166     1.3744     0.0096 C.ar    
   2 C2             0.0021    -0.0041     0.0020 C.ar    
   3 C3             1.2130    -0.6806    -0.0136 C.ar    
   4 C4             2.3981     0.0205    -0.0097 C.ar    
   5 C5             2.3961     1.4257     0.0102 C.ar    
   6 C6             1.1728     2.0976     0.0021 C.ar    
   7 N7             1.0901     3.4916    -0.0463 N.pl3   
   8 C8             3.6901     2.1086     0.0702 C.2     
   9 C9             1.9177     4.3143    -0.7371 C.2     
  10 N10            4.0461     3.2127    -0.5848 N.am    
  11 C11            3.1325     3.8825    -1.5171 C.3     
  12 N12            0.3718     5.5155     0.2490 N.2     
  13 C13            0.1585     4.2712     0.5691 C.2     
  14 C14            1.4562     5.5839    -0.5688 C.2     
  15 O15            4.5306     1.6146     0.7967 O.2     
  16 C16            5.3829     3.7719    -0.3688 C.3     
  17 C17            2.0257     6.8045    -1.1618 C.2     
  18 O18            3.0035     6.7321    -1.8801 O.2     
  19 O19            1.4630     8.0028    -0.9082 O.3     
  20 C20            2.0777     9.1638    -1.5266 C.3     
  21 C21            1.3065    10.4232    -1.1263 C.3     
  22 F22            1.2296    -2.0314    -0.0324 F       
  23 H23           -0.9615     1.8973     0.0169 H       
  24 H24           -0.9256    -0.5570     0.0086 H       
  25 H25            3.3366    -0.5138    -0.0216 H       
  26 H26            2.8380     3.1913    -2.3068 H       
  27 H27            3.6217     4.7543    -1.9515 H       
  28 H28           -0.6290     3.9156     1.2171 H       
  29 H29            5.9236     3.1541     0.3482 H       
  30 H30            5.9256     3.7914    -1.3138 H       
  31 H31            5.2939     4.7863     0.0201 H       
  32 H32            3.1115     9.2491    -1.1919 H       
  33 H33            2.0547     9.0530    -2.6107 H       
  34 H34            1.7680    11.2948    -1.5905 H       
  35 H35            0.2727    10.3379    -1.4610 H       
  36 H36            1.3295    10.5341    -0.0422 H       
@<TRIPOS>BOND
   1    1    2 ar
   2    1    6 ar
   3    1   23 1
   4    2    3 ar
   5    2   24 1
   6    3    4 ar
   7    3   22 1
   8    4    5 ar
   9    4   25 1
  10    5    6 ar
  11    5    8 1
  12    6    7 1
  13    7    9 1
  14    7   13 1
  15    8   10 am
  16    8   15 2
  17    9   11 1
  18    9   14 2
  19   10   16 1
  20   10   11 1
  21   11   26 1
  22   11   27 1
  23   12   13 2
  24   12   14 1
  25   13   28 1
  26   14   17 1
  27   16   29 1
  28   16   30 1
  29   16   31 1
  30   17   18 2
  31   17   19 1
  32   19   20 1
  33   20   21 1
  34   20   32 1
  35   20   33 1
  36   21   34 1
  37   21   35 1
  38   21   36 1

#	End of record

