#	Name: ASD06170234
#	Creating user name:	WinNT
#	Creation time:	15. 06. 2019 21:05

#	Modifying user name:	WinNT
#	Modification time:	15. 06. 2019 21:05

#	Program:	/corina/corina34_cracker 3.40 0067  02.08.2006

@<TRIPOS>MOLECULE
ASD06170234
  74   78    0    0    0
SMALL
NO_CHARGES


@<TRIPOS>ATOM
   1 C1             2.5284     1.6028     0.3655 C.2     
   2 N2             2.7236     0.2765     0.3194 N.am    
   3 C3             1.6189    -0.6470     0.0560 C.3     
   4 C4             0.3136    -0.0284     0.5677 C.3     
   5 C5             0.1373     1.3473    -0.0841 C.3     
   6 N6             1.3225     2.1625     0.1869 N.am    
   7 C7             1.1996     3.5027     0.2589 C.2     
   8 O8             2.1532     4.1841     0.5812 O.2     
   9 N9             0.0193     4.0875    -0.0265 N.am    
  10 C10            4.0097    -0.2346     0.5269 C.ar    
  11 C11            4.6301    -0.9816    -0.4659 C.ar    
  12 C12            5.8996    -1.4843    -0.2582 C.ar    
  13 C13            6.5528    -1.2445     0.9368 C.ar    
  14 C14            5.9376    -0.5015     1.9275 C.ar    
  15 C15            4.6704     0.0088     1.7238 C.ar    
  16 O16            3.4811     2.3258     0.5826 O.2     
  17 C17           -0.8642    -0.9297     0.1917 C.3     
  18 N18           -0.7518    -2.2068     0.9088 N.3     
  19 C19           -0.9782    -2.0238     2.3486 C.3     
  20 C20           -1.6751    -3.2054     0.3535 C.3     
  21 C21           -0.0718     5.4838    -0.0969 C.ar    
  22 C22           -1.2361     6.1249     0.3056 C.ar    
  23 C23           -1.3250     7.5025     0.2363 C.ar    
  24 C24           -0.2492     8.2447    -0.2361 C.ar    
  25 C25            0.9125     7.6035    -0.6380 C.ar    
  26 C26            1.0037     6.2270    -0.5635 C.ar    
  27 F27           -2.4573     8.1272     0.6272 F       
  28 O28           -0.3361     9.6002    -0.3045 O.3     
  29 N29            0.2746    11.7362     3.1705 N.ar    
  30 C30            0.2455    10.4244     3.1985 C.ar    
  31 C31            0.0421     9.6715     2.0490 C.ar    
  32 C32           -0.1361    10.3091     0.8338 C.ar    
  33 C33           -0.1028    11.7217     0.8157 C.ar    
  34 C34           -0.2759    12.4384    -0.3779 C.ar    
  35 C35           -0.2383    13.8027    -0.3581 C.ar    
  36 C36           -0.0283    14.4948     0.8431 C.ar    
  37 C37            0.1431    13.8220     2.0186 C.ar    
  38 C38            0.1095    12.4178     2.0305 C.ar    
  39 O39            0.0054    15.8532     0.8371 O.3     
  40 C40            0.2228    16.5023     2.0915 C.3     
  41 O41           -0.4057    14.4975    -1.5149 O.3     
  42 C42           -0.6152    13.7350    -2.7052 C.3     
  43 H43            1.5414    -0.8258    -1.0165 H       
  44 H44            1.8016    -1.5900     0.5712 H       
  45 H45            0.3614     0.0832     1.6509 H       
  46 H46            0.0160     1.2275    -1.1607 H       
  47 H47           -0.7440     1.8366     0.3306 H       
  48 H48           -0.7671     3.5416    -0.1832 H       
  49 H49            4.1203    -1.1695    -1.3992 H       
  50 H50            6.3825    -2.0656    -1.0297 H       
  51 H51            7.5455    -1.6387     1.0968 H       
  52 H52            6.4501    -0.3165     2.8600 H       
  53 H53            4.1923     0.5931     2.4961 H       
  54 H54           -1.7985    -0.4400     0.4659 H       
  55 H55           -0.8522    -1.1139    -0.8826 H       
  56 H56           -2.0009    -1.6857     2.5155 H       
  57 H57           -0.8199    -2.9708     2.8646 H       
  58 H58           -0.2819    -1.2791     2.7341 H       
  59 H59           -1.4399    -3.3729    -0.6976 H       
  60 H60           -1.5714    -4.1412     0.9026 H       
  61 H61           -2.6992    -2.8430     0.4433 H       
  62 H62           -2.0718     5.5473     0.6723 H       
  63 H63            1.7480     8.1807    -1.0057 H       
  64 H64            1.9106     5.7286    -0.8727 H       
  65 H65            0.3838     9.9162     4.1414 H       
  66 H66            0.0235     8.5930     2.1034 H       
  67 H67           -0.4378    11.9133    -1.3076 H       
  68 H68            0.3043    14.3678     2.9365 H       
  69 H69           -0.5749    16.2323     2.7834 H       
  70 H70            1.1821    16.1873     2.5022 H       
  71 H71            0.2271    17.5825     1.9457 H       
  72 H72           -0.7337    14.4099    -3.5529 H       
  73 H73            0.2427    13.0846    -2.8757 H       
  74 H74           -1.5144    13.1290    -2.5948 H       
@<TRIPOS>BOND
   1    1    2 am
   2    1    6 am
   3    1   16 2
   4    2    3 1
   5    2   10 1
   6    3    4 1
   7    3   43 1
   8    3   44 1
   9    4    5 1
  10    4   17 1
  11    4   45 1
  12    5    6 1
  13    5   46 1
  14    5   47 1
  15    6    7 am
  16    7    8 2
  17    7    9 am
  18    9   21 1
  19    9   48 1
  20   10   11 ar
  21   10   15 ar
  22   11   12 ar
  23   11   49 1
  24   12   13 ar
  25   12   50 1
  26   13   14 ar
  27   13   51 1
  28   14   15 ar
  29   14   52 1
  30   15   53 1
  31   17   18 1
  32   17   54 1
  33   17   55 1
  34   18   19 1
  35   18   20 1
  36   19   56 1
  37   19   57 1
  38   19   58 1
  39   20   59 1
  40   20   60 1
  41   20   61 1
  42   21   22 ar
  43   21   26 ar
  44   22   23 ar
  45   22   62 1
  46   23   24 ar
  47   23   27 1
  48   24   25 ar
  49   24   28 1
  50   25   26 ar
  51   25   63 1
  52   26   64 1
  53   28   32 1
  54   29   30 ar
  55   29   38 ar
  56   30   31 ar
  57   30   65 1
  58   31   32 ar
  59   31   66 1
  60   32   33 ar
  61   33   34 ar
  62   33   38 ar
  63   34   35 ar
  64   34   67 1
  65   35   36 ar
  66   35   41 1
  67   36   37 ar
  68   36   39 1
  69   37   38 ar
  70   37   68 1
  71   39   40 1
  72   40   69 1
  73   40   70 1
  74   40   71 1
  75   41   42 1
  76   42   72 1
  77   42   73 1
  78   42   74 1

#	End of record

