#	Name: ASD03080095
#	Creating user name:	WinNT
#	Creation time:	15. 06. 2019 20:26

#	Modifying user name:	WinNT
#	Modification time:	15. 06. 2019 20:26

#	Program:	/corina/corina34_cracker 3.40 0067  02.08.2006

@<TRIPOS>MOLECULE
ASD03080095
  28   30    0    0    0
SMALL
NO_CHARGES


@<TRIPOS>ATOM
   1 O1             0.0021    -0.0041     0.0020 O.2     
   2 N2            -0.0144     1.2138     0.0087 N.pl3   
   3 O3             1.0320     1.8371     0.0021 O.2     
   4 C4            -1.3062     1.9364     0.0188 C.ar    
   5 C5            -2.4931     1.2254     0.0205 C.ar    
   6 C6            -3.7005     1.8928     0.0299 C.ar    
   7 C7            -3.7230     3.2882     0.0376 C.ar    
   8 C8            -2.5221     3.9994     0.0357 C.ar    
   9 C9            -1.3215     3.3198     0.0321 C.ar    
  10 C10           -5.0132     4.0100     0.0471 C.2     
  11 O11           -6.2371     3.4595     0.0499 O.3     
  12 N12           -7.0815     4.3299     0.0586 N.2     
  13 C13           -6.5175     5.5105     0.0624 C.2     
  14 N14           -5.1818     5.3188     0.0603 N.2     
  15 C15           -7.2178     6.8194     0.0728 C.ar    
  16 C16           -8.6136     6.8775     0.0802 C.ar    
  17 C17           -9.2190     8.1228     0.0903 C.ar    
  18 C18           -8.4300     9.2582     0.0927 C.ar    
  19 N19           -7.1137     9.1716     0.0855 N.ar    
  20 C20           -6.4936     8.0095     0.0811 C.ar    
  21 H21           -2.4744     0.1456     0.0142 H       
  22 H22           -4.6263     1.3366     0.0309 H       
  23 H23           -2.5326     5.0794     0.0417 H       
  24 H24           -0.3915     3.8689     0.0310 H       
  25 H25           -9.2055     5.9741     0.0778 H       
  26 H26          -10.2957     8.2062     0.0959 H       
  27 H27           -8.8987    10.2312     0.1002 H       
  28 H28           -5.4141     7.9790     0.0756 H       
@<TRIPOS>BOND
   1    1    2 2
   2    2    3 2
   3    2    4 1
   4    4    5 ar
   5    4    9 ar
   6    5    6 ar
   7    5   21 1
   8    6    7 ar
   9    6   22 1
  10    7    8 ar
  11    7   10 1
  12    8    9 ar
  13    8   23 1
  14    9   24 1
  15   10   11 1
  16   10   14 2
  17   11   12 1
  18   12   13 2
  19   13   14 1
  20   13   15 1
  21   15   16 ar
  22   15   20 ar
  23   16   17 ar
  24   16   25 1
  25   17   18 ar
  26   17   26 1
  27   18   19 ar
  28   18   27 1
  29   19   20 ar
  30   20   28 1

#	End of record

