#	Name: ASD09800048
#	Creating user name:	WinNT
#	Creation time:	15. 06. 2019 21:24

#	Modifying user name:	WinNT
#	Modification time:	15. 06. 2019 21:24

#	Program:	/corina/corina34_cracker 3.40 0067  02.08.2006

@<TRIPOS>MOLECULE
ASD09800048
  61   66    0    0    0
SMALL
NO_CHARGES


@<TRIPOS>ATOM
   1 C1            -2.5847    -0.3520     2.9534 C.2     
   2 N2            -3.4974    -1.1597     3.4622 N.2     
   3 C3            -4.5966    -1.4897     2.7718 C.2     
   4 C4            -4.8201    -1.0154     1.5327 C.2     
   5 C5            -2.7723     0.1785     1.6610 C.2     
   6 C6            -2.0429     1.0309     0.8393 C.2     
   7 N7            -3.9048    -0.1689     0.9482 N.pl3   
   8 C8            -3.8397     0.4649    -0.2365 C.2     
   9 N9            -2.7418     1.1742    -0.2989 N.2     
  10 C10           -0.7453     1.6604     1.1580 C.ar    
  11 C11            0.6454     3.6548     1.4204 C.ar    
  12 C12            1.7335     2.8254     1.7683 C.ar    
  13 C13            1.5704     1.4561     1.8002 C.ar    
  14 C14            0.3459     0.8761     1.4986 C.ar    
  15 C15           -0.6058     3.0700     1.1121 C.ar    
  16 N16            2.9736     3.3898     2.0746 N.am    
  17 C17            4.0942     2.6471     1.9787 C.2     
  18 N18            5.2769     3.1575     2.3753 N.am    
  19 O19            4.0382     1.5167     1.5344 O.2     
  20 N20           -1.4557    -0.0246     3.6856 N.pl3   
  21 C21           -4.8733     0.3691    -1.3289 C.3     
  22 C22           -6.3108     0.7579    -0.9775 C.3     
  23 C23           -5.4636     1.6772    -1.8596 C.3     
  24 C24           -4.6744    -0.7730    -2.3273 C.3     
  25 C25            0.7827     5.0514     1.3742 C.ar    
  26 C26           -1.6853     3.8949     0.7663 C.ar    
  27 C27           -1.5177     5.2466     0.7311 C.ar    
  28 C28           -0.2867     5.8232     1.0344 C.ar    
  29 C29            6.4949     2.3502     2.2711 C.3     
  30 C30            7.6702     3.1467     2.7765 C.ar    
  31 C31            9.8267     4.6074     3.7035 C.ar    
  32 C32            9.4707     4.6715     2.3693 C.ar    
  33 C33            8.3927     3.9409     1.9057 C.ar    
  34 C34            8.0223     3.0874     4.1119 C.ar    
  35 C35            9.1004     3.8179     4.5755 C.ar    
  36 H36           -5.3212    -2.1530     3.2206 H       
  37 H37           -5.7148    -1.2982     0.9979 H       
  38 H38            2.4064     0.8265     2.0670 H       
  39 H39            0.2419    -0.1984     1.5299 H       
  40 H40            3.0285     4.3164     2.3565 H       
  41 H41            5.3216     4.0593     2.7298 H       
  42 H42           -1.2688    -0.4831     4.5197 H       
  43 H43           -0.8519     0.6631     3.3643 H       
  44 H44           -7.1147     0.2002    -1.4578 H       
  45 H45           -6.5088     1.0829     0.0439 H       
  46 H46           -5.1043     2.6069    -1.4185 H       
  47 H47           -5.7102     1.7243    -2.9203 H       
  48 H48           -4.5893    -1.7164    -1.7880 H       
  49 H49           -5.5279    -0.8170    -3.0039 H       
  50 H50           -3.7643    -0.5993    -2.9015 H       
  51 H51            1.7318     5.5113     1.6068 H       
  52 H52           -2.6453     3.4609     0.5285 H       
  53 H53           -2.3509     5.8797     0.4640 H       
  54 H54           -0.1787     6.8972     0.9999 H       
  55 H55            6.3841     1.4463     2.8700 H       
  56 H56            6.6620     2.0775     1.2290 H       
  57 H57           10.6690     5.1782     4.0657 H       
  58 H58           10.0381     5.2882     1.6881 H       
  59 H59            8.1151     3.9903     0.8632 H       
  60 H60            7.4550     2.4706     4.7931 H       
  61 H61            9.3785     3.7679     5.6179 H       
@<TRIPOS>BOND
   1    1    2 2
   2    1   20 1
   3    1    5 1
   4    2    3 1
   5    3    4 2
   6    3   36 1
   7    4    7 1
   8    4   37 1
   9    5    7 1
  10    5    6 2
  11    6    9 1
  12    6   10 1
  13    7    8 1
  14    8    9 2
  15    8   21 1
  16   10   15 ar
  17   10   14 ar
  18   11   12 ar
  19   11   15 ar
  20   11   25 ar
  21   12   13 ar
  22   12   16 1
  23   13   14 ar
  24   13   38 1
  25   14   39 1
  26   15   26 ar
  27   16   17 am
  28   16   40 1
  29   17   18 am
  30   17   19 2
  31   18   29 1
  32   18   41 1
  33   20   42 1
  34   20   43 1
  35   21   22 1
  36   21   23 1
  37   21   24 1
  38   22   23 1
  39   22   44 1
  40   22   45 1
  41   23   46 1
  42   23   47 1
  43   24   48 1
  44   24   49 1
  45   24   50 1
  46   25   28 ar
  47   25   51 1
  48   26   27 ar
  49   26   52 1
  50   27   28 ar
  51   27   53 1
  52   28   54 1
  53   29   30 1
  54   29   55 1
  55   29   56 1
  56   30   34 ar
  57   30   33 ar
  58   31   32 ar
  59   31   35 ar
  60   31   57 1
  61   32   33 ar
  62   32   58 1
  63   33   59 1
  64   34   35 ar
  65   34   60 1
  66   35   61 1

#	End of record

