#	Name: ASD01810162
#	Creating user name:	WinNT
#	Creation time:	15. 06. 2019 19:23

#	Modifying user name:	WinNT
#	Modification time:	15. 06. 2019 19:23

#	Program:	/corina/corina34_cracker 3.40 0067  02.08.2006

@<TRIPOS>MOLECULE
ASD01810162
  38   40    0    0    0
SMALL
NO_CHARGES


@<TRIPOS>ATOM
   1 C1            -0.0167     1.3832     0.0096 C.ar    
   2 C2             0.0021    -0.0041     0.0020 C.ar    
   3 C3             1.1959    -0.6919    -0.0130 C.ar    
   4 C4             2.4007     0.0059    -0.0207 C.ar    
   5 C5             2.3789     1.4111    -0.0130 C.ar    
   6 C6             1.1632     2.0941     0.0022 C.ar    
   7 N7             3.6013    -0.6705    -0.0353 N.pl3   
   8 C8             4.7860    -0.0462    -0.0428 C.2     
   9 C9             4.8924     1.3300    -0.0360 C.2     
  10 C10            3.6622     2.1381    -0.0214 C.2     
  11 O11            3.7023     3.3559    -0.0152 O.2     
  12 C12            6.2117     1.9776    -0.0437 C.2     
  13 O13            6.3025     3.3226    -0.0369 O.3     
  14 O14            7.2212     1.3003    -0.0561 O.2     
  15 C15            3.5807    -2.1353    -0.0424 C.3     
  16 C16            3.5604    -2.6305    -1.4656 C.ar    
  17 C17            4.7491    -2.8740    -2.1286 C.ar    
  18 C18            4.7331    -3.3280    -3.4333 C.ar    
  19 C19            3.5232    -3.5395    -4.0782 C.ar    
  20 C20            2.3319    -3.2943    -3.4107 C.ar    
  21 C21            2.3532    -2.8458    -2.1043 C.ar    
  22 O22            3.5049    -3.9856    -5.3617 O.3     
  23 C23            2.2230    -4.1810    -5.9624 C.3     
  24 H24           -0.9606     1.9081     0.0170 H       
  25 H25           -0.9293    -0.5508     0.0083 H       
  26 H26            1.1970    -1.7719    -0.0185 H       
  27 H27            1.1468     3.1740     0.0078 H       
  28 H28            5.6885    -0.6393    -0.0542 H       
  29 H29            7.1917     3.7026    -0.0424 H       
  30 H30            4.4703    -2.5136     0.4612 H       
  31 H31            2.6906    -2.4887     0.4779 H       
  32 H32            5.6907    -2.7089    -1.6263 H       
  33 H33            5.6618    -3.5178    -3.9509 H       
  34 H34            1.3887    -3.4582    -3.9106 H       
  35 H35            1.4261    -2.6549    -1.5842 H       
  36 H36            1.6612    -4.9177    -5.3883 H       
  37 H37            1.6789    -3.2365    -5.9728 H       
  38 H38            2.3513    -4.5377    -6.9844 H       
@<TRIPOS>BOND
   1    1    2 ar
   2    1    6 ar
   3    1   24 1
   4    2    3 ar
   5    2   25 1
   6    3    4 ar
   7    3   26 1
   8    4    5 ar
   9    4    7 1
  10    5    6 ar
  11    5   10 1
  12    6   27 1
  13    7    8 1
  14    7   15 1
  15    8    9 2
  16    8   28 1
  17    9   10 1
  18    9   12 1
  19   10   11 2
  20   12   13 1
  21   12   14 2
  22   13   29 1
  23   15   16 1
  24   15   30 1
  25   15   31 1
  26   16   17 ar
  27   16   21 ar
  28   17   18 ar
  29   17   32 1
  30   18   19 ar
  31   18   33 1
  32   19   20 ar
  33   19   22 1
  34   20   21 ar
  35   20   34 1
  36   21   35 1
  37   22   23 1
  38   23   36 1
  39   23   37 1
  40   23   38 1

#	End of record

