#	Name: ASD01881847
#	Creating user name:	WinNT
#	Creation time:	15. 06. 2019 19:43

#	Modifying user name:	WinNT
#	Modification time:	15. 06. 2019 19:43

#	Program:	/corina/corina34_cracker 3.40 0067  02.08.2006

@<TRIPOS>MOLECULE
ASD01881847
  37   39    0    0    0
SMALL
NO_CHARGES


@<TRIPOS>ATOM
   1 C1            -0.0184     1.5028     0.0103 C.2     
   2 C2             0.0021    -0.0041     0.0020 C.3     
   3 O3             1.0197     2.1211     0.0037 O.2     
   4 O4            -1.1898     2.1580     0.0194 O.3     
   5 O5             1.3556    -0.4620    -0.0134 O.3     
   6 N6             2.4198    -5.8351    -0.0519 N.pl3   
   7 N7             3.8173    -5.7157    -0.0652 N.2     
   8 N8             4.1407    -4.4707    -0.0622 N.2     
   9 C9             3.0352    -3.6995    -0.0472 C.ar    
  10 C10            1.9186    -4.5534    -0.0404 C.ar    
  11 C11            2.8360    -2.3121    -0.0374 C.ar    
  12 C12            1.5521    -1.8076    -0.0225 C.ar    
  13 C13            0.4556    -2.6664    -0.0161 C.ar    
  14 C14            0.6344    -4.0210    -0.0241 C.ar    
  15 C15            1.6459    -7.0791    -0.0558 C.3     
  16 C16            1.3910    -7.5257     1.3851 C.3     
  17 C17            0.4951    -8.7476     1.5980 C.3     
  18 C18            2.0033    -8.8549     1.8316 C.3     
  19 Br19           4.3187    -1.1385    -0.0457 Br      
  20 C20           -1.1335     3.6089     0.0270 C.3     
  21 C21           -2.5551     4.1744     0.0369 C.3     
  22 H22           -0.4983    -0.3791     0.8948 H       
  23 H23           -0.5153    -0.3696    -0.8850 H       
  24 H24           -0.5443    -2.2582    -0.0041 H       
  25 H25           -0.2224    -4.6786    -0.0189 H       
  26 H26            0.6932    -6.9127    -0.5586 H       
  27 H27            2.2045    -7.8527    -0.5826 H       
  28 H28            1.3335    -6.7249     2.1223 H       
  29 H29           -0.1516    -8.7508     2.4755 H       
  30 H30            0.0873    -9.2332     0.7115 H       
  31 H31            2.5878    -9.4111     1.0987 H       
  32 H32            2.3489    -8.9287     2.8627 H       
  33 H33           -0.6017     3.9472     0.9164 H       
  34 H34           -0.6102     3.9569    -0.8636 H       
  35 H35           -3.0869     3.8361    -0.8525 H       
  36 H36           -3.0784     3.8265     0.9275 H       
  37 H37           -2.5128     5.2636     0.0426 H       
@<TRIPOS>BOND
   1    1    2 1
   2    1    3 2
   3    1    4 1
   4    2    5 1
   5    2   22 1
   6    2   23 1
   7    4   20 1
   8    5   12 1
   9    6    7 1
  10    6   10 1
  11    6   15 1
  12    7    8 2
  13    8    9 1
  14    9   10 ar
  15    9   11 ar
  16   10   14 ar
  17   11   12 ar
  18   11   19 1
  19   12   13 ar
  20   13   14 ar
  21   13   24 1
  22   14   25 1
  23   15   16 1
  24   15   26 1
  25   15   27 1
  26   16   17 1
  27   16   18 1
  28   16   28 1
  29   17   18 1
  30   17   29 1
  31   17   30 1
  32   18   31 1
  33   18   32 1
  34   20   21 1
  35   20   33 1
  36   20   34 1
  37   21   35 1
  38   21   36 1
  39   21   37 1

#	End of record

