#	Name: ASD01884616
#	Creating user name:	WinNT
#	Creation time:	15. 06. 2019 19:48

#	Modifying user name:	WinNT
#	Modification time:	15. 06. 2019 19:48

#	Program:	/corina/corina34_cracker 3.40 0067  02.08.2006

@<TRIPOS>MOLECULE
ASD01884616
  32   34    0    0    0
SMALL
NO_CHARGES


@<TRIPOS>ATOM
   1 C1            -0.0164     1.3571     0.0095 C.2     
   2 C2             0.0021    -0.0041     0.0020 C.2     
   3 C3             1.2456    -0.6757    -0.0135 C.2     
   4 C4             2.4119     0.0557    -0.0207 C.2     
   5 N5             2.3713     1.4118    -0.0126 N.am    
   6 C6             1.1964     2.0678     0.0017 C.2     
   7 O7             1.1837     3.2883     0.0084 O.2     
   8 C8             3.6235     2.1723    -0.0195 C.3     
   9 C9             1.2935    -2.1542    -0.0214 C.2     
  10 C10            4.0401     2.4412    -1.4426 C.ar    
  11 C11            3.6094     3.5877    -2.0830 C.ar    
  12 C12            3.9899     3.8364    -3.3887 C.ar    
  13 C13            4.8031     2.9371    -4.0556 C.ar    
  14 C14            5.2356     1.7868    -3.4127 C.ar    
  15 C15            4.8572     1.5434    -2.1042 C.ar    
  16 F16            5.1749     3.1791    -5.3316 F       
  17 C17            0.8637    -2.9518     0.9759 C.2     
  18 F18            6.0293     0.9071    -4.0619 F       
  19 C19            1.0118    -4.3038     0.7376 C.2     
  20 C20            1.5567    -4.6139    -0.4414 C.2     
  21 S21            1.9133    -3.1432    -1.3372 S.3     
  22 H22           -0.9570     1.8876     0.0168 H       
  23 H23           -0.9217    -0.5636     0.0082 H       
  24 H24            3.3646    -0.4529    -0.0325 H       
  25 H25            3.4767     3.1186     0.5011 H       
  26 H26            4.4006     1.5973     0.4841 H       
  27 H27            2.9747     4.2900    -1.5631 H       
  28 H28            3.6522     4.7323    -3.8883 H       
  29 H29            5.1937     0.6482    -1.6024 H       
  30 H30            0.4375    -2.5644     1.8894 H       
  31 H31            0.7095    -5.0550     1.4522 H       
  32 H32            1.7468    -5.6171    -0.7933 H       
@<TRIPOS>BOND
   1    1    2 2
   2    1    6 1
   3    1   22 1
   4    2    3 1
   5    2   23 1
   6    3    4 2
   7    3    9 1
   8    4    5 1
   9    4   24 1
  10    5    6 am
  11    5    8 1
  12    6    7 2
  13    8   10 1
  14    8   25 1
  15    8   26 1
  16    9   17 2
  17    9   21 1
  18   10   11 ar
  19   10   15 ar
  20   11   12 ar
  21   11   27 1
  22   12   13 ar
  23   12   28 1
  24   13   14 ar
  25   13   16 1
  26   14   15 ar
  27   14   18 1
  28   15   29 1
  29   17   19 1
  30   17   30 1
  31   19   20 2
  32   19   31 1
  33   20   21 1
  34   20   32 1

#	End of record

