#	Name: ASD02038812
#	Creating user name:	WinNT
#	Creation time:	15. 06. 2019 20:17

#	Modifying user name:	WinNT
#	Modification time:	15. 06. 2019 20:17

#	Program:	/corina/corina34_cracker 3.40 0067  02.08.2006

@<TRIPOS>MOLECULE
ASD02038812
  50   53    0    0    0
SMALL
NO_CHARGES


@<TRIPOS>ATOM
   1 C1            -1.2822    -0.8505     0.4650 C.2     
   2 C2            -0.0602    -0.0340     0.3014 C.2     
   3 N3             1.1370    -0.6350     0.1536 N.am    
   4 C4             1.2416    -2.0931     0.2503 C.3     
   5 C5             1.2138    -2.6915    -1.1325 C.ar    
   6 C6             2.3338     0.1698    -0.1037 C.3     
   7 O7            -0.1356     1.1792     0.3002 O.2     
   8 N8            -1.3382    -2.1945     0.4959 N.2     
   9 C9            -2.5937    -2.5274     0.6554 C.2     
  10 N10           -3.3113    -1.3909     0.7228 N.pl3   
  11 N11           -2.5057    -0.3914     0.6117 N.2     
  12 C12            2.3962    -3.0128    -1.7681 C.ar    
  13 C13            2.1224     1.0139    -1.3643 C.3     
  14 C14            3.3455     1.9088    -1.5809 C.3     
  15 O15            3.5452     2.7277    -0.4269 O.3     
  16 C16            3.7948     1.9934     0.7734 C.3     
  17 C17            2.5898     1.1019     1.0845 C.3     
  18 C18           -4.7632    -1.3045     0.8988 C.3     
  19 C19            0.0033    -2.9231    -1.7601 C.ar    
  20 C20           -0.0297    -3.4722    -3.0295 C.ar    
  21 C21            1.1465    -3.7919    -3.6765 C.ar    
  22 C22            2.3690    -3.5660    -3.0465 C.ar    
  23 C23            3.6369    -3.9078    -3.7371 C.ar    
  24 C24            4.8738    -3.6902    -3.1255 C.ar    
  25 N25            5.9825    -4.0050    -3.7655 N.ar    
  26 N26            5.9736    -4.5106    -4.9444 N.ar    
  27 C27            4.8558    -4.7529    -5.6037 C.ar    
  28 C28            3.6342    -4.4649    -5.0219 C.ar    
  29 H29            2.1774    -2.3583     0.7422 H       
  30 H30            0.4038    -2.4797     0.8305 H       
  31 H31            3.1918    -0.4875    -0.2447 H       
  32 H32           -2.9836    -3.5325     0.7207 H       
  33 H33            3.3408    -2.8353    -1.2754 H       
  34 H34            1.9944     0.3574    -2.2250 H       
  35 H35            1.2342     1.6340    -1.2428 H       
  36 H36            4.2264     1.2876    -1.7427 H       
  37 H37            3.1824     2.5427    -2.4525 H       
  38 H38            4.6816     1.3733     0.6424 H       
  39 H39            3.9554     2.6882     1.5978 H       
  40 H40            1.7111     1.7238     1.2556 H       
  41 H41            2.7961     0.5084     1.9752 H       
  42 H42           -4.9985    -1.2648     1.9624 H       
  43 H43           -5.1354    -0.4039     0.4105 H       
  44 H44           -5.2358    -2.1805     0.4546 H       
  45 H45           -0.9196    -2.6746    -1.2573 H       
  46 H46           -0.9777    -3.6512    -3.5148 H       
  47 H47            1.1196    -4.2206    -4.6674 H       
  48 H48            4.9216    -3.2659    -2.1335 H       
  49 H49            4.8949    -5.1794    -6.5951 H       
  50 H50            2.7087    -4.6558    -5.5448 H       
@<TRIPOS>BOND
   1    1    2 1
   2    1    8 1
   3    1   11 2
   4    2    3 am
   5    2    7 2
   6    3    4 1
   7    3    6 1
   8    4    5 1
   9    4   29 1
  10    4   30 1
  11    5   12 ar
  12    5   19 ar
  13    6   13 1
  14    6   17 1
  15    6   31 1
  16    8    9 2
  17    9   10 1
  18    9   32 1
  19   10   11 1
  20   10   18 1
  21   12   22 ar
  22   12   33 1
  23   13   14 1
  24   13   34 1
  25   13   35 1
  26   14   15 1
  27   14   36 1
  28   14   37 1
  29   15   16 1
  30   16   17 1
  31   16   38 1
  32   16   39 1
  33   17   40 1
  34   17   41 1
  35   18   42 1
  36   18   43 1
  37   18   44 1
  38   19   20 ar
  39   19   45 1
  40   20   21 ar
  41   20   46 1
  42   21   22 ar
  43   21   47 1
  44   22   23 1
  45   23   24 ar
  46   23   28 ar
  47   24   25 ar
  48   24   48 1
  49   25   26 ar
  50   26   27 ar
  51   27   28 ar
  52   27   49 1
  53   28   50 1

#	End of record

