#	Name: ASD03090429
#	Creating user name:	WinNT
#	Creation time:	15. 06. 2019 20:28

#	Modifying user name:	WinNT
#	Modification time:	15. 06. 2019 20:28

#	Program:	/corina/corina34_cracker 3.40 0067  02.08.2006

@<TRIPOS>MOLECULE
ASD03090429
  42   44    0    0    0
SMALL
NO_CHARGES


@<TRIPOS>ATOM
   1 C1            -0.0390     1.4945     0.0723 C.2     
   2 C2            -0.0201    -0.0123     0.0878 C.3     
   3 O3             1.0028     2.1135     0.0228 O.2     
   4 N4            -1.2137     2.1541     0.1080 N.am    
   5 C5            -1.2296     3.5470     0.1991 C.ar    
   6 C6            -2.4398     4.2269     0.1252 C.ar    
   7 C7            -2.4441     5.6072     0.2166 C.ar    
   8 C8            -1.2277     6.2649     0.3801 C.ar    
   9 C9            -0.0606     5.5213     0.4455 C.ar    
  10 N10           -0.0932     4.2050     0.3602 N.ar    
  11 O11           -1.1858     7.6209     0.4740 O.3     
  12 C12           -2.4123     8.3239     0.2649 C.3     
  13 C13           -3.0942     8.5713     1.6120 C.3     
  14 C14           -2.1226     9.6641    -0.4139 C.3     
  15 N15            5.3131    -1.8229     0.1612 N.pl3   
  16 C16            5.5285    -1.8625     1.5119 C.2     
  17 C17            4.4224    -1.4697     2.1633 C.2     
  18 C18            3.4165    -1.1527     1.1467 C.ar    
  19 C19            2.0956    -0.7028     1.1955 C.ar    
  20 C20            1.4057    -0.4974     0.0343 C.ar    
  21 C21            2.0074    -0.7325    -1.1945 C.ar    
  22 C22            3.3093    -1.1770    -1.2657 C.ar    
  23 C23            4.0306    -1.3928    -0.0958 C.ar    
  24 H24           -0.4923    -0.3722     1.0019 H       
  25 H25           -0.5655    -0.3914    -0.7765 H       
  26 H26           -2.0482     1.6610     0.0703 H       
  27 H27           -3.3649     3.6845    -0.0023 H       
  28 H28           -3.3692     6.1618     0.1621 H       
  29 H29            0.8866     6.0246     0.5718 H       
  30 H30           -3.0683     7.7290    -0.3706 H       
  31 H31           -4.0297     9.1075     1.4526 H       
  32 H32           -3.3006     7.6165     2.0956 H       
  33 H33           -2.4382     9.1662     2.2475 H       
  34 H34           -1.6368     9.4878    -1.3735 H       
  35 H35           -3.0581    10.2003    -0.5733 H       
  36 H36           -1.4666    10.2590     0.2216 H       
  37 H37            5.9677    -2.0588    -0.5146 H       
  38 H38            6.4515    -2.1652     1.9839 H       
  39 H39            4.2978    -1.4005     3.2339 H       
  40 H40            1.6206    -0.5187     2.1479 H       
  41 H41            1.4491    -0.5655    -2.1038 H       
  42 H42            3.7684    -1.3573    -2.2265 H       
@<TRIPOS>BOND
   1    1    2 1
   2    1    3 2
   3    1    4 am
   4    2   20 1
   5    2   24 1
   6    2   25 1
   7    4    5 1
   8    4   26 1
   9    5    6 ar
  10    5   10 ar
  11    6    7 ar
  12    6   27 1
  13    7    8 ar
  14    7   28 1
  15    8    9 ar
  16    8   11 1
  17    9   10 ar
  18    9   29 1
  19   11   12 1
  20   12   13 1
  21   12   14 1
  22   12   30 1
  23   13   31 1
  24   13   32 1
  25   13   33 1
  26   14   34 1
  27   14   35 1
  28   14   36 1
  29   15   16 1
  30   15   23 1
  31   15   37 1
  32   16   17 2
  33   16   38 1
  34   17   18 1
  35   17   39 1
  36   18   19 ar
  37   18   23 ar
  38   19   20 ar
  39   19   40 1
  40   20   21 ar
  41   21   22 ar
  42   21   41 1
  43   22   23 ar
  44   22   42 1

#	End of record

