#	Name: ASD02320070
#	Creating user name:	WinNT
#	Creation time:	15. 06. 2019 20:20

#	Modifying user name:	WinNT
#	Modification time:	15. 06. 2019 20:20

#	Program:	/corina/corina34_cracker 3.40 0067  02.08.2006

@<TRIPOS>MOLECULE
ASD02320070
 100   98    0    0    0
SMALL
NO_CHARGES


@<TRIPOS>ATOM
   1 C1            -0.0164     1.3560     0.0095 C.2     
   2 C2             0.0021    -0.0041     0.0020 C.2     
   3 O3             1.1438    -0.7103    -0.0122 O.3     
   4 C4             2.3572    -0.1189    -0.0208 C.ar    
   5 C5             1.2051     2.0703     0.0017 C.2     
   6 C6            -1.2815    -0.7309     0.0104 C.ar    
   7 C7            -1.2955    -2.1285     0.0030 C.ar    
   8 C8            -2.4962    -2.8031     0.0113 C.ar    
   9 C9            -3.6926    -2.0962     0.0270 C.ar    
  10 C10           -3.6833    -0.7066     0.0344 C.ar    
  11 C11           -2.4871    -0.0240     0.0315 C.ar    
  12 C12            3.5166    -0.8781    -0.0361 C.ar    
  13 C13            4.7548    -0.2541    -0.0452 C.ar    
  14 C14            4.8494     1.1330    -0.0384 C.ar    
  15 C15            3.7038     1.9073    -0.0232 C.ar    
  16 C16            2.4501     1.2838    -0.0145 C.ar    
  17 O17           -4.8740    -2.7652     0.0347 O.3     
  18 S18           -5.3991    -3.0781     1.4285 S.o2    
  19 O19           -6.4411    -4.0806     1.2689 O.co2   
  20 O20           -4.2717    -3.5804     2.1985 O.co2   
  21 O21           -5.9187    -1.8322     1.9705 O.co2   
  22 O22            1.2260     3.2906     0.0081 O.2     
  23 O23            3.7939     3.2614    -0.0161 O.3     
  24 O24            5.8857    -1.0049    -0.0602 O.3     
  25 S25            6.3877    -1.3401    -1.4574 S.o2    
  26 O26            7.3559    -2.4154    -1.3085 O.co2   
  27 O27            5.2277    -1.7533    -2.2319 O.co2   
  28 O28            6.9943    -0.1287    -1.9870 O.co2   
  29 O29            6.0458    10.1535     0.0078 O.3     
  30 C30            6.1360    11.5076     0.0151 C.ar    
  31 C31            7.3896    12.1311     0.0059 C.ar    
  32 C32            4.9903    12.2820     0.0259 C.ar    
  33 C33            5.0849    13.6691     0.0324 C.ar    
  34 C34            6.3231    14.2930     0.0286 C.ar    
  35 C35            7.4824    13.5338     0.0130 C.ar    
  36 C36            9.8561    12.0591    -0.0186 C.2     
  37 C37            8.6347    11.3447    -0.0108 C.2     
  38 O38            8.6959    14.1253     0.0050 O.3     
  39 C39            9.8376    13.4192    -0.0096 C.2     
  40 C40           11.1211    14.1461    -0.0175 C.ar    
  41 C41           11.1350    15.5438    -0.0085 C.ar    
  42 C42           12.3357    16.2185    -0.0155 C.ar    
  43 C43           13.5322    15.5117    -0.0313 C.ar    
  44 C44           13.5229    14.1220    -0.0402 C.ar    
  45 C45           12.3268    13.4392    -0.0280 C.ar    
  46 O46            8.6139    10.1244    -0.0172 O.2     
  47 O47            3.9539    14.4199     0.0420 O.3     
  48 O48           14.7135    16.1807    -0.0385 O.3     
  49 S49           15.2655    16.4772     1.3485 S.o2    
  50 S50            3.4454    14.7553     1.4368 S.o2    
  51 O51           16.3042    17.4817     1.1807 O.co2   
  52 O52           14.1532    16.9701     2.1461 O.co2   
  53 O53           15.7954    15.2251     1.8656 O.co2   
  54 O54            2.0791    15.2299     1.2822 O.co2   
  55 O55            3.5122    13.5275     2.2141 O.co2   
  56 O56            4.3245    15.7857     1.9673 O.co2   
  57 C57            5.1074     3.8243    -0.0252 C.3     
  58 C58            5.0096     5.3281    -0.0155 C.ar    
  59 C59            4.7323     9.5907     0.0118 C.3     
  60 C60            4.8301     8.0869     0.0026 C.ar    
  61 C61            3.7701     5.9400    -0.0003 C.ar    
  62 C62            3.6804     7.3194     0.0085 C.ar    
  63 C63            6.0696     7.4749    -0.0078 C.ar    
  64 C64            6.1593     6.0955    -0.0162 C.ar    
  65 C65            7.5105     5.4283    -0.0280 C.3     
  66 C66            2.3292     7.9865     0.0251 C.3     
  67 H67           -0.9568     1.8870     0.0168 H       
  68 H68           -0.3662    -2.6786    -0.0096 H       
  69 H69           -2.5080    -3.8831     0.0053 H       
  70 H70           -4.6153    -0.1611     0.0462 H       
  71 H71           -2.4806     1.0560     0.0418 H       
  72 H72            3.4555    -1.9563    -0.0408 H       
  73 H73            5.8199     1.6068    -0.0448 H       
  74 H74            4.0198    11.8082     0.0289 H       
  75 H75            6.3842    15.3713     0.0334 H       
  76 H76           10.7965    11.5282    -0.0304 H       
  77 H77           10.2057    16.0938     0.0034 H       
  78 H78           12.3474    17.2984    -0.0089 H       
  79 H79           14.4550    13.5766    -0.0529 H       
  80 H80           12.3206    12.3593    -0.0304 H       
  81 H81            5.6520     3.4899     0.8577 H       
  82 H82            5.6353     3.5003    -0.9221 H       
  83 H83            4.2009     9.9147     0.9066 H       
  84 H84            4.1911     9.9250    -0.8733 H       
  85 H85            2.8719     5.3404     0.0043 H       
  86 H86            6.9679     8.0745    -0.0093 H       
  87 H87            7.8424     5.2616     0.9968 H       
  88 H88            7.4393     4.4724    -0.5469 H       
  89 H89            8.2273     6.0684    -0.5424 H       
  90 H90            2.0132     8.1414     1.0567 H       
  91 H91            2.3926     8.9484    -0.4838 H       
  92 H92            1.6046     7.3524    -0.4856 H       
  93 Na93          21.3042    22.4817     7.2141 Du      
  94 Na94          26.3042    27.4817    12.2141 Du      
  95 Na95          31.3042    32.4817    17.2141 Du      
  96 Na96          36.3042    37.4817    22.2141 Du      
  97 Na97          41.3042    42.4817    27.2141 Du      
  98 Na98          46.3042    47.4817    32.2141 Du      
  99 Na99          51.3042    52.4817    37.2141 Du      
 100 Na100         56.3042    57.4817    42.2141 Du      
@<TRIPOS>BOND
   1    1    2 2
   2    1    5 1
   3    1   67 1
   4    2    3 1
   5    2    6 1
   6    3    4 1
   7    4   12 ar
   8    4   16 ar
   9    5   22 2
  10    5   16 1
  11    6    7 ar
  12    6   11 ar
  13    7    8 ar
  14    7   68 1
  15    8    9 ar
  16    8   69 1
  17    9   10 ar
  18    9   17 1
  19   10   11 ar
  20   10   70 1
  21   11   71 1
  22   12   13 ar
  23   12   72 1
  24   13   14 ar
  25   13   24 1
  26   14   15 ar
  27   14   73 1
  28   15   16 ar
  29   15   23 1
  30   17   18 1
  31   18   19 ar
  32   18   20 ar
  33   18   21 ar
  34   23   57 1
  35   24   25 1
  36   25   26 ar
  37   25   27 ar
  38   25   28 ar
  39   29   30 1
  40   29   59 1
  41   30   32 ar
  42   30   31 ar
  43   31   35 ar
  44   31   37 1
  45   32   33 ar
  46   32   74 1
  47   33   34 ar
  48   33   47 1
  49   34   35 ar
  50   34   75 1
  51   35   38 1
  52   36   37 1
  53   36   39 2
  54   36   76 1
  55   37   46 2
  56   38   39 1
  57   39   40 1
  58   40   41 ar
  59   40   45 ar
  60   41   42 ar
  61   41   77 1
  62   42   43 ar
  63   42   78 1
  64   43   44 ar
  65   43   48 1
  66   44   45 ar
  67   44   79 1
  68   45   80 1
  69   47   50 1
  70   48   49 1
  71   49   51 ar
  72   49   52 ar
  73   49   53 ar
  74   50   54 ar
  75   50   55 ar
  76   50   56 ar
  77   57   58 1
  78   57   81 1
  79   57   82 1
  80   58   61 ar
  81   58   64 ar
  82   59   60 1
  83   59   83 1
  84   59   84 1
  85   60   63 ar
  86   60   62 ar
  87   61   62 ar
  88   61   85 1
  89   62   66 1
  90   63   64 ar
  91   63   86 1
  92   64   65 1
  93   65   87 1
  94   65   88 1
  95   65   89 1
  96   66   90 1
  97   66   91 1
  98   66   92 1

#	End of record

