#	Name: ASD03330549
#	Creating user name:	WinNT
#	Creation time:	15. 06. 2019 20:37

#	Modifying user name:	WinNT
#	Modification time:	15. 06. 2019 20:37

#	Program:	/corina/corina34_cracker 3.40 0067  02.08.2006

@<TRIPOS>MOLECULE
ASD03330549
  60   62    0    0    0
SMALL
NO_CHARGES


@<TRIPOS>ATOM
   1 C1            -0.0624     1.9728     1.7614 C.2     
   2 N2            -0.1465     0.6778     2.1673 N.pl3   
   3 C3             1.2170     2.1789     1.3430 C.2     
   4 N4             1.8884     1.0144     1.4804 N.2     
   5 C5             1.0763     0.1063     1.9691 C.2     
   6 C6             1.4284    -1.3009     2.2574 C.ar    
   7 C7             1.7703     3.4453     0.8319 C.2     
   8 O8             1.0621     4.4312     0.7549 O.2     
   9 C9             3.6111     4.7704    -0.0586 C.3     
  10 N10            3.0610     3.5113     0.4496 N.am    
  11 C11            3.3144     4.8894    -1.5549 C.3     
  12 C12            1.8068     4.7703    -1.7870 C.3     
  13 C13            3.8034     6.2464    -2.0653 C.3     
  14 C14            4.0364     3.7707    -2.3085 C.3     
  15 C15            5.1018     4.7924     0.1613 C.2     
  16 N16            5.7829     5.9496     0.0461 N.am    
  17 O17            5.6885     3.7687     0.4419 O.2     
  18 C18            7.2412     5.9583     0.1865 C.3     
  19 C19           -1.3406     0.0385     2.7267 C.3     
  20 C20           -2.5499     0.3788     1.8500 C.3     
  21 C21           -3.1726     1.6906     2.3169 C.3     
  22 N22           -2.1497     2.6100     2.8192 N.3     
  23 C23           -1.1911     2.9710     1.7642 C.3     
  24 C24           -2.7623     3.8091     3.4066 C.3     
  25 C25            2.1169    -2.0595     1.3086 C.ar    
  26 C26            2.4432    -3.3726     1.5837 C.ar    
  27 C27            2.0882    -3.9369     2.7980 C.ar    
  28 C28            1.4045    -3.1876     3.7429 C.ar    
  29 C29            1.0787    -1.8736     3.4810 C.ar    
  30 F30            2.4089    -5.2224     3.0621 F       
  31 Cl31           2.5612    -1.3533    -0.2138 Cl      
  32 H32            3.1534     5.6065     0.4702 H       
  33 H33            3.6257     2.7250     0.5109 H       
  34 H34            1.2925     5.5673    -1.2500 H       
  35 H35            1.5955     4.8552    -2.8529 H       
  36 H36            1.4585     3.8036    -1.4233 H       
  37 H37            4.8450     6.3890    -1.7775 H       
  38 H38            3.7190     6.2778    -3.1516 H       
  39 H39            3.1945     7.0390    -1.6305 H       
  40 H40            3.6881     2.8040    -1.9449 H       
  41 H41            3.8251     3.8556    -3.3745 H       
  42 H42            5.1105     3.8556    -2.1432 H       
  43 H43            5.3077     6.7767    -0.1298 H       
  44 H44            7.6834     5.3156    -0.5747 H       
  45 H45            7.6120     6.9758     0.0630 H       
  46 H46            7.5131     5.5900     1.1757 H       
  47 H47           -1.1990    -1.0421     2.7484 H       
  48 H48           -1.5099     0.4052     3.7391 H       
  49 H49           -2.2293     0.4786     0.8131 H       
  50 H50           -3.2881    -0.4197     1.9250 H       
  51 H51           -3.6931     2.1571     1.4806 H       
  52 H52           -3.8888     1.4835     3.1121 H       
  53 H53           -0.7952     3.9681     1.9570 H       
  54 H54           -1.6921     2.9574     0.7963 H       
  55 H55           -3.4082     3.5184     4.2351 H       
  56 H56           -1.9804     4.4749     3.7717 H       
  57 H57           -3.3530     4.3236     2.6487 H       
  58 H58            2.9757    -3.9607     0.8509 H       
  59 H59            1.1299    -3.6328     4.6878 H       
  60 H60            0.5461    -1.2912     4.2183 H       
@<TRIPOS>BOND
   1    1    2 1
   2    1    3 2
   3    1   23 1
   4    2   19 1
   5    2    5 1
   6    3    4 1
   7    3    7 1
   8    4    5 2
   9    5    6 1
  10    6   25 ar
  11    6   29 ar
  12    7    8 2
  13    7   10 am
  14    9   10 1
  15    9   11 1
  16    9   15 1
  17    9   32 1
  18   10   33 1
  19   11   12 1
  20   11   13 1
  21   11   14 1
  22   12   34 1
  23   12   35 1
  24   12   36 1
  25   13   37 1
  26   13   38 1
  27   13   39 1
  28   14   40 1
  29   14   41 1
  30   14   42 1
  31   15   16 am
  32   15   17 2
  33   16   18 1
  34   16   43 1
  35   18   44 1
  36   18   45 1
  37   18   46 1
  38   19   20 1
  39   19   47 1
  40   19   48 1
  41   20   21 1
  42   20   49 1
  43   20   50 1
  44   21   22 1
  45   21   51 1
  46   21   52 1
  47   22   23 1
  48   22   24 1
  49   23   53 1
  50   23   54 1
  51   24   55 1
  52   24   56 1
  53   24   57 1
  54   25   26 ar
  55   25   31 1
  56   26   27 ar
  57   26   58 1
  58   27   28 ar
  59   27   30 1
  60   28   29 ar
  61   28   59 1
  62   29   60 1

#	End of record

