#	Name: ASD01028625
#	Creating user name:	WinNT
#	Creation time:	15. 06. 2019 18:57

#	Modifying user name:	WinNT
#	Modification time:	15. 06. 2019 18:57

#	Program:	/corina/corina34_cracker 3.40 0067  02.08.2006

@<TRIPOS>MOLECULE
ASD01028625
  45   49    0    0    0
SMALL
NO_CHARGES


@<TRIPOS>ATOM
   1 C1            -0.0164     1.3590     0.0095 C.2     
   2 N2             0.0021    -0.0041     0.0020 N.pl3   
   3 C3             1.1472     2.0640     0.0022 C.2     
   4 C4             2.3887     1.3853    -0.0133 C.2     
   5 C5             2.4116     0.0258    -0.0208 C.2     
   6 C6             1.1933    -0.6865    -0.0130 C.2     
   7 N7             0.8963    -1.9758    -0.0175 N.2     
   8 N8            -0.3820    -2.1221    -0.0063 N.2     
   9 C9            -0.9719    -0.9546     0.0062 C.2     
  10 C10           -3.7113    -0.5491     2.1567 C.ar    
  11 C11           -3.0584    -1.3332     1.2549 C.ar    
  12 C12           -2.9383    -2.7064     1.4565 C.ar    
  13 C13           -3.4688    -3.3036     2.5586 C.ar    
  14 C14           -4.1497    -2.5278     3.5126 C.ar    
  15 C15           -4.2703    -1.1310     3.3055 C.ar    
  16 C16            1.1143     3.5477     0.0100 C.ar    
  17 C17            1.6183     4.2519     1.1012 C.ar    
  18 C18            0.5846     4.2404    -1.0765 C.ar    
  19 C19            1.5860     5.6341     1.1041 C.ar    
  20 C20            0.5564     5.6226    -1.0653 C.ar    
  21 C21            1.0533     6.3186     0.0242 C.ar    
  22 F22            0.0430     6.2954    -2.1184 F       
  23 F23            2.0745     6.3180     2.1618 F       
  24 N24           -4.6795    -3.0862     4.6056 N.ar    
  25 C25           -5.3139    -2.3669     5.4991 C.ar    
  26 C26           -5.4682    -0.9894     5.3564 C.ar    
  27 C27           -4.9514    -0.3554     4.2627 C.ar    
  28 C28           -2.4584    -0.7073     0.0223 C.3     
  29 C29           -3.0921    -1.3274    -1.2246 C.3     
  30 F30            3.5890    -0.6365    -0.0351 F       
  31 H31           -0.9609     1.8827     0.0168 H       
  32 H32            3.3130     1.9439    -0.0195 H       
  33 H33           -3.7946     0.5149     1.9915 H       
  34 H34           -2.4160    -3.3069     0.7264 H       
  35 H35           -3.3673    -4.3696     2.6993 H       
  36 H36            2.0332     3.7189     1.9439 H       
  37 H37            0.1970     3.6984    -1.9265 H       
  38 H38            1.0294     7.3983     0.0299 H       
  39 H39           -5.7285    -2.8549     6.3688 H       
  40 H40           -5.9966    -0.4238     6.1096 H       
  41 H41           -5.0616     0.7115     4.1361 H       
  42 H42           -2.6481     0.3661     0.0308 H       
  43 H43           -2.6581    -0.8747    -2.1161 H       
  44 H44           -2.9024    -2.4007    -1.2331 H       
  45 H45           -4.1673    -1.1485    -1.2130 H       
@<TRIPOS>BOND
   1    1    2 1
   2    1    3 2
   3    1   31 1
   4    2    6 1
   5    2    9 1
   6    3    4 1
   7    3   16 1
   8    4    5 2
   9    4   32 1
  10    5    6 1
  11    5   30 1
  12    6    7 2
  13    7    8 1
  14    8    9 2
  15    9   28 1
  16   10   11 ar
  17   10   15 ar
  18   10   33 1
  19   11   12 ar
  20   11   28 1
  21   12   13 ar
  22   12   34 1
  23   13   14 ar
  24   13   35 1
  25   14   15 ar
  26   14   24 ar
  27   15   27 ar
  28   16   17 ar
  29   16   18 ar
  30   17   19 ar
  31   17   36 1
  32   18   20 ar
  33   18   37 1
  34   19   23 1
  35   19   21 ar
  36   20   21 ar
  37   20   22 1
  38   21   38 1
  39   24   25 ar
  40   25   26 ar
  41   25   39 1
  42   26   27 ar
  43   26   40 1
  44   27   41 1
  45   28   29 1
  46   28   42 1
  47   29   43 1
  48   29   44 1
  49   29   45 1

#	End of record

