#	Name: ASD05740218
#	Creating user name:	WinNT
#	Creation time:	15. 06. 2019 21:03

#	Modifying user name:	WinNT
#	Modification time:	15. 06. 2019 21:03

#	Program:	/corina/corina34_cracker 3.40 0067  02.08.2006

@<TRIPOS>MOLECULE
ASD05740218
  66   71    0    0    0
SMALL
NO_CHARGES


@<TRIPOS>ATOM
   1 C1             0.7754    -0.2656    -0.3348 C.3     
   2 N2            -0.1403     0.3433     0.6401 N.3     
   3 C3            -1.4240    -0.2032     0.5316 C.ar    
   4 C4            -2.4402     0.2397     1.3682 C.ar    
   5 C5            -3.7068    -0.2995     1.2611 C.ar    
   6 C6            -3.9644    -1.2850     0.3172 C.ar    
   7 C7            -2.9481    -1.7282    -0.5190 C.ar    
   8 C8            -1.6832    -1.1844    -0.4165 C.ar    
   9 N9            -5.2492    -1.8324     0.2090 N.pl3   
  10 C10           -6.3586    -1.0382     0.4243 C.ar    
  11 N11           -6.1838     0.2640     0.6214 N.ar    
  12 N12           -7.5571    -1.6031     0.4210 N.ar    
  13 C13           -8.6445    -0.8707     0.6244 C.ar    
  14 C14           -8.4969     0.5168     0.8433 C.ar    
  15 C15           -7.2106     1.0679     0.8319 C.ar    
  16 N16           -9.8979    -1.4261     0.6264 N.am    
  17 C17          -10.9897    -0.6686     0.8338 C.2     
  18 C18          -10.8990     0.7202     1.0567 C.2     
  19 C19           -9.6861     1.3327     1.0682 C.2     
  20 C20          -10.0503    -2.8653     0.3988 C.3     
  21 O21          -12.0877    -1.1976     0.8286 O.2     
  22 C22           -9.9252    -3.5973     1.7102 C.ar    
  23 C23           -9.9661    -4.9920     1.7393 C.ar    
  24 C24            0.3793     0.1999     2.0073 C.3     
  25 C25            1.7477     0.8785     2.1038 C.3     
  26 N26            2.6634     0.2696     1.1290 N.3     
  27 C27            2.1438     0.4130    -0.2382 C.3     
  28 C28            4.0110     0.8432     1.2429 C.3     
  29 C29           -9.8495    -5.6623     2.9583 C.ar    
  30 C30           -9.6947    -4.9432     4.1252 C.ar    
  31 C31           -9.6549    -3.5604     4.0893 C.ar    
  32 C32           -9.7642    -2.8902     2.8840 C.ar    
  33 C33          -10.1327    -5.7561     0.4850 C.2     
  34 O34          -10.1454    -5.2582    -0.7611 O.3     
  35 N35          -10.3017    -6.1580    -1.5592 N.2     
  36 C36          -10.4043    -7.2991    -0.9441 C.2     
  37 N37          -10.2924    -7.0627     0.3722 N.2     
  38 C38          -10.6065    -8.6444    -1.5925 C.3     
  39 H39            0.8808    -1.3290    -0.1198 H       
  40 H40            0.3751    -0.1355    -1.3402 H       
  41 H41           -2.2397     1.0056     2.1027 H       
  42 H42           -4.4971     0.0449     1.9117 H       
  43 H43           -3.1484    -2.4952    -1.2525 H       
  44 H44           -0.8929    -1.5290    -1.0668 H       
  45 H45           -5.3598    -2.7691    -0.0172 H       
  46 H46           -7.0606     2.1248     0.9959 H       
  47 H47          -11.7961     1.2991     1.2192 H       
  48 H48           -9.6042     2.3961     1.2383 H       
  49 H49          -11.0304    -3.0627    -0.0354 H       
  50 H50           -9.2741    -3.2093    -0.2848 H       
  51 H51           -0.3098     0.6694     2.7093 H       
  52 H52            0.4802    -0.8582     2.2488 H       
  53 H53            1.6423     1.9418     1.8889 H       
  54 H54            2.1480     0.7483     3.1093 H       
  55 H55            2.8329    -0.0566    -0.9402 H       
  56 H56            2.0429     1.4711    -0.4798 H       
  57 H57            4.3986     0.6640     2.2457 H       
  58 H58            4.6683     0.3750     0.5102 H       
  59 H59            3.9659     1.9163     1.0572 H       
  60 H60           -9.8807    -6.7414     2.9876 H       
  61 H61           -9.6047    -5.4605     5.0689 H       
  62 H62           -9.5335    -3.0022     5.0058 H       
  63 H63           -9.7321    -1.8109     2.8629 H       
  64 H64           -9.6368    -9.0930    -1.8086 H       
  65 H65          -11.1644    -9.2930    -0.9172 H       
  66 H66          -11.1643    -8.5203    -2.5206 H       
@<TRIPOS>BOND
   1    1    2 1
   2    1   27 1
   3    1   39 1
   4    1   40 1
   5    2    3 1
   6    2   24 1
   7    3    4 ar
   8    3    8 ar
   9    4    5 ar
  10    4   41 1
  11    5    6 ar
  12    5   42 1
  13    6    7 ar
  14    6    9 1
  15    7    8 ar
  16    7   43 1
  17    8   44 1
  18    9   10 1
  19    9   45 1
  20   10   11 ar
  21   10   12 ar
  22   11   15 ar
  23   12   13 ar
  24   13   14 ar
  25   13   16 1
  26   14   15 ar
  27   14   19 1
  28   15   46 1
  29   16   17 am
  30   16   20 1
  31   17   18 1
  32   17   21 2
  33   18   19 2
  34   18   47 1
  35   19   48 1
  36   20   22 1
  37   20   49 1
  38   20   50 1
  39   22   23 ar
  40   22   32 ar
  41   23   29 ar
  42   23   33 1
  43   24   25 1
  44   24   51 1
  45   24   52 1
  46   25   26 1
  47   25   53 1
  48   25   54 1
  49   26   27 1
  50   26   28 1
  51   27   55 1
  52   27   56 1
  53   28   57 1
  54   28   58 1
  55   28   59 1
  56   29   30 ar
  57   29   60 1
  58   30   31 ar
  59   30   61 1
  60   31   32 ar
  61   31   62 1
  62   32   63 1
  63   33   34 1
  64   33   37 2
  65   34   35 1
  66   35   36 2
  67   36   37 1
  68   36   38 1
  69   38   64 1
  70   38   65 1
  71   38   66 1

#	End of record

