#	Name: ASD01915327
#	Creating user name:	WinNT
#	Creation time:	15. 06. 2019 20:05

#	Modifying user name:	WinNT
#	Modification time:	15. 06. 2019 20:05

#	Program:	/corina/corina34_cracker 3.40 0067  02.08.2006

@<TRIPOS>MOLECULE
ASD01915327
  35   37    0    0    0
SMALL
NO_CHARGES


@<TRIPOS>ATOM
   1 C1            -0.0263     1.4056     0.0397 C.2     
   2 N2             0.0140     0.0556     0.0147 N.pl3   
   3 C3            -1.2925    -0.4007     0.0114 C.2     
   4 C4            -2.0904     0.6614     0.0341 C.2     
   5 O5            -1.3234     1.7747     0.0559 O.3     
   6 N6             1.2174     1.8425     0.0432 N.2     
   7 C7             2.0570     0.8097     0.0211 C.2     
   8 N8             1.3675    -0.3034     0.0031 N.2     
   9 C9            -3.5970     0.6303     0.0395 C.3     
  10 C10           -1.7312    -1.8422    -0.0139 C.3     
  11 C11           -4.1143     1.2051     1.3597 C.3     
  12 O12           -4.1015     1.4259    -1.0655 O.3     
  13 C13           -5.2793     1.0520    -1.6003 C.2     
  14 N14           -5.8036     1.7478    -2.6286 N.am    
  15 O15           -5.8694     0.0873    -1.1558 O.2     
  16 C16           -6.9848     1.3103    -3.2399 C.ar    
  17 C17           -7.2516     1.6483    -4.5610 C.ar    
  18 C18           -8.4188     1.2145    -5.1611 C.ar    
  19 C19           -9.3197     0.4454    -4.4481 C.ar    
  20 C20           -9.0567     0.1080    -3.1330 C.ar    
  21 C21           -7.8894     0.5329    -2.5292 C.ar    
  22 Cl22          -6.1209     2.6145    -5.4563 Cl      
  23 H23            3.1347     0.8788     0.0184 H       
  24 H24           -3.9396    -0.3989    -0.0677 H       
  25 H25           -0.8538    -2.4888    -0.0292 H       
  26 H26           -2.3253    -2.0569     0.8744 H       
  27 H27           -2.3318    -2.0237    -0.9053 H       
  28 H28           -3.7717     2.2343     1.4669 H       
  29 H29           -5.2040     1.1827     1.3636 H       
  30 H30           -3.7356     0.6079     2.1892 H       
  31 H31           -5.3627     2.5518    -2.9451 H       
  32 H32           -8.6274     1.4769    -6.1878 H       
  33 H33          -10.2310     0.1076    -4.9191 H       
  34 H34           -9.7629    -0.4924    -2.5787 H       
  35 H35           -7.6850     0.2689    -1.5021 H       
@<TRIPOS>BOND
   1    1    2 1
   2    1    6 2
   3    1    5 1
   4    2    3 1
   5    2    8 1
   6    3    4 2
   7    3   10 1
   8    4    5 1
   9    4    9 1
  10    6    7 1
  11    7    8 2
  12    7   23 1
  13    9   11 1
  14    9   12 1
  15    9   24 1
  16   10   25 1
  17   10   26 1
  18   10   27 1
  19   11   28 1
  20   11   29 1
  21   11   30 1
  22   12   13 1
  23   13   14 am
  24   13   15 2
  25   14   16 1
  26   14   31 1
  27   16   17 ar
  28   16   21 ar
  29   17   18 ar
  30   17   22 1
  31   18   19 ar
  32   18   32 1
  33   19   20 ar
  34   19   33 1
  35   20   21 ar
  36   20   34 1
  37   21   35 1

#	End of record

