#	Name: ASD05490237
#	Creating user name:	WinNT
#	Creation time:	15. 06. 2019 21:01

#	Modifying user name:	WinNT
#	Modification time:	15. 06. 2019 21:01

#	Program:	/corina/corina34_cracker 3.40 0067  02.08.2006

@<TRIPOS>MOLECULE
ASD05490237
  61   64    0    0    0
SMALL
NO_CHARGES


@<TRIPOS>ATOM
   1 N1            -0.0140     1.3235    -0.0018 N.ar    
   2 C2             0.0026    -0.0005    -0.0086 C.ar    
   3 C3             1.1990    -0.7004    -0.0178 C.ar    
   4 C4             2.3953     0.0106    -0.0206 C.ar    
   5 C5             2.3404     1.4047    -0.0168 C.ar    
   6 C6             1.1047     2.0380    -0.0056 C.ar    
   7 N7             3.6186    -0.6479    -0.0229 N.3     
   8 C8             3.4706    -2.0318    -0.4926 C.3     
   9 C9             4.7908    -2.7480    -0.3696 C.ar    
  10 C10            5.1056    -3.4214     0.7953 C.ar    
  11 C11            6.3177    -4.0793     0.9080 C.ar    
  12 C12            7.2137    -4.0624    -0.1458 C.ar    
  13 C13            6.8977    -3.3884    -1.3106 C.ar    
  14 C14            5.6846    -2.7359    -1.4245 C.ar    
  15 N15            7.6134    -4.5151    -3.3412 N.3     
  16 C16            8.3835    -4.4029    -4.5936 C.3     
  17 C17            9.2413    -5.6796    -4.7188 C.3     
  18 C18            8.4865    -6.6970    -3.8232 C.3     
  19 C19            7.9740    -5.7869    -2.6792 C.3     
  20 N20            1.0388     3.4288     0.0012 N.pl3   
  21 O21           -1.1706    -0.6833    -0.0060 O.3     
  22 C22           -2.3717     0.0908     0.0041 C.3     
  23 C23           -3.5818    -0.8454     0.0055 C.3     
  24 N24            3.5364     2.1439    -0.0281 N.am    
  25 C25            4.6274     0.0692    -0.8097 C.3     
  26 C26            4.6764     1.5173    -0.3970 C.2     
  27 O27            5.7309     2.1170    -0.3961 O.2     
  28 C28            7.8737    -3.3699    -2.4587 C.3     
  29 C29           -4.8678    -0.0166     0.0164 C.3     
  30 C30           -6.0780    -0.9528     0.0178 C.3     
  31 Cl31           6.7140    -4.9251     2.3713 Cl      
  32 H32            1.2028    -1.7804    -0.0225 H       
  33 H33            2.7222    -2.5430     0.1130 H       
  34 H34            3.1542    -2.0297    -1.5357 H       
  35 H35            4.4058    -3.4340     1.6179 H       
  36 H36            8.1600    -4.5754    -0.0584 H       
  37 H37            5.4380    -2.2097    -2.3348 H       
  38 H38            7.7031    -4.3286    -5.4419 H       
  39 H39            9.0285    -3.5251    -4.5548 H       
  40 H40            9.2711    -6.0240    -5.7525 H       
  41 H41           10.2485    -5.5058    -4.3401 H       
  42 H42            7.6554    -7.1510    -4.3630 H       
  43 H43            9.1651    -7.4596    -3.4413 H       
  44 H44            8.7615    -5.6220    -1.9438 H       
  45 H45            7.0979    -6.2298    -2.2055 H       
  46 H46            1.8549     3.9530    -0.0019 H       
  47 H47            0.1768     3.8735     0.0091 H       
  48 H48           -2.3941     0.7150     0.8974 H       
  49 H49           -2.4033     0.7241    -0.8825 H       
  50 H50           -3.5594    -1.4696    -0.8877 H       
  51 H51           -3.5502    -1.4787     0.8922 H       
  52 H52            3.5435     3.0810     0.2224 H       
  53 H53            5.6040    -0.3863    -0.6458 H       
  54 H54            4.3737     0.0035    -1.8678 H       
  55 H55            7.7557    -2.4437    -3.0210 H       
  56 H56            8.8909    -3.4331    -2.0720 H       
  57 H57           -4.8903     0.6076     0.9097 H       
  58 H58           -4.8994     0.6167    -0.8702 H       
  59 H59           -6.0555    -1.5770    -0.8755 H       
  60 H60           -6.0464    -1.5860     0.9045 H       
  61 H61           -6.9941    -0.3623     0.0256 H       
@<TRIPOS>BOND
   1    1    2 ar
   2    1    6 ar
   3    2    3 ar
   4    2   21 1
   5    3    4 ar
   6    3   32 1
   7    4    5 ar
   8    4    7 1
   9    5    6 ar
  10    5   24 1
  11    6   20 1
  12    7    8 1
  13    7   25 1
  14    8    9 1
  15    8   33 1
  16    8   34 1
  17    9   10 ar
  18    9   14 ar
  19   10   11 ar
  20   10   35 1
  21   11   12 ar
  22   11   31 1
  23   12   13 ar
  24   12   36 1
  25   13   14 ar
  26   13   28 1
  27   14   37 1
  28   15   16 1
  29   15   19 1
  30   15   28 1
  31   16   17 1
  32   16   38 1
  33   16   39 1
  34   17   18 1
  35   17   40 1
  36   17   41 1
  37   18   19 1
  38   18   42 1
  39   18   43 1
  40   19   44 1
  41   19   45 1
  42   20   46 1
  43   20   47 1
  44   21   22 1
  45   22   23 1
  46   22   48 1
  47   22   49 1
  48   23   29 1
  49   23   50 1
  50   23   51 1
  51   24   26 am
  52   24   52 1
  53   25   26 1
  54   25   53 1
  55   25   54 1
  56   26   27 2
  57   28   55 1
  58   28   56 1
  59   29   30 1
  60   29   57 1
  61   29   58 1
  62   30   59 1
  63   30   60 1
  64   30   61 1

#	End of record

