#	Name: ASD01918389
#	Creating user name:	WinNT
#	Creation time:	15. 06. 2019 20:11

#	Modifying user name:	WinNT
#	Modification time:	15. 06. 2019 20:11

#	Program:	/corina/corina34_cracker 3.40 0067  02.08.2006

@<TRIPOS>MOLECULE
ASD01918389
  33   35    0    0    0
SMALL
NO_CHARGES


@<TRIPOS>ATOM
   1 O1             0.0024    -0.0043    -0.0084 O.2     
   2 C2            -0.0143     1.2112     0.0050 C.2     
   3 N3             1.1435     1.9012     0.0014 N.am    
   4 C4             2.3550     1.2261     0.0911 C.ar    
   5 C5             3.5469     1.9370    -0.0225 C.ar    
   6 C6             4.7465     1.2612     0.0679 C.ar    
   7 C7             4.7160    -0.1263     0.2722 C.ar    
   8 C8             3.4806    -0.7686     0.3760 C.ar    
   9 N9             2.3595    -0.0843     0.2889 N.ar    
  10 C10            5.9338    -0.8730     0.3724 C.1     
  11 N11            6.8999    -1.4653     0.4519 N.1     
  12 C12           -1.3031     1.9318     0.0191 C.2     
  13 C13           -2.5943     1.3490     0.0246 C.2     
  14 C14           -3.4533     2.3863     0.0379 C.2     
  15 C15           -4.9602     2.3313     0.0498 C.3     
  16 C16           -5.4871     3.7145     0.4543 C.3     
  17 C17           -4.7739     4.7841    -0.3780 C.3     
  18 C18           -3.3068     4.8759     0.0515 C.3     
  19 N19           -2.7221     3.5273     0.0396 N.pl3   
  20 N20           -1.4704     3.2399     0.0347 N.2     
  21 H21            1.1312     2.8689    -0.0639 H       
  22 H22            3.5325     3.0054    -0.1799 H       
  23 H23            5.6858     1.7875    -0.0169 H       
  24 H24            3.4446    -1.8364     0.5334 H       
  25 H25           -2.8379     0.2969     0.0194 H       
  26 H26           -5.3267     2.0743    -0.9440 H       
  27 H27           -5.2952     1.5850     0.7702 H       
  28 H28           -6.5602     3.7642     0.2696 H       
  29 H29           -5.2899     3.8845     1.5128 H       
  30 H30           -4.8270     4.5177    -1.4336 H       
  31 H31           -5.2585     5.7479    -0.2225 H       
  32 H32           -2.7625     5.5159    -0.6429 H       
  33 H33           -3.2462     5.2912     1.0574 H       
@<TRIPOS>BOND
   1    1    2 2
   2    2    3 am
   3    2   12 1
   4    3    4 1
   5    3   21 1
   6    4    9 ar
   7    4    5 ar
   8    5    6 ar
   9    5   22 1
  10    6    7 ar
  11    6   23 1
  12    7    8 ar
  13    7   10 1
  14    8    9 ar
  15    8   24 1
  16   10   11 3
  17   12   20 2
  18   12   13 1
  19   13   14 2
  20   13   25 1
  21   14   19 1
  22   14   15 1
  23   15   16 1
  24   15   26 1
  25   15   27 1
  26   16   17 1
  27   16   28 1
  28   16   29 1
  29   17   18 1
  30   17   30 1
  31   17   31 1
  32   18   19 1
  33   18   32 1
  34   18   33 1
  35   19   20 1

#	End of record

