#	Name: ASD01140498
#	Creating user name:	WinNT
#	Creation time:	15. 06. 2019 19:01

#	Modifying user name:	WinNT
#	Modification time:	15. 06. 2019 19:01

#	Program:	/corina/corina34_cracker 3.40 0067  02.08.2006

@<TRIPOS>MOLECULE
ASD01140498
  54   54    0    0    0
SMALL
NO_CHARGES


@<TRIPOS>ATOM
   1 C1            -0.0168     1.3877     0.0097 C.ar    
   2 C2             0.0021    -0.0041     0.0020 C.ar    
   3 C3             1.2127    -0.6772    -0.0132 C.ar    
   4 C4             2.3989     0.0335    -0.0207 C.ar    
   5 C5             2.3802     1.4154    -0.0131 C.ar    
   6 C6             1.1751     2.0936     0.0021 C.ar    
   7 O7            -1.2028     2.0531     0.0189 O.3     
   8 C8            -1.1456     3.4810     0.0264 C.3     
   9 C9            -2.5664     4.0483     0.0362 C.3     
  10 C10            3.6758     2.1850    -0.0208 C.3     
  11 C11            4.0947     2.4491    -1.4441 C.2     
  12 O12            5.2271     3.1243    -1.6962 O.3     
  13 O13            3.4112     2.0531    -2.3584 O.2     
  14 C14            5.5683     3.3420    -3.0906 C.3     
  15 C15            6.8813     4.1226    -3.1785 C.3     
  16 C16            7.2408     4.3520    -4.6479 C.3     
  17 O17           -1.1654    -0.7015     0.0099 O.3     
  18 C18           -1.0695    -2.1272     0.0013 C.3     
  19 C19           -2.4533    -2.7239     0.0118 C.2     
  20 N20           -2.6100    -4.0625     0.0062 N.am    
  21 O21           -3.4259    -1.9995     0.0254 O.2     
  22 C22           -3.9553    -4.6425     0.0164 C.3     
  23 C23           -1.4351    -4.9375    -0.0102 C.3     
  24 C24           -4.4379    -4.8367    -1.4224 C.3     
  25 C25           -1.0118    -5.2499     1.4265 C.3     
  26 H26            1.2301    -1.7570    -0.0188 H       
  27 H27            3.3421    -0.4925    -0.0321 H       
  28 H28            1.1632     3.1735     0.0076 H       
  29 H29           -0.6134     3.8186     0.9157 H       
  30 H30           -0.6218     3.8283    -0.8642 H       
  31 H31           -2.5228     5.1374     0.0419 H       
  32 H32           -3.0986     3.7107    -0.8531 H       
  33 H33           -3.0902     3.7010     0.9268 H       
  34 H34            3.5385     3.1329     0.4994 H       
  35 H35            4.4473     1.6025     0.4829 H       
  36 H36            5.6831     2.3805    -3.5910 H       
  37 H37            4.7743     3.9108    -3.5744 H       
  38 H38            6.7665     5.0842    -2.6782 H       
  39 H39            7.6753     3.5538    -2.6947 H       
  40 H40            8.1762     4.9082    -4.7105 H       
  41 H41            7.3556     3.3905    -5.1482 H       
  42 H42            6.4468     4.9209    -5.1317 H       
  43 H43           -0.5412    -2.4504    -0.8958 H       
  44 H44           -0.5236    -2.4600     0.8841 H       
  45 H45           -3.9315    -5.6064     0.5249 H       
  46 H46           -4.6361    -3.9719     0.5407 H       
  47 H47           -1.6805    -5.8655    -0.5266 H       
  48 H48           -0.6173    -4.4380    -0.5295 H       
  49 H49           -5.4388    -5.2683    -1.4148 H       
  50 H50           -4.4617    -3.8729    -1.9309 H       
  51 H51           -3.7570    -5.5073    -1.9466 H       
  52 H52           -0.7665    -4.3218     1.9429 H       
  53 H53           -1.8297    -5.7494     1.9458 H       
  54 H54           -0.1377    -5.9009     1.4144 H       
@<TRIPOS>BOND
   1    1    2 ar
   2    1    6 ar
   3    1    7 1
   4    2    3 ar
   5    2   17 1
   6    3    4 ar
   7    3   26 1
   8    4    5 ar
   9    4   27 1
  10    5    6 ar
  11    5   10 1
  12    6   28 1
  13    7    8 1
  14    8    9 1
  15    8   29 1
  16    8   30 1
  17    9   31 1
  18    9   32 1
  19    9   33 1
  20   10   11 1
  21   10   34 1
  22   10   35 1
  23   11   12 1
  24   11   13 2
  25   12   14 1
  26   14   15 1
  27   14   36 1
  28   14   37 1
  29   15   16 1
  30   15   38 1
  31   15   39 1
  32   16   40 1
  33   16   41 1
  34   16   42 1
  35   17   18 1
  36   18   19 1
  37   18   43 1
  38   18   44 1
  39   19   20 am
  40   19   21 2
  41   20   22 1
  42   20   23 1
  43   22   24 1
  44   22   45 1
  45   22   46 1
  46   23   25 1
  47   23   47 1
  48   23   48 1
  49   24   49 1
  50   24   50 1
  51   24   51 1
  52   25   52 1
  53   25   53 1
  54   25   54 1

#	End of record

