#	Name: ASD01916012
#	Creating user name:	WinNT
#	Creation time:	15. 06. 2019 20:06

#	Modifying user name:	WinNT
#	Modification time:	15. 06. 2019 20:06

#	Program:	/corina/corina34_cracker 3.40 0067  02.08.2006

@<TRIPOS>MOLECULE
ASD01916012
  40   42    0    0    0
SMALL
NO_CHARGES


@<TRIPOS>ATOM
   1 C1            -0.7765     2.7660     1.4624 C.ar    
   2 C2            -0.3657     1.6146     0.7756 C.ar    
   3 C3            -1.3267     0.6949     0.4034 C.ar    
   4 C4            -2.6635     0.9400     0.7205 C.ar    
   5 C5            -3.6985    -0.0403     0.3257 C.2     
   6 N6            -4.9773     0.1371     0.7125 N.am    
   7 O7            -3.3956    -1.0060    -0.3475 O.2     
   8 C8            -6.0226    -0.7649     0.2227 C.3     
   9 C9             0.1815     3.7492     1.8699 C.1     
  10 C10            0.9669     4.5554     2.2040 C.1     
  11 C11            1.9249     5.5386     2.6115 C.ar    
  12 C12            1.5079     6.6834     3.2955 C.ar    
  13 C13            4.2000     6.3049     2.7274 C.ar    
  14 C14            2.4383     7.6273     3.6857 C.ar    
  15 N15           -3.0193     2.0418     1.3725 N.ar    
  16 C16           -2.1388     2.9433     1.7390 C.ar    
  17 C17            3.2822     5.3547     2.3320 C.ar    
  18 C18            3.7813     7.4394     3.3998 C.ar    
  19 C19           -5.3220     1.2321     1.6226 C.3     
  20 C20           -5.8277    -2.2448     0.5585 C.3     
  21 F21            2.0382     8.7355     4.3468 F       
  22 C22           -7.4562    -0.2315     0.1868 C.3     
  23 C23           -6.6782    -0.4250    -1.1173 C.3     
  24 H24            0.6762     1.4510     0.5432 H       
  25 H25           -1.0469    -0.2032    -0.1271 H       
  26 H26            0.4614     6.8302     3.5181 H       
  27 H27            5.2482     6.1649     2.5082 H       
  28 H28           -2.4663     3.8262     2.2680 H       
  29 H29            3.6114     4.4698     1.8075 H       
  30 H30            4.5050     8.1798     3.7072 H       
  31 H31           -5.4708     2.1475     1.0498 H       
  32 H32           -6.2392     0.9850     2.1573 H       
  33 H33           -4.5127     1.3786     2.3378 H       
  34 H34           -5.8858    -2.3831     1.6382 H       
  35 H35           -6.6072    -2.8330     0.0744 H       
  36 H36           -4.8511    -2.5727     0.2023 H       
  37 H37           -8.2604    -0.9350     0.4020 H       
  38 H38           -7.6215     0.7906     0.5276 H       
  39 H39           -6.3321     0.4700    -1.6343 H       
  40 H40           -6.9710    -1.2556    -1.7595 H       
@<TRIPOS>BOND
   1    1    2 ar
   2    1    9 1
   3    1   16 ar
   4    2    3 ar
   5    2   24 1
   6    3    4 ar
   7    3   25 1
   8    4   15 ar
   9    4    5 1
  10    5    6 am
  11    5    7 2
  12    6    8 1
  13    6   19 1
  14    8   20 1
  15    8   22 1
  16    8   23 1
  17    9   10 3
  18   10   11 1
  19   11   12 ar
  20   11   17 ar
  21   12   14 ar
  22   12   26 1
  23   13   18 ar
  24   13   17 ar
  25   13   27 1
  26   14   21 1
  27   14   18 ar
  28   15   16 ar
  29   16   28 1
  30   17   29 1
  31   18   30 1
  32   19   31 1
  33   19   32 1
  34   19   33 1
  35   20   34 1
  36   20   35 1
  37   20   36 1
  38   22   23 1
  39   22   37 1
  40   22   38 1
  41   23   39 1
  42   23   40 1

#	End of record

