#	Name: ASD01028613
#	Creating user name:	WinNT
#	Creation time:	15. 06. 2019 18:57

#	Modifying user name:	WinNT
#	Modification time:	15. 06. 2019 18:57

#	Program:	/corina/corina34_cracker 3.40 0067  02.08.2006

@<TRIPOS>MOLECULE
ASD01028613
  28   30    0    0    0
SMALL
NO_CHARGES


@<TRIPOS>ATOM
   1 C1            -0.0178     1.4648     0.0101 C.3     
   2 N2             0.0021    -0.0041     0.0020 N.3     
   3 C3             3.3481     2.7122    -0.6328 C.2     
   4 C4             4.3447     3.0880    -1.5539 C.2     
   5 C5             4.0829     3.0033    -2.8844 C.2     
   6 C6             2.8249     2.5431    -3.3303 C.2     
   7 N7             1.8934     2.1918    -2.4701 N.2     
   8 N8             2.1333     2.2681    -1.0966 N.pl3   
   9 N9             2.1321     2.2461     1.0514 N.2     
  10 N10            3.2910     2.6737     0.6886 N.2     
  11 C11            1.3960     1.9864    -0.0006 C.2     
  12 S12            1.4778     2.0797    -7.0411 S.3     
  13 C13            3.0789     2.6695    -6.9472 C.2     
  14 N14            3.4448     2.7935    -5.7140 N.2     
  15 C15            2.5502     2.4552    -4.7838 C.2     
  16 C16            1.3754     2.0263    -5.2836 C.2     
  17 O17            3.8566     2.9654    -8.0168 O.3     
  18 C18            3.2837     2.7657    -9.3106 C.3     
  19 H19           -0.5450     1.8259    -0.8730 H       
  20 H20           -0.5280     1.8163     0.9069 H       
  21 H21           -0.9349    -0.3784     0.0090 H       
  22 H22            0.5256    -0.3543    -0.7863 H       
  23 H23            5.3052     3.4396    -1.2071 H       
  24 H24            4.8381     3.2886    -3.6019 H       
  25 H25            0.5199     1.7062    -4.7075 H       
  26 H26            4.0099     3.0400   -10.0758 H       
  27 H27            3.0098     1.7173    -9.4288 H       
  28 H28            2.3944     3.3875    -9.4142 H       
@<TRIPOS>BOND
   1    1    2 1
   2    1   11 1
   3    1   19 1
   4    1   20 1
   5    2   21 1
   6    2   22 1
   7    3    4 1
   8    3    8 1
   9    3   10 2
  10    4    5 2
  11    4   23 1
  12    5    6 1
  13    5   24 1
  14    6    7 2
  15    6   15 1
  16    7    8 1
  17    8   11 1
  18    9   10 1
  19    9   11 2
  20   12   13 1
  21   12   16 1
  22   13   14 2
  23   13   17 1
  24   14   15 1
  25   15   16 2
  26   16   25 1
  27   17   18 1
  28   18   26 1
  29   18   27 1
  30   18   28 1

#	End of record

