#	Name: ASD01912160
#	Creating user name:	WinNT
#	Creation time:	15. 06. 2019 19:59

#	Modifying user name:	WinNT
#	Modification time:	15. 06. 2019 19:59

#	Program:	/corina/corina34_cracker 3.40 0067  02.08.2006

@<TRIPOS>MOLECULE
ASD01912160
  38   41    0    0    0
SMALL
NO_CHARGES


@<TRIPOS>ATOM
   1 C1            -0.0183     1.5108     0.0191 C.3     
   2 C2            -0.0112     0.0038     0.0164 C.2     
   3 O3             0.5363    -0.7860    -0.9127 O.3     
   4 N4             0.3689    -1.9508    -0.6189 N.2     
   5 C5            -0.2903    -2.0399     0.5069 C.2     
   6 N6            -0.5354    -0.7782     0.9270 N.2     
   7 C7            -0.6897    -3.2916     1.1973 C.ar    
   8 C8            -0.3617    -4.5284     0.6470 C.ar    
   9 C9            -0.7360    -5.6904     1.2939 C.ar    
  10 C10           -1.4356    -5.6262     2.4865 C.ar    
  11 C11           -1.7634    -4.4001     3.0365 C.ar    
  12 C12           -1.3891    -3.2335     2.4011 C.ar    
  13 C13            1.4227     2.0710    -0.0077 C.3     
  14 Cl14          -0.3289    -7.2331     0.6098 Cl      
  15 C15            1.3277     3.2974    -0.8884 C.2     
  16 N16            0.1863     3.2697    -1.5978 N.am    
  17 C17           -0.5956     2.0632    -1.3030 C.3     
  18 O18            2.1599     4.1778    -0.9454 O.2     
  19 C19           -0.2061     4.2637    -2.5010 C.ar    
  20 C20           -1.3445     4.0889    -3.2759 C.ar    
  21 C21           -1.7299     5.0740    -4.1676 C.ar    
  22 C22           -0.9807     6.2327    -4.2864 C.ar    
  23 C23            0.1536     6.4075    -3.5153 C.ar    
  24 C24            0.5395     5.4297    -2.6196 C.ar    
  25 F25           -2.8372     4.9054    -4.9230 F       
  26 H26           -0.5702     1.8947     0.8770 H       
  27 H27            0.1839    -4.5790    -0.2837 H       
  28 H28           -1.7269    -6.5366     2.9893 H       
  29 H29           -2.3094    -4.3555     3.9672 H       
  30 H30           -1.6455    -2.2769     2.8319 H       
  31 H31            1.7436     2.3466     0.9968 H       
  32 H32            2.1074     1.3421    -0.4414 H       
  33 H33           -0.4757     1.3314    -2.1019 H       
  34 H34           -1.6482     2.3171    -1.1780 H       
  35 H35           -1.9282     3.1850    -3.1832 H       
  36 H36           -1.2827     7.0009    -4.9829 H       
  37 H37            0.7361     7.3119    -3.6103 H       
  38 H38            1.4255     5.5679    -2.0176 H       
@<TRIPOS>BOND
   1    1    2 1
   2    1   13 1
   3    1   17 1
   4    1   26 1
   5    2    3 1
   6    2    6 2
   7    3    4 1
   8    4    5 2
   9    5    6 1
  10    5    7 1
  11    7    8 ar
  12    7   12 ar
  13    8    9 ar
  14    8   27 1
  15    9   10 ar
  16    9   14 1
  17   10   11 ar
  18   10   28 1
  19   11   12 ar
  20   11   29 1
  21   12   30 1
  22   13   15 1
  23   13   31 1
  24   13   32 1
  25   15   16 am
  26   15   18 2
  27   16   17 1
  28   16   19 1
  29   17   33 1
  30   17   34 1
  31   19   20 ar
  32   19   24 ar
  33   20   21 ar
  34   20   35 1
  35   21   22 ar
  36   21   25 1
  37   22   23 ar
  38   22   36 1
  39   23   24 ar
  40   23   37 1
  41   24   38 1

#	End of record

