#	Name: ASD01910904
#	Creating user name:	WinNT
#	Creation time:	15. 06. 2019 19:56

#	Modifying user name:	WinNT
#	Modification time:	15. 06. 2019 19:56

#	Program:	/corina/corina34_cracker 3.40 0067  02.08.2006

@<TRIPOS>MOLECULE
ASD01910904
  53   57    0    0    0
SMALL
NO_CHARGES


@<TRIPOS>ATOM
   1 N1            -0.3257     0.8107    -0.1442 N.3     
   2 C2            -0.3890    -0.6221     0.2851 C.3     
   3 C3             0.5510    -0.6877     1.5286 C.3     
   4 N4            -0.1729     0.0329     2.5977 N.am    
   5 C5            -1.4391     0.5277     1.9809 C.3     
   6 C6            -0.9664     1.5911     0.9418 C.3     
   7 C7             0.2292     0.2077     3.8721 C.2     
   8 C8             1.4692    -0.4397     4.3515 C.ar    
   9 C9             2.3070    -1.1005     3.4504 C.ar    
  10 C10            3.4658    -1.7060     3.8956 C.ar    
  11 C11            3.8049    -1.6631     5.2328 C.ar    
  12 C12            2.9754    -1.0054     6.1465 C.ar    
  13 C13            1.8071    -0.3867     5.7020 C.ar    
  14 C14            3.3278    -0.9618     7.5338 C.1     
  15 O15           -0.4274     0.8975     4.6274 O.2     
  16 C16            3.6167    -0.9260     8.6712 C.1     
  17 C17            3.9690    -0.8824    10.0584 C.ar    
  18 C18            3.1478    -0.2281    10.9800 C.ar    
  19 N19            3.4726    -0.1885    12.2555 N.ar    
  20 C20            4.5719    -0.7565    12.7129 C.ar    
  21 C21            5.4382    -1.4235    11.8648 C.ar    
  22 C22            5.1408    -1.5002    10.5161 C.ar    
  23 C23            0.9963     1.2168    -0.3395 C.ar    
  24 C24            1.9445     0.3073    -0.7906 C.ar    
  25 C25            3.2507     0.7123    -0.9831 C.ar    
  26 C26            3.6152     2.0215    -0.7274 C.ar    
  27 C27            2.6738     2.9295    -0.2783 C.ar    
  28 C28            1.3647     2.5325    -0.0887 C.ar    
  29 C29            5.0416     2.4596    -0.9382 C.3     
  30 C30           -1.7830    -0.6570     1.0085 C.3     
  31 H31           -0.2125    -1.3651    -0.4926 H       
  32 H32            0.7219    -1.7242     1.8195 H       
  33 H33            1.4983    -0.1932     1.3134 H       
  34 H34           -2.2186     0.8447     2.6737 H       
  35 H35           -0.2449     2.2700     1.3965 H       
  36 H36           -1.8198     2.1480     0.5551 H       
  37 H37            2.0479    -1.1385     2.4026 H       
  38 H38            4.1095    -2.2159     3.1941 H       
  39 H39            4.7125    -2.1387     5.5742 H       
  40 H40            1.1625     0.1228     6.4029 H       
  41 H41            2.2394     0.2492    10.6435 H       
  42 H42            4.7997    -0.6997    13.7670 H       
  43 H43            6.3350    -1.8835    12.2527 H       
  44 H44            5.7994    -2.0147     9.8320 H       
  45 H45            1.6606    -0.7154    -0.9901 H       
  46 H46            3.9885     0.0056    -1.3334 H       
  47 H47            2.9618     3.9512    -0.0796 H       
  48 H48            0.6299     3.2422     0.2617 H       
  49 H49            5.1648     2.8165    -1.9607 H       
  50 H50            5.2817     3.2629    -0.2416 H       
  51 H51            5.7101     1.6163    -0.7647 H       
  52 H52           -2.6056    -0.4154     0.3353 H       
  53 H53           -1.9512    -1.5938     1.5396 H       
@<TRIPOS>BOND
   1    1    2 1
   2    1   23 1
   3    1    6 1
   4    2    3 1
   5    2   30 1
   6    2   31 1
   7    3    4 1
   8    3   32 1
   9    3   33 1
  10    4    5 1
  11    4    7 am
  12    5    6 1
  13    5   30 1
  14    5   34 1
  15    6   35 1
  16    6   36 1
  17    7    8 1
  18    7   15 2
  19    8    9 ar
  20    8   13 ar
  21    9   10 ar
  22    9   37 1
  23   10   11 ar
  24   10   38 1
  25   11   12 ar
  26   11   39 1
  27   12   13 ar
  28   12   14 1
  29   13   40 1
  30   14   16 3
  31   16   17 1
  32   17   18 ar
  33   17   22 ar
  34   18   19 ar
  35   18   41 1
  36   19   20 ar
  37   20   21 ar
  38   20   42 1
  39   21   22 ar
  40   21   43 1
  41   22   44 1
  42   23   24 ar
  43   23   28 ar
  44   24   25 ar
  45   24   45 1
  46   25   26 ar
  47   25   46 1
  48   26   27 ar
  49   26   29 1
  50   27   28 ar
  51   27   47 1
  52   28   48 1
  53   29   49 1
  54   29   50 1
  55   29   51 1
  56   30   52 1
  57   30   53 1

#	End of record

