#	Name: ASD01810509
#	Creating user name:	WinNT
#	Creation time:	15. 06. 2019 19:24

#	Modifying user name:	WinNT
#	Modification time:	15. 06. 2019 19:24

#	Program:	/corina/corina34_cracker 3.40 0067  02.08.2006

@<TRIPOS>MOLECULE
ASD01810509
  77   82    0    0    0
SMALL
NO_CHARGES


@<TRIPOS>ATOM
   1 C1             2.5942     6.0017    -0.2324 C.ar    
   2 C2             3.8740     6.5098    -0.2379 C.ar    
   3 C3             4.9672     5.6550    -0.2272 C.ar    
   4 C4             4.7912     4.2873    -0.2105 C.ar    
   5 C5             3.5033     3.7513    -0.2043 C.ar    
   6 C6             2.4000     4.6201    -0.2156 C.ar    
   7 N7             3.3135     2.3859    -0.1872 N.pl3   
   8 C8             2.0991     1.8223    -0.1806 C.2     
   9 C9             0.9402     2.5725    -0.1905 C.2     
  10 C10            1.0438     4.0405    -0.2089 C.2     
  11 O11            0.0511     4.7471    -0.2180 O.2     
  12 C12           -0.3748     1.9162    -0.1833 C.2     
  13 O13           -0.4485     0.7029    -0.1685 O.2     
  14 O14           -1.4992     2.6597    -0.1931 O.3     
  15 C15            4.4910     1.5143    -0.1762 C.3     
  16 C16            4.8584     1.1485    -1.5913 C.ar    
  17 C17            5.6287     1.9978    -2.3245 C.ar    
  18 C18            5.9738     1.6601    -3.6443 C.ar    
  19 C19            5.5122     0.4363    -4.1914 C.ar    
  20 C20            4.7185    -0.4151    -3.4031 C.ar    
  21 C21            4.4089    -0.0570    -2.1272 C.ar    
  22 C22            6.7670     2.5128    -4.4311 C.ar    
  23 C23            7.0824     2.1558    -5.7051 C.ar    
  24 C24            6.6285     0.9495    -6.2468 C.ar    
  25 C25            5.8558     0.0974    -5.5100 C.ar    
  26 O26            6.9603     0.6204    -7.5227 O.3     
  27 N27            9.1619     1.4939   -11.7682 N.am    
  28 C28            8.3591     1.7967   -12.7845 C.2     
  29 C29           10.3132     0.6332   -12.0419 C.3     
  30 S30            9.9148    -0.1199   -13.6643 S.3     
  31 C31            8.7268     1.2054   -14.1315 C.3     
  32 C32           11.5966     1.4463   -12.1527 C.3     
  33 C33           11.9566     2.0156   -10.7770 C.3     
  34 N34           12.1067     0.9149    -9.8165 N.3     
  35 C35           10.8485     0.1757    -9.6510 C.3     
  36 C36           10.4497    -0.4578   -10.9874 C.3     
  37 O37            7.3862     2.5065   -12.6416 O.2     
  38 C38            7.4953     0.6146   -14.8209 C.3     
  39 C39            7.9042     0.0112   -16.1662 C.3     
  40 F40            5.8649     3.4674    -0.2007 F       
  41 C41            7.7704     1.5515    -8.2431 C.3     
  42 C42            8.0382     1.0128    -9.6499 C.3     
  43 C43            8.9055     2.0097   -10.4212 C.3     
  44 H44            1.7451     6.6692    -0.2366 H       
  45 H45            4.0278     7.5788    -0.2509 H       
  46 H46            5.9663     6.0652    -0.2323 H       
  47 H47            2.0236     0.7450    -0.1674 H       
  48 H48           -2.3407     2.1832    -0.1878 H       
  49 H49            5.3252     2.0365     0.2923 H       
  50 H50            4.2672     0.6083     0.3868 H       
  51 H51            5.9727     2.9268    -1.8944 H       
  52 H52            4.3597    -1.3505    -3.8066 H       
  53 H53            3.7993    -0.7131    -1.5236 H       
  54 H54            7.1244     3.4480    -4.0258 H       
  55 H55            7.6919     2.8137    -6.3070 H       
  56 H56            5.5110    -0.8318    -5.9393 H       
  57 H57            9.2070     1.9512   -14.7650 H       
  58 H58           12.4047     0.8045   -12.5036 H       
  59 H59           11.4492     2.2645   -12.8577 H       
  60 H60           12.8938     2.5679   -10.8461 H       
  61 H61           11.1641     2.6848   -10.4419 H       
  62 H62           12.8561     0.2967   -10.0892 H       
  63 H63           10.9822    -0.6064    -8.9036 H       
  64 H64           10.0652     0.8599    -9.3250 H       
  65 H65            9.4974    -0.9759   -10.8746 H       
  66 H66           11.2164    -1.1683   -11.2964 H       
  67 H67            7.0638    -0.1627   -14.1903 H       
  68 H68            6.7582     1.4007   -14.9843 H       
  69 H69            8.3358     0.7885   -16.7968 H       
  70 H70            8.6413    -0.7750   -16.0027 H       
  71 H71            7.0269    -0.4097   -16.6573 H       
  72 H72            7.2510     2.5072    -8.3128 H       
  73 H73            8.7170     1.6897    -7.7207 H       
  74 H74            8.5576     0.0571    -9.5802 H       
  75 H75            7.0916     0.8746   -10.1723 H       
  76 H76            9.8522     2.1479    -9.8988 H       
  77 H77            8.3861     2.9654   -10.4908 H       
@<TRIPOS>BOND
   1    1    2 ar
   2    1    6 ar
   3    1   44 1
   4    2    3 ar
   5    2   45 1
   6    3    4 ar
   7    3   46 1
   8    4    5 ar
   9    4   40 1
  10    5    6 ar
  11    5    7 1
  12    6   10 1
  13    7    8 1
  14    7   15 1
  15    8    9 2
  16    8   47 1
  17    9   10 1
  18    9   12 1
  19   10   11 2
  20   12   13 2
  21   12   14 1
  22   14   48 1
  23   15   16 1
  24   15   49 1
  25   15   50 1
  26   16   17 ar
  27   16   21 ar
  28   17   18 ar
  29   17   51 1
  30   18   19 ar
  31   18   22 ar
  32   19   20 ar
  33   19   25 ar
  34   20   21 ar
  35   20   52 1
  36   21   53 1
  37   22   23 ar
  38   22   54 1
  39   23   24 ar
  40   23   55 1
  41   24   25 ar
  42   24   26 1
  43   25   56 1
  44   26   41 1
  45   27   43 1
  46   27   28 am
  47   27   29 1
  48   28   37 2
  49   28   31 1
  50   29   30 1
  51   29   32 1
  52   29   36 1
  53   30   31 1
  54   31   38 1
  55   31   57 1
  56   32   33 1
  57   32   58 1
  58   32   59 1
  59   33   34 1
  60   33   60 1
  61   33   61 1
  62   34   35 1
  63   34   62 1
  64   35   36 1
  65   35   63 1
  66   35   64 1
  67   36   65 1
  68   36   66 1
  69   38   39 1
  70   38   67 1
  71   38   68 1
  72   39   69 1
  73   39   70 1
  74   39   71 1
  75   41   42 1
  76   41   72 1
  77   41   73 1
  78   42   43 1
  79   42   74 1
  80   42   75 1
  81   43   76 1
  82   43   77 1

#	End of record

