#	Name: ASD01918214
#	Creating user name:	WinNT
#	Creation time:	15. 06. 2019 20:11

#	Modifying user name:	WinNT
#	Modification time:	15. 06. 2019 20:11

#	Program:	/corina/corina34_cracker 3.40 0067  02.08.2006

@<TRIPOS>MOLECULE
ASD01918214
  40   43    0    0    0
SMALL
NO_CHARGES


@<TRIPOS>ATOM
   1 C1             0.0717     1.3527    -0.0303 C.ar    
   2 C2             0.1812    -0.0402    -0.2732 C.ar    
   3 C3             1.4455    -0.6615    -0.1344 C.ar    
   4 N4             2.5113     0.0635     0.2209 N.ar    
   5 C5             2.4250     1.3521     0.4492 C.ar    
   6 C6             1.2223     2.0392     0.3344 C.ar    
   7 C7            -1.2257     2.0532    -0.1672 C.ar    
   8 C8            -2.2269     1.8644     0.7858 C.ar    
   9 C9            -3.4334     2.5194     0.6542 C.ar    
  10 C10           -3.6522     3.3637    -0.4229 C.ar    
  11 C11           -2.6607     3.5546    -1.3723 C.ar    
  12 C12           -1.4487     2.9085    -1.2465 C.ar    
  13 C13           -0.9318    -0.8053    -0.6448 C.ar    
  14 C14           -0.7877    -2.1419    -0.8695 C.ar    
  15 C15            0.4531    -2.7587    -0.7347 C.ar    
  16 C16            1.5572    -2.0442    -0.3750 C.ar    
  17 S17            1.1577     3.7713     0.6513 S.o2    
  18 C18            0.1765     4.0009     2.0967 C.ar    
  19 O19            2.4786     4.1656     0.9961 O.2     
  20 O20            0.4298     4.3490    -0.4238 O.2     
  21 C21           -1.1599     4.3333     1.9787 C.ar    
  22 C22            0.7422     3.8429     3.3479 C.ar    
  23 C23           -0.0280     4.0222     4.4832 C.ar    
  24 C24           -1.3643     4.3600     4.3659 C.ar    
  25 C25           -1.9309     4.5137     3.1134 C.ar    
  26 Cl26          -3.6092     4.9324     2.9651 Cl      
  27 Cl27           0.6823     3.8226     6.0546 Cl      
  28 F28           -4.8361     4.0025    -0.5480 F       
  29 F29            2.7529    -2.6604    -0.2492 F       
  30 H30            3.3141     1.8950     0.7342 H       
  31 H31           -2.0575     1.2061     1.6251 H       
  32 H32           -4.2091     2.3739     1.3914 H       
  33 H33           -2.8360     4.2135    -2.2099 H       
  34 H34           -0.6752     3.0611    -1.9846 H       
  35 H35           -1.8997    -0.3384    -0.7523 H       
  36 H36           -1.6471    -2.7301    -1.1555 H       
  37 H37            0.5424    -3.8192    -0.9181 H       
  38 H38           -1.6024     4.4526     1.0008 H       
  39 H39            1.7855     3.5791     3.4393 H       
  40 H40           -1.9660     4.4997     5.2518 H       
@<TRIPOS>BOND
   1    1    2 ar
   2    1    6 ar
   3    1    7 1
   4    2    3 ar
   5    2   13 ar
   6    3    4 ar
   7    3   16 ar
   8    4    5 ar
   9    5    6 ar
  10    5   30 1
  11    6   17 1
  12    7    8 ar
  13    7   12 ar
  14    8    9 ar
  15    8   31 1
  16    9   10 ar
  17    9   32 1
  18   10   11 ar
  19   10   28 1
  20   11   12 ar
  21   11   33 1
  22   12   34 1
  23   13   14 ar
  24   13   35 1
  25   14   15 ar
  26   14   36 1
  27   15   16 ar
  28   15   37 1
  29   16   29 1
  30   17   18 1
  31   17   19 2
  32   17   20 2
  33   18   22 ar
  34   18   21 ar
  35   21   25 ar
  36   21   38 1
  37   22   23 ar
  38   22   39 1
  39   23   24 ar
  40   23   27 1
  41   24   25 ar
  42   24   40 1
  43   25   26 1

#	End of record

