#	Name: ASD01903068
#	Creating user name:	WinNT
#	Creation time:	15. 06. 2019 19:54

#	Modifying user name:	WinNT
#	Modification time:	15. 06. 2019 19:54

#	Program:	/corina/corina34_cracker 3.40 0067  02.08.2006

@<TRIPOS>MOLECULE
ASD01903068
  29   31    0    0    0
SMALL
NO_CHARGES


@<TRIPOS>ATOM
   1 C1            -0.0160     1.2945     0.0210 C.2     
   2 N2             0.0004    -0.0032     0.0040 N.2     
   3 C3            -1.1729    -0.6193     0.0268 C.2     
   4 C4            -2.2469     0.1860     0.0650 C.2     
   5 S5            -1.6842     1.8559     0.0782 S.3     
   6 C6            -1.2919    -2.1000     0.0106 C.2     
   7 N7             1.1050     2.1111     0.0028 N.pl3   
   8 C8            -2.2694    -2.8633     0.6774 C.2     
   9 N9            -2.0437    -4.1252     0.4226 N.2     
  10 N10           -0.9220    -4.2169    -0.4104 N.pl3   
  11 C11           -0.4778    -2.9664    -0.6576 C.2     
  12 C12            0.9585     3.4927    -0.0935 C.ar    
  13 N13           -0.2453     4.0132    -0.2730 N.ar    
  14 C14           -0.4289     5.3166    -0.3691 C.ar    
  15 C15            0.6391     6.1904    -0.2852 C.ar    
  16 C16            1.9198     5.6828    -0.0968 C.ar    
  17 C17            2.0778     4.3125     0.0057 C.ar    
  18 F18            0.4406     7.5229    -0.3857 F       
  19 C19           -3.6856    -0.2614     0.0961 C.3     
  20 H20            1.9909     1.7199     0.0573 H       
  21 H21           -3.0667    -2.4737     1.2930 H       
  22 H22           -0.5338    -5.0369    -0.7537 H       
  23 H23            0.3725    -2.7005    -1.2681 H       
  24 H24           -1.4258     5.7053    -0.5154 H       
  25 H25            2.7712     6.3436    -0.0283 H       
  26 H26            3.0583     3.8842     0.1523 H       
  27 H27           -4.0061    -0.3828     1.1308 H       
  28 H28           -4.3096     0.4873    -0.3921 H       
  29 H29           -3.7818    -1.2123    -0.4281 H       
@<TRIPOS>BOND
   1    1    2 2
   2    1    7 1
   3    1    5 1
   4    2    3 1
   5    3    4 2
   6    3    6 1
   7    4    5 1
   8    4   19 1
   9    6    8 1
  10    6   11 2
  11    7   12 1
  12    7   20 1
  13    8    9 2
  14    8   21 1
  15    9   10 1
  16   10   11 1
  17   10   22 1
  18   11   23 1
  19   12   13 ar
  20   12   17 ar
  21   13   14 ar
  22   14   15 ar
  23   14   24 1
  24   15   16 ar
  25   15   18 1
  26   16   17 ar
  27   16   25 1
  28   17   26 1
  29   19   27 1
  30   19   28 1
  31   19   29 1

#	End of record

