#	Name: ASD03091514
#	Creating user name:	WinNT
#	Creation time:	15. 06. 2019 20:30

#	Modifying user name:	WinNT
#	Modification time:	15. 06. 2019 20:30

#	Program:	/corina/corina34_cracker 3.40 0067  02.08.2006

@<TRIPOS>MOLECULE
ASD03091514
  51   54    0    0    0
SMALL
NO_CHARGES


@<TRIPOS>ATOM
   1 C1            -0.0167     1.3781     0.0096 C.ar    
   2 C2             0.0021    -0.0041     0.0020 C.ar    
   3 C3             1.2084    -0.6789    -0.0132 C.ar    
   4 C4             2.3960     0.0285    -0.0212 C.ar    
   5 C5             2.3773     1.4107    -0.0145 C.ar    
   6 C6             1.1709     2.0855     0.0021 C.ar    
   7 C7             3.7112    -0.7071    -0.0368 C.3     
   8 C8             4.9809     0.1200    -0.2482 C.3     
   9 C9             4.6699    -0.4652     1.1308 C.3     
  10 C10            5.5058    -1.6290     1.5975 C.2     
  11 O11            5.4036    -2.7068     1.0508 O.2     
  12 N12            6.3668    -1.4722     2.6224 N.am    
  13 C13            7.1794    -2.6036     3.0761 C.3     
  14 C14            8.4441    -2.6988     2.2203 C.3     
  15 C15            7.5635    -2.3997     4.5190 C.ar    
  16 C16            7.5613    -3.4696     5.4035 C.ar    
  17 C17            7.9211    -3.2387     6.7196 C.ar    
  18 C18            8.2701    -1.9516     7.1089 C.ar    
  19 N19            8.2596    -0.9576     6.2367 N.ar    
  20 C20            7.9267    -1.1480     4.9740 C.ar    
  21 O21            8.6247    -1.7121     8.3964 O.3     
  22 O22            9.2537    -1.5412     2.4363 O.3     
  23 C23            8.9729    -0.3679     8.7341 C.3     
  24 C24           10.4903    -0.1356     8.5701 C.3     
  25 C25            8.7613    -0.1063    10.2502 C.3     
  26 C26            9.8066     1.0087    10.5050 C.3     
  27 O27           10.9261     0.6712     9.6705 O.3     
  28 H28           -0.9592     1.9054     0.0170 H       
  29 H29           -0.9258    -0.5567     0.0083 H       
  30 H30            1.2231    -1.7588    -0.0184 H       
  31 H31            3.3051     1.9634    -0.0201 H       
  32 H32            1.1563     3.1654     0.0077 H       
  33 H33            3.6849    -1.7080    -0.4677 H       
  34 H34            5.7901    -0.3368    -0.8179 H       
  35 H35            4.8649     1.1962    -0.3761 H       
  36 H36            4.3493     0.2261     1.9102 H       
  37 H37            6.4485    -0.6102     3.0597 H       
  38 H38            6.6053    -3.5251     2.9796 H       
  39 H39            9.0047    -3.5913     2.4984 H       
  40 H40            8.1670    -2.7571     1.1677 H       
  41 H41            7.2848    -4.4597     5.0721 H       
  42 H42            7.9300    -4.0481     7.4346 H       
  43 H43            7.9298    -0.3122     4.2900 H       
  44 H44           10.0741    -1.5339     1.9244 H       
  45 H45            8.4046     0.3411     8.1320 H       
  46 H46           11.0141    -1.0914     8.5820 H       
  47 H47           10.6857     0.3828     7.6314 H       
  48 H48            7.7507     0.2495    10.4503 H       
  49 H49            8.9857    -0.9967    10.8375 H       
  50 H50            9.4013     1.9795    10.2198 H       
  51 H51           10.1047     1.0155    11.5534 H       
@<TRIPOS>BOND
   1    1    2 ar
   2    1    6 ar
   3    1   28 1
   4    2    3 ar
   5    2   29 1
   6    3    4 ar
   7    3   30 1
   8    4    5 ar
   9    4    7 1
  10    5    6 ar
  11    5   31 1
  12    6   32 1
  13    7    8 1
  14    7    9 1
  15    7   33 1
  16    8    9 1
  17    8   34 1
  18    8   35 1
  19    9   10 1
  20    9   36 1
  21   10   11 2
  22   10   12 am
  23   12   13 1
  24   12   37 1
  25   13   14 1
  26   13   15 1
  27   13   38 1
  28   14   22 1
  29   14   39 1
  30   14   40 1
  31   15   16 ar
  32   15   20 ar
  33   16   17 ar
  34   16   41 1
  35   17   18 ar
  36   17   42 1
  37   18   19 ar
  38   18   21 1
  39   19   20 ar
  40   20   43 1
  41   21   23 1
  42   22   44 1
  43   23   24 1
  44   23   25 1
  45   23   45 1
  46   24   27 1
  47   24   46 1
  48   24   47 1
  49   25   26 1
  50   25   48 1
  51   25   49 1
  52   26   27 1
  53   26   50 1
  54   26   51 1

#	End of record

