#	Name: ASD01812656
#	Creating user name:	WinNT
#	Creation time:	15. 06. 2019 19:29

#	Modifying user name:	WinNT
#	Modification time:	15. 06. 2019 19:29

#	Program:	/corina/corina34_cracker 3.40 0067  02.08.2006

@<TRIPOS>MOLECULE
ASD01812656
  47   51    0    0    0
SMALL
NO_CHARGES


@<TRIPOS>ATOM
   1 O1            -0.0163     1.3499     0.0095 O.3     
   2 C2             0.0021    -0.0041     0.0020 C.ar    
   3 N3             1.1578    -0.6485    -0.0125 N.ar    
   4 C4             1.2258    -1.9658    -0.0198 C.ar    
   5 C5             0.0774    -2.7415    -0.0130 C.ar    
   6 C6            -1.1503    -2.1183     0.0021 C.ar    
   7 C7            -1.2036    -0.7201     0.0155 C.ar    
   8 C8            -2.5763    -2.6003     0.0132 C.3     
   9 N9            -3.4150    -1.3952     0.0277 N.am    
  10 C10           -2.6162    -0.3131     0.0376 C.2     
  11 C11           -4.8798    -1.3749     0.0419 C.3     
  12 O12           -3.0070     0.8382     0.0489 O.2     
  13 C13            1.1754     2.0045     0.0016 C.ar    
  14 C14           -5.3684    -1.3756     1.4675 C.ar    
  15 C15           -5.5755    -0.1777     2.1265 C.ar    
  16 C16           -6.0228    -0.1752     3.4332 C.ar    
  17 C17           -6.2651    -1.3769     4.0849 C.ar    
  18 C18           -6.0567    -2.5780     3.4205 C.ar    
  19 C19           -5.6142    -2.5741     2.1121 C.ar    
  20 N20           -6.7188    -1.3775     5.4113 N.pl3   
  21 C21           -6.9919    -2.4711     6.1585 C.2     
  22 C22           -7.4015    -2.0459     7.3761 C.2     
  23 C23           -7.3783    -0.6469     7.3741 C.2     
  24 N24           -6.9636    -0.2456     6.1995 N.2     
  25 C25            1.7734     2.3458    -1.2034 C.ar    
  26 C26            3.6015     3.3383    -0.0147 C.ar    
  27 C27            3.0064     3.0047     1.1878 C.ar    
  28 C28            1.7940     2.3382     1.1995 C.ar    
  29 C29            2.9851     3.0118    -1.2085 C.ar    
  30 Cl30           1.0011     1.9361    -2.7032 Cl      
  31 F31            1.2124     2.0127     2.3746 F       
  32 H32            2.1922    -2.4478    -0.0316 H       
  33 H33            0.1444    -3.8194    -0.0197 H       
  34 H34           -2.7803    -3.1882    -0.8817 H       
  35 H35           -2.7631    -3.1978     0.9055 H       
  36 H36           -5.2356    -0.4773    -0.4637 H       
  37 H37           -5.2603    -2.2570    -0.4731 H       
  38 H38           -5.3869     0.7568     1.6190 H       
  39 H39           -6.1837     0.7607     3.9476 H       
  40 H40           -6.2439    -3.5144     3.9249 H       
  41 H41           -5.4558    -3.5080     1.5933 H       
  42 H42           -6.9002    -3.4991     5.8403 H       
  43 H43           -7.6946    -2.6753     8.2033 H       
  44 H44           -7.6513    -0.0082     8.2012 H       
  45 H45            4.5477     3.8589    -0.0215 H       
  46 H46            3.4903     3.2610     2.1187 H       
  47 H47            3.4507     3.2772    -2.1461 H       
@<TRIPOS>BOND
   1    1    2 1
   2    1   13 1
   3    2    3 ar
   4    2    7 ar
   5    3    4 ar
   6    4    5 ar
   7    4   32 1
   8    5    6 ar
   9    5   33 1
  10    6    8 1
  11    6    7 ar
  12    7   10 1
  13    8    9 1
  14    8   34 1
  15    8   35 1
  16    9   10 am
  17    9   11 1
  18   10   12 2
  19   11   14 1
  20   11   36 1
  21   11   37 1
  22   13   25 ar
  23   13   28 ar
  24   14   15 ar
  25   14   19 ar
  26   15   16 ar
  27   15   38 1
  28   16   17 ar
  29   16   39 1
  30   17   18 ar
  31   17   20 1
  32   18   19 ar
  33   18   40 1
  34   19   41 1
  35   20   21 1
  36   20   24 1
  37   21   22 2
  38   21   42 1
  39   22   23 1
  40   22   43 1
  41   23   24 2
  42   23   44 1
  43   25   29 ar
  44   25   30 1
  45   26   27 ar
  46   26   29 ar
  47   26   45 1
  48   27   28 ar
  49   27   46 1
  50   28   31 1
  51   29   47 1

#	End of record

