#	Name: ASD03092160
#	Creating user name:	WinNT
#	Creation time:	15. 06. 2019 20:32

#	Modifying user name:	WinNT
#	Modification time:	15. 06. 2019 20:32

#	Program:	/corina/corina34_cracker 3.40 0067  02.08.2006

@<TRIPOS>MOLECULE
ASD03092160
  50   52    0    0    0
SMALL
NO_CHARGES


@<TRIPOS>ATOM
   1 N1            -0.0739     1.4961    -0.1268 N.pl3   
   2 C2            -0.2745     0.2021     0.2529 C.2     
   3 C3            -1.6229     0.0101     0.3556 C.2     
   4 C4            -2.2533     1.2177     0.0301 C.2     
   5 N5            -1.3284     2.1059    -0.2528 N.2     
   6 N6            -3.6352     1.4412     0.0139 N.pl3   
   7 C7            -4.1342     2.7202    -0.2601 C.ar    
   8 C8            -5.4938     2.9795    -0.1303 C.ar    
   9 C9            -5.9839     4.2457    -0.4017 C.ar    
  10 C10           -5.1187     5.2525    -0.8022 C.ar    
  11 C11           -3.2710     3.7330    -0.6563 C.ar    
  12 C12            0.7755    -0.8086     0.5065 C.ar    
  13 C13            1.2236     2.1365    -0.3561 C.3     
  14 C14            2.0569    -0.6663    -0.0373 C.ar    
  15 C15            3.0057    -1.6327     0.2247 C.ar    
  16 N16            2.7178    -2.6788     0.9754 N.ar    
  17 C17            1.5225    -2.8514     1.5073 C.ar    
  18 C18            0.5164    -1.9309     1.3019 C.ar    
  19 C19           -3.7650     4.9938    -0.9312 C.ar    
  20 F20           -7.3048     4.5000    -0.2768 F       
  21 C21            1.5548     2.0975    -1.8493 C.3     
  22 C22            1.2550    -4.0679     2.3556 C.3     
  23 O23           -0.0968    -4.0383     2.8180 O.3     
  24 O24            0.5716     2.8383    -2.5749 O.3     
  25 C25           -0.4557    -5.1535     3.6362 C.3     
  26 C26            2.9344     2.7168    -2.0821 C.3     
  27 C27            3.3193     2.5657    -3.5551 C.3     
  28 F28           -6.3357     1.9974     0.2595 F       
  29 F29           -5.5977     6.4876    -1.0672 F       
  30 H30           -2.1151    -0.9090     0.6373 H       
  31 H31           -4.2469     0.7100     0.1926 H       
  32 H32           -2.2139     3.5343    -0.7533 H       
  33 H33            1.1817     3.1727    -0.0202 H       
  34 H34            1.9948     1.6048     0.2012 H       
  35 H35            2.2993     0.1871    -0.6532 H       
  36 H36            3.9976    -1.5318    -0.1905 H       
  37 H37           -0.4595    -2.0785     1.7403 H       
  38 H38           -3.0933     5.7797    -1.2437 H       
  39 H39            1.5579     1.0634    -2.1939 H       
  40 H40            1.4163    -4.9675     1.7617 H       
  41 H41            1.9314    -4.0706     3.2103 H       
  42 H42            0.5131     3.7692    -2.3198 H       
  43 H43           -0.3300    -6.0757     3.0689 H       
  44 H44            0.1852    -5.1788     4.5175 H       
  45 H45           -1.4962    -5.0567     3.9463 H       
  46 H46            2.9066     3.7745    -1.8204 H       
  47 H47            3.6707     2.2078    -1.4601 H       
  48 H48            3.3470     1.5079    -3.8168 H       
  49 H49            2.5829     3.0746    -4.1771 H       
  50 H50            4.3021     3.0069    -3.7210 H       
@<TRIPOS>BOND
   1    1    2 1
   2    1   13 1
   3    1    5 1
   4    2    3 2
   5    2   12 1
   6    3    4 1
   7    3   30 1
   8    4    5 2
   9    4    6 1
  10    6    7 1
  11    6   31 1
  12    7    8 ar
  13    7   11 ar
  14    8    9 ar
  15    8   28 1
  16    9   10 ar
  17    9   20 1
  18   10   19 ar
  19   10   29 1
  20   11   19 ar
  21   11   32 1
  22   12   14 ar
  23   12   18 ar
  24   13   21 1
  25   13   33 1
  26   13   34 1
  27   14   15 ar
  28   14   35 1
  29   15   16 ar
  30   15   36 1
  31   16   17 ar
  32   17   18 ar
  33   17   22 1
  34   18   37 1
  35   19   38 1
  36   21   24 1
  37   21   26 1
  38   21   39 1
  39   22   23 1
  40   22   40 1
  41   22   41 1
  42   23   25 1
  43   24   42 1
  44   25   43 1
  45   25   44 1
  46   25   45 1
  47   26   27 1
  48   26   46 1
  49   26   47 1
  50   27   48 1
  51   27   49 1
  52   27   50 1

#	End of record

