#	Name: ASD03331538
#	Creating user name:	WinNT
#	Creation time:	15. 06. 2019 20:39

#	Modifying user name:	WinNT
#	Modification time:	15. 06. 2019 20:39

#	Program:	/corina/corina34_cracker 3.40 0067  02.08.2006

@<TRIPOS>MOLECULE
ASD03331538
  61   63    0    0    0
SMALL
NO_CHARGES


@<TRIPOS>ATOM
   1 C1            -0.1514     0.4819     1.4255 C.3     
   2 C2             0.0658    -0.9998     1.5940 C.ar    
   3 C3             0.3760    -1.5155     2.8386 C.ar    
   4 C4             1.1598     1.1474     1.0955 C.2     
   5 N5             1.6514     1.3446    -0.1549 N.pl3   
   6 C6             2.8513     1.9580    -0.0301 C.2     
   7 C7             3.0716     2.1431     1.2999 C.2     
   8 N8             2.0019     1.6315     1.9633 N.2     
   9 C9             0.9984     0.9735    -1.4140 C.3     
  10 C10            2.0616     0.7202    -2.4849 C.3     
  11 C11            2.3811     2.0228    -3.2173 C.3     
  12 C12            2.9438     3.0554    -2.2455 C.3     
  13 C13            3.7635     2.3444    -1.1641 C.3     
  14 C14            4.2501     2.7849     1.9080 C.2     
  15 O15            5.1441     3.2092     1.2010 O.2     
  16 N16            4.3374     2.9017     3.2479 N.am    
  17 C17            5.5093     3.5399     3.8526 C.3     
  18 C18            5.6882     3.0310     5.2598 C.2     
  19 C19            4.0020     5.3831     4.6096 C.3     
  20 N20            6.9175     2.9919     5.8110 N.am    
  21 O21            4.7260     2.6567     5.8962 O.2     
  22 C22            5.3068     5.0562     3.8805 C.3     
  23 C23            6.4785     5.7138     4.6123 C.3     
  24 C24            5.2373     5.5879     2.4476 C.3     
  25 C25            7.0791     2.6018     7.2139 C.3     
  26 C26           -0.0509    -1.8435     0.5052 C.ar    
  27 C27            0.1477    -3.2026     0.6592 C.ar    
  28 C28            0.4638    -3.7186     1.9034 C.ar    
  29 C29            0.5753    -2.8743     2.9938 C.ar    
  30 Cl30           0.7129    -5.4256     2.0978 Cl      
  31 H31           -0.8607     0.6554     0.6162 H       
  32 H32           -0.5476     0.8987     2.3514 H       
  33 H33            0.4630    -0.8564     3.6897 H       
  34 H34            0.4100     0.0681    -1.2649 H       
  35 H35            0.3438     1.7832    -1.7362 H       
  36 H36            2.9670     0.3384    -2.0132 H       
  37 H37            1.6889    -0.0145    -3.1986 H       
  38 H38            3.1147     1.8261    -3.9991 H       
  39 H39            1.4706     2.4137    -3.6714 H       
  40 H40            3.5833     3.7529    -2.7865 H       
  41 H41            2.1232     3.6010    -1.7796 H       
  42 H42            4.5398     3.0149    -0.7953 H       
  43 H43            4.2224     1.4494    -1.5840 H       
  44 H44            3.6244     2.5633     3.8117 H       
  45 H45            6.3961     3.3025     3.2649 H       
  46 H46            4.0515     5.0043     5.6305 H       
  47 H47            3.8577     6.4633     4.6295 H       
  48 H48            3.1672     4.9146     4.0883 H       
  49 H49            7.6952     3.2220     5.2789 H       
  50 H50            7.4018     5.5223     4.0656 H       
  51 H51            6.3100     6.7889     4.6756 H       
  52 H52            6.5583     5.2988     5.6170 H       
  53 H53            4.4026     5.1194     1.9262 H       
  54 H54            5.0930     6.6681     2.4675 H       
  55 H55            6.1669     5.3550     1.9282 H       
  56 H56            6.5274     3.2945     7.8494 H       
  57 H57            6.6941     1.5922     7.3569 H       
  58 H58            8.1360     2.6286     7.4790 H       
  59 H59           -0.2976    -1.4406    -0.4660 H       
  60 H60            0.0559    -3.8617    -0.1914 H       
  61 H61            0.8224    -3.2765     3.9652 H       
@<TRIPOS>BOND
   1    1    2 1
   2    1    4 1
   3    1   31 1
   4    1   32 1
   5    2    3 ar
   6    2   26 ar
   7    3   29 ar
   8    3   33 1
   9    4    5 1
  10    4    8 2
  11    5    6 1
  12    5    9 1
  13    6    7 2
  14    6   13 1
  15    7    8 1
  16    7   14 1
  17    9   10 1
  18    9   34 1
  19    9   35 1
  20   10   11 1
  21   10   36 1
  22   10   37 1
  23   11   12 1
  24   11   38 1
  25   11   39 1
  26   12   13 1
  27   12   40 1
  28   12   41 1
  29   13   42 1
  30   13   43 1
  31   14   15 2
  32   14   16 am
  33   16   17 1
  34   16   44 1
  35   17   22 1
  36   17   18 1
  37   17   45 1
  38   18   20 am
  39   18   21 2
  40   19   22 1
  41   19   46 1
  42   19   47 1
  43   19   48 1
  44   20   25 1
  45   20   49 1
  46   22   23 1
  47   22   24 1
  48   23   50 1
  49   23   51 1
  50   23   52 1
  51   24   53 1
  52   24   54 1
  53   24   55 1
  54   25   56 1
  55   25   57 1
  56   25   58 1
  57   26   27 ar
  58   26   59 1
  59   27   28 ar
  60   27   60 1
  61   28   29 ar
  62   28   30 1
  63   29   61 1

#	End of record

