#	Name: ASD03092276
#	Creating user name:	WinNT
#	Creation time:	15. 06. 2019 20:32

#	Modifying user name:	WinNT
#	Modification time:	15. 06. 2019 20:32

#	Program:	/corina/corina34_cracker 3.40 0067  02.08.2006

@<TRIPOS>MOLECULE
ASD03092276
  53   56    0    0    0
SMALL
NO_CHARGES


@<TRIPOS>ATOM
   1 C1            -0.0710     0.7184     0.6966 C.3     
   2 C2            -0.1192    -0.7610     0.4136 C.ar    
   3 C3             0.0348    -1.2113    -0.8808 C.ar    
   4 C4            -0.0120    -2.5876    -1.1305 C.ar    
   5 C5            -0.2144    -3.4489    -0.0463 C.ar    
   6 C6            -0.3588    -2.9124     1.2161 C.ar    
   7 C7            -0.5773    -3.8285     2.3925 C.3     
   8 N8            -0.3028    -1.6082     1.4085 N.ar    
   9 C9             0.1477    -3.1171    -2.5025 C.2     
  10 C10           -0.0648    -2.4301    -3.6638 C.2     
  11 C11            0.1994    -3.2993    -4.7298 C.2     
  12 N12            0.0999    -2.9809    -6.0896 N.pl3   
  13 C13            0.2760    -3.9765    -7.0554 C.ar    
  14 C14           -0.0993    -5.2852    -6.7811 C.ar    
  15 C15            0.0755    -6.2692    -7.7376 C.ar    
  16 F16           -0.2898    -7.5423    -7.4712 F       
  17 C17            0.6250    -5.9495    -8.9694 C.ar    
  18 F18            0.7952    -6.9115    -9.9026 F       
  19 C19            0.9996    -4.6436    -9.2448 C.ar    
  20 F20            1.5342    -4.3336   -10.4462 F       
  21 C21            0.8211    -3.6566    -8.2921 C.ar    
  22 N22            0.5567    -4.4632    -4.2380 N.2     
  23 N23            0.5395    -4.3786    -2.8400 N.pl3   
  24 C24            0.8792    -5.4551    -1.9063 C.3     
  25 C25           -0.3454    -6.2909    -1.6363 C.2     
  26 O26           -1.3982    -6.0145    -2.1711 O.2     
  27 N27           -0.2706    -7.3455    -0.8005 N.am    
  28 C28           -1.4611    -8.1580    -0.5380 C.3     
  29 C29           -1.4196    -9.5443    -1.2024 C.3     
  30 C30           -0.7281   -10.0490     0.0751 C.3     
  31 C31           -1.4208    -8.8913     0.8132 C.3     
  32 H32            0.9574     1.0157     0.9019 H       
  33 H33           -0.4415     1.2663    -0.1698 H       
  34 H34           -0.6939     0.9433     1.5623 H       
  35 H35            0.1888    -0.5124    -1.6897 H       
  36 H36           -0.2573    -4.5177    -0.1958 H       
  37 H37            0.3860    -4.1097     2.8180 H       
  38 H38           -1.1720    -3.3146     3.1477 H       
  39 H39           -1.1041    -4.7240     2.0627 H       
  40 H40           -0.3807    -1.4006    -3.7455 H       
  41 H41           -0.0913    -2.0697    -6.3616 H       
  42 H42           -0.5271    -5.5347    -5.8213 H       
  43 H43            1.1089    -2.6384    -8.5085 H       
  44 H44            1.6578    -6.0815    -2.3417 H       
  45 H45            1.2391    -5.0253    -0.9715 H       
  46 H46            0.5714    -7.5666    -0.3727 H       
  47 H47           -2.3904    -7.6161    -0.7131 H       
  48 H48           -2.4053    -9.9795    -1.3664 H       
  49 H49           -0.7850    -9.5853    -2.0877 H       
  50 H50           -1.0663   -11.0348     0.3943 H       
  51 H51            0.3580    -9.9615     0.0474 H       
  52 H52           -0.7872    -8.4052     1.5550 H       
  53 H53           -2.4069    -9.1480     1.2002 H       
@<TRIPOS>BOND
   1    1    2 1
   2    1   32 1
   3    1   33 1
   4    1   34 1
   5    2    8 ar
   6    2    3 ar
   7    3    4 ar
   8    3   35 1
   9    4    5 ar
  10    4    9 1
  11    5    6 ar
  12    5   36 1
  13    6    7 1
  14    6    8 ar
  15    7   37 1
  16    7   38 1
  17    7   39 1
  18    9   23 1
  19    9   10 2
  20   10   11 1
  21   10   40 1
  22   11   12 1
  23   11   22 2
  24   12   13 1
  25   12   41 1
  26   13   21 ar
  27   13   14 ar
  28   14   15 ar
  29   14   42 1
  30   15   16 1
  31   15   17 ar
  32   17   18 1
  33   17   19 ar
  34   19   20 1
  35   19   21 ar
  36   21   43 1
  37   22   23 1
  38   23   24 1
  39   24   25 1
  40   24   44 1
  41   24   45 1
  42   25   26 2
  43   25   27 am
  44   27   28 1
  45   27   46 1
  46   28   31 1
  47   28   29 1
  48   28   47 1
  49   29   30 1
  50   29   48 1
  51   29   49 1
  52   30   31 1
  53   30   50 1
  54   30   51 1
  55   31   52 1
  56   31   53 1

#	End of record

