#	Name: ASD05380305
#	Creating user name:	WinNT
#	Creation time:	15. 06. 2019 20:59

#	Modifying user name:	WinNT
#	Modification time:	15. 06. 2019 20:59

#	Program:	/corina/corina34_cracker 3.40 0067  02.08.2006

@<TRIPOS>MOLECULE
ASD05380305
  27   28    0    0    0
SMALL
NO_CHARGES


@<TRIPOS>ATOM
   1 C1            -0.0167     1.3781     0.0096 C.ar    
   2 C2             0.0021    -0.0041     0.0020 C.ar    
   3 C3             1.1709     2.0855     0.0021 C.ar    
   4 C4             2.3773     1.4107    -0.0131 C.ar    
   5 C5             2.3960     0.0285    -0.0203 C.ar    
   6 C6             1.2084    -0.6789    -0.0132 C.ar    
   7 C7            -1.3319     2.1138     0.0199 C.3     
   8 O8            -1.2188     3.3516     0.7801 O.3     
   9 C9            -1.7003     2.5814    -1.4014 C.3     
  10 N10           -1.7551     4.0467    -1.2849 N.am    
  11 C11           -1.4706     4.3922    -0.0218 C.2     
  12 O12           -1.4447     5.5454     0.3603 O.2     
  13 C13           -0.6215     2.1617    -2.4018 C.3     
  14 C14           -1.0697     2.5271    -3.8184 C.3     
  15 H15           -0.9258    -0.5567     0.0083 H       
  16 H16            1.1563     3.1654     0.0077 H       
  17 H17            3.3051     1.9634    -0.0197 H       
  18 H18            3.3385    -0.4987    -0.0329 H       
  19 H19            1.2231    -1.7588    -0.0184 H       
  20 H20           -2.1186     1.4823     0.4326 H       
  21 H21           -2.6719     2.1841    -1.6953 H       
  22 H22           -1.9629     4.6624    -2.0051 H       
  23 H23            0.3096     2.6791    -2.1705 H       
  24 H24           -0.4647     1.0850    -2.3367 H       
  25 H25           -2.0007     2.0097    -4.0497 H       
  26 H26           -1.2265     3.6038    -3.8835 H       
  27 H27           -0.3011     2.2281    -4.5311 H       
@<TRIPOS>BOND
   1    1    2 ar
   2    1    3 ar
   3    1    7 1
   4    2    6 ar
   5    2   15 1
   6    3    4 ar
   7    3   16 1
   8    4    5 ar
   9    4   17 1
  10    5    6 ar
  11    5   18 1
  12    6   19 1
  13    7    8 1
  14    7    9 1
  15    7   20 1
  16    8   11 1
  17    9   10 1
  18    9   13 1
  19    9   21 1
  20   10   11 am
  21   10   22 1
  22   11   12 2
  23   13   14 1
  24   13   23 1
  25   13   24 1
  26   14   25 1
  27   14   26 1
  28   14   27 1

#	End of record

