#	Name: ASD05143103
#	Creating user name:	WinNT
#	Creation time:	15. 06. 2019 20:57

#	Modifying user name:	WinNT
#	Modification time:	15. 06. 2019 20:57

#	Program:	/corina/corina34_cracker 3.40 0067  02.08.2006

@<TRIPOS>MOLECULE
ASD05143103
 148  151    0    0    0
SMALL
NO_CHARGES


@<TRIPOS>ATOM
   1 C1             0.3727     0.7122    -2.9927 C.2     
   2 C2             0.5212    -0.7133    -3.4586 C.3     
   3 N3             1.4673     1.4486    -2.7171 N.am    
   4 O4            -0.7317     1.1983    -2.8706 O.2     
   5 C5             1.3230     2.8343    -2.2642 C.3     
   6 C6             0.5907     3.6468    -3.3340 C.3     
   7 C7             0.5319     2.8639    -0.9818 C.2     
   8 C8             1.4519     3.7212    -4.5964 C.3     
   9 C9             0.7195     4.5337    -5.6662 C.3     
  10 N10            1.5442     4.6050    -6.8750 N.pl3   
  11 C11            1.0897     5.2886    -7.9779 C.2     
  12 N12            1.8636     5.3554    -9.1123 N.pl3   
  13 N13           -0.0748     5.8733    -7.9480 N.2     
  14 O14           -0.1708     1.9223    -0.6810 O.2     
  15 N15            0.6054     3.9367    -0.1693 N.am    
  16 C16           -0.1636     3.9654     1.0773 C.3     
  17 C17            0.5157     4.9069     2.0738 C.3     
  18 C18            1.7937     4.2530     2.6030 C.3     
  19 C19            2.8899     5.3117     2.7387 C.3     
  20 N20            2.9781     5.7224     4.1587 N.am    
  21 C21            3.2770     7.0388     4.3695 C.2     
  22 C22            3.4838     7.9349     3.1757 C.3     
  23 C23            4.4571     9.0568     3.5426 C.3     
  24 C24            3.6919    10.1934     4.2234 C.3     
  25 N25            3.3079    11.1888     3.2028 N.am    
  26 C26            4.5720    10.8455     5.2585 C.2     
  27 N27            4.7276    10.2724     6.4684 N.am    
  28 O28            5.1402    11.8860     5.0028 O.2     
  29 C29            2.2838    12.0262     3.5241 C.2     
  30 O30            1.7315    11.9372     4.6001 O.2     
  31 C31            1.8462    13.0658     2.5245 C.3     
  32 N32            0.3662    13.0880     2.4827 N.am    
  33 C33            2.3687    14.4394     2.9500 C.3     
  34 C34           -0.1895    12.7771     1.2741 C.2     
  35 O35            0.5127    12.5077     0.3226 O.2     
  36 C36           -1.6909    12.7744     1.1447 C.3     
  37 N37           -2.0819    11.7501     0.1557 N.am    
  38 C38           -2.3217    12.4463     2.4995 C.3     
  39 C39           -3.1526    10.9728     0.4754 C.2     
  40 O40           -3.7432    11.1404     1.5214 O.2     
  41 C41           -3.5947     9.9014    -0.4880 C.3     
  42 C42            2.0352    15.4549     1.8876 C.2     
  43 C43            0.7765    16.1917     1.7510 C.ar    
  44 C44            0.9299    17.0172     0.6224 C.ar    
  45 N45            2.1917    16.7891     0.1208 N.pl3   
  46 C46            2.8373    15.8600     0.8904 C.2     
  47 C47           -0.4193    16.2119     2.4716 C.ar    
  48 C48           -1.4357    17.0348     2.0761 C.ar    
  49 C49           -1.2894    17.8512     0.9627 C.ar    
  50 C50           -0.1180    17.8476     0.2379 C.ar    
  51 N51           -3.6637     8.6131     0.2390 N.am    
  52 C52           -2.5857     9.7918    -1.6330 C.3     
  53 C53           -1.1906     9.7190    -1.0678 C.ar    
  54 C54           -0.7329     8.5367    -0.5137 C.ar    
  55 C55            0.5432     8.4630     0.0050 C.ar    
  56 C56            1.3735     9.5850    -0.0301 C.ar    
  57 C57            0.9052    10.7750    -0.5908 C.ar    
  58 C58           -0.3713    10.8332    -1.1106 C.ar    
  59 C59           -1.5604     4.4552     0.7946 C.2     
  60 O60           -2.4954     3.6828     0.8002 O.2     
  61 C61           -1.8904    11.0450     2.9368 C.3     
  62 C62           -2.4236    10.7629     4.3429 C.3     
  63 N63           -2.0106     9.4212     4.7617 N.pl3   
  64 C64           -2.3756     8.9443     5.9985 C.2     
  65 N65           -3.1281     9.7266     6.8422 N.pl3   
  66 N66           -2.0082     7.7505     6.3711 N.2     
  67 N67           -1.7586     5.7763     0.5333 N.am    
  68 C68           -3.1480     6.1940     0.2584 C.3     
  69 C69           -3.1261     7.5415    -0.4162 C.2     
  70 O70           -2.6404     7.6722    -1.5198 O.2     
  71 C71           -3.9238     6.2916     1.5735 C.3     
  72 C72           -5.4066     6.5220     1.2751 C.3     
  73 C73           -6.1882     6.4960     2.5632 C.2     
  74 C74            2.6992     9.5158     0.5069 C.1     
  75 N75            3.7509     9.4610     0.9329 N.1     
  76 N76           -7.5236     6.6779     2.5450 N.am    
  77 O77           -5.6157     6.3115     3.6164 O.2     
  78 O78            3.3745     7.4777     5.4959 O.2     
  79 H79            0.5279    -1.3788    -2.5954 H       
  80 H80           -0.3138    -0.9715    -4.1100 H       
  81 H81            1.4568    -0.8205    -4.0073 H       
  82 H82            2.3507     1.0611    -2.8186 H       
  83 H83            2.3094     3.2651    -2.0926 H       
  84 H84           -0.3585     3.1655    -3.5695 H       
  85 H85            0.4046     4.6541    -2.9612 H       
  86 H86            2.4010     4.2026    -4.3609 H       
  87 H87            1.6379     2.7140    -4.9692 H       
  88 H88           -0.2296     4.0524    -5.9017 H       
  89 H89            0.5335     5.5410    -5.2935 H       
  90 H90            2.4108     4.1698    -6.8972 H       
  91 H91            2.7302     4.9203    -9.1345 H       
  92 H92            1.5429     5.8377    -9.8904 H       
  93 H93           -0.3955     6.3556    -8.7261 H       
  94 H94            1.1674     4.6898    -0.4100 H       
  95 H95           -0.2092     2.9614     1.4992 H       
  96 H96            0.7661     5.8437     1.5760 H       
  97 H97           -0.1612     5.1065     2.9045 H       
  98 H98            1.5968     3.8069     3.5779 H       
  99 H99            2.1202     3.4789     1.9086 H       
 100 H100           3.8442     4.8932     2.4190 H       
 101 H101           2.6419     6.1760     2.1227 H       
 102 H102           2.8334     5.1000     4.8885 H       
 103 H103           3.8950     7.3525     2.3511 H       
 104 H104           2.5289     8.3661     2.8753 H       
 105 H105           5.2162     8.6712     4.2232 H       
 106 H106           4.9366     9.4321     2.6385 H       
 107 H107           2.7963     9.7960     4.7010 H       
 108 H108           3.7621    11.2435     2.3474 H       
 109 H109           4.2731     9.4402     6.6729 H       
 110 H110           5.2940    10.6921     7.1346 H       
 111 H111           2.2363    12.8125     1.5387 H       
 112 H112          -0.1714    13.3084     3.2595 H       
 113 H113           1.9010    14.7306     3.8906 H       
 114 H114           3.4497    14.3923     3.0811 H       
 115 H115          -2.0304    13.7544     0.8093 H       
 116 H116          -1.6008    11.6371    -0.6790 H       
 117 H117          -1.9924    13.1754     3.2397 H       
 118 H118          -3.4077    12.4817     2.4127 H       
 119 H119          -4.5785    10.1503    -0.8860 H       
 120 H120           2.5683    17.2248    -0.6598 H       
 121 H121           3.8407    15.5003     0.7168 H       
 122 H122          -0.5405    15.5791     3.3383 H       
 123 H123          -2.3604    17.0501     2.6338 H       
 124 H124          -2.1019    18.4960     0.6622 H       
 125 H125          -0.0138    18.4866    -0.6265 H       
 126 H126          -4.0628     8.5354     1.1197 H       
 127 H127          -2.7903     8.8917    -2.2127 H       
 128 H128          -2.6714    10.6665    -2.2777 H       
 129 H129          -1.3764     7.6697    -0.4869 H       
 130 H130           0.8990     7.5396     0.4376 H       
 131 H131           1.5421    11.6466    -0.6208 H       
 132 H132          -0.7348    11.7529    -1.5446 H       
 133 H133          -2.2917    10.3078     2.2414 H       
 134 H134          -0.8021    10.9849     2.9421 H       
 135 H135          -2.0223    11.5002     5.0383 H       
 136 H136          -3.5119    10.8230     4.3377 H       
 137 H137          -1.4797     8.8692     4.1664 H       
 138 H138          -3.4015    10.6150     6.5650 H       
 139 H139          -3.3856     9.3902     7.7148 H       
 140 H140          -2.2656     7.4141     7.2437 H       
 141 H141          -1.0250     6.4108     0.5282 H       
 142 H142          -3.6257     5.4654    -0.3965 H       
 143 H143          -3.8058     5.3646     2.1346 H       
 144 H144          -3.5380     7.1241     2.1620 H       
 145 H145          -5.5338     7.4909     0.7923 H       
 146 H146          -5.7704     5.7359     0.6134 H       
 147 H147          -7.9815     6.8255     1.7028 H       
 148 H148          -8.0267     6.6612     3.3742 H       
@<TRIPOS>BOND
   1    1    2 1
   2    1    3 am
   3    1    4 2
   4    2   79 1
   5    2   80 1
   6    2   81 1
   7    3    5 1
   8    3   82 1
   9    5    6 1
  10    5    7 1
  11    5   83 1
  12    6    8 1
  13    6   84 1
  14    6   85 1
  15    7   14 2
  16    7   15 am
  17    8    9 1
  18    8   86 1
  19    8   87 1
  20    9   10 1
  21    9   88 1
  22    9   89 1
  23   10   11 1
  24   10   90 1
  25   11   12 1
  26   11   13 2
  27   12   91 1
  28   12   92 1
  29   13   93 1
  30   15   16 1
  31   15   94 1
  32   16   17 1
  33   16   59 1
  34   16   95 1
  35   17   18 1
  36   17   96 1
  37   17   97 1
  38   18   19 1
  39   18   98 1
  40   18   99 1
  41   19   20 1
  42   19  100 1
  43   19  101 1
  44   20   21 am
  45   20  102 1
  46   21   22 1
  47   21   78 2
  48   22   23 1
  49   22  103 1
  50   22  104 1
  51   23   24 1
  52   23  105 1
  53   23  106 1
  54   24   25 1
  55   24   26 1
  56   24  107 1
  57   25   29 am
  58   25  108 1
  59   26   27 am
  60   26   28 2
  61   27  109 1
  62   27  110 1
  63   29   30 2
  64   29   31 1
  65   31   32 1
  66   31   33 1
  67   31  111 1
  68   32   34 am
  69   32  112 1
  70   33   42 1
  71   33  113 1
  72   33  114 1
  73   34   35 2
  74   34   36 1
  75   36   37 1
  76   36   38 1
  77   36  115 1
  78   37   39 am
  79   37  116 1
  80   38   61 1
  81   38  117 1
  82   38  118 1
  83   39   40 2
  84   39   41 1
  85   41   51 1
  86   41   52 1
  87   41  119 1
  88   42   43 1
  89   42   46 2
  90   43   44 ar
  91   43   47 ar
  92   44   45 1
  93   44   50 ar
  94   45   46 1
  95   45  120 1
  96   46  121 1
  97   47   48 ar
  98   47  122 1
  99   48   49 ar
 100   48  123 1
 101   49   50 ar
 102   49  124 1
 103   50  125 1
 104   51   69 am
 105   51  126 1
 106   52   53 1
 107   52  127 1
 108   52  128 1
 109   53   54 ar
 110   53   58 ar
 111   54   55 ar
 112   54  129 1
 113   55   56 ar
 114   55  130 1
 115   56   57 ar
 116   56   74 1
 117   57   58 ar
 118   57  131 1
 119   58  132 1
 120   59   60 2
 121   59   67 am
 122   61   62 1
 123   61  133 1
 124   61  134 1
 125   62   63 1
 126   62  135 1
 127   62  136 1
 128   63   64 1
 129   63  137 1
 130   64   65 1
 131   64   66 2
 132   65  138 1
 133   65  139 1
 134   66  140 1
 135   67   68 1
 136   67  141 1
 137   68   69 1
 138   68   71 1
 139   68  142 1
 140   69   70 2
 141   71   72 1
 142   71  143 1
 143   71  144 1
 144   72   73 1
 145   72  145 1
 146   72  146 1
 147   73   76 am
 148   73   77 2
 149   74   75 3
 150   76  147 1
 151   76  148 1

#	End of record

