#	Name: ASD03540285
#	Creating user name:	WinNT
#	Creation time:	15. 06. 2019 20:42

#	Modifying user name:	WinNT
#	Modification time:	15. 06. 2019 20:42

#	Program:	/corina/corina34_cracker 3.40 0067  02.08.2006

@<TRIPOS>MOLECULE
ASD03540285
  57   60    0    0    0
SMALL
NO_CHARGES


@<TRIPOS>ATOM
   1 C1            -0.0161     1.3365     0.0094 C.2     
   2 N2             0.0021    -0.0041     0.0020 N.am    
   3 C3             1.1934    -0.7075    -0.0132 C.2     
   4 C4             2.3927    -0.0052    -0.0209 C.2     
   5 C5             2.3194     1.4731    -0.0123 C.2     
   6 N6             1.1112     2.0659     0.0025 N.am    
   7 C7             3.5132    -0.8389    -0.0357 C.2     
   8 C8             3.2261    -2.1513    -0.0396 C.2     
   9 S9             1.4880    -2.3901    -0.0245 S.3     
  10 C10            4.2202    -3.2270    -0.0552 C.2     
  11 O11            5.4074    -2.9586    -0.0657 O.2     
  12 N12            3.8203    -4.5141    -0.0579 N.am    
  13 C13            4.8145    -5.5900    -0.0735 C.3     
  14 C14            4.1120    -6.9232    -0.0734 C.ar    
  15 C15            3.7782    -7.5277    -1.2701 C.ar    
  16 C16            3.1316    -8.7548    -1.2694 C.ar    
  17 C17            2.8215    -9.3723    -0.0661 C.ar    
  18 C18            3.1574    -8.7639     1.1276 C.ar    
  19 C19            3.8071    -7.5431     1.1241 C.ar    
  20 O20            2.8018    -9.3511    -2.4452 O.3     
  21 C21            2.1374   -10.6139    -2.3682 C.3     
  22 C22            1.0247     3.5284     0.0113 C.3     
  23 C23            1.0084     4.0297     1.4567 C.3     
  24 C24            0.9195     5.5340     1.4657 C.2     
  25 C25            0.8882     6.2617     2.7445 C.ar    
  26 C26            0.8057     7.6577     2.7570 C.ar    
  27 C27            0.7765     8.3322     3.9593 C.ar    
  28 C28            0.8285     7.6313     5.1516 C.ar    
  29 C29            0.9107     6.2497     5.1476 C.ar    
  30 C30            0.9351     5.5604     3.9536 C.ar    
  31 O31            0.8736     6.1449     0.4193 O.2     
  32 O32            3.3359     2.1421    -0.0183 O.2     
  33 O33           -1.0880     1.9102     0.0175 O.2     
  34 C34           -1.2652    -0.7390     0.0107 C.3     
  35 H35            4.5248    -0.4605    -0.0436 H       
  36 H36            2.8742    -4.7281    -0.0495 H       
  37 H37            5.4295    -5.5035    -0.9692 H       
  38 H38            5.4474    -5.5127     0.8106 H       
  39 H39            4.0202    -7.0449    -2.2054 H       
  40 H40            2.3178   -10.3276    -0.0628 H       
  41 H41            2.9160    -9.2439     2.0645 H       
  42 H42            4.0731    -7.0713     2.0584 H       
  43 H43            1.1993   -10.4985    -1.8252 H       
  44 H44            1.9320   -10.9784    -3.3747 H       
  45 H45            2.7739   -11.3282    -1.8460 H       
  46 H46            1.8867     3.9464    -0.5086 H       
  47 H47            0.1099     3.8413    -0.4921 H       
  48 H48            0.1464     3.6116     1.9766 H       
  49 H49            1.9232     3.7168     1.9601 H       
  50 H50            0.7654     8.2061     1.8275 H       
  51 H51            0.7131     9.4103     3.9707 H       
  52 H52            0.8052     8.1652     6.0901 H       
  53 H53            0.9516     5.7098     6.0821 H       
  54 H54            0.9943     4.4820     3.9521 H       
  55 H55           -2.0950    -0.0323     0.0228 H       
  56 H56           -1.3306    -1.3610    -0.8820 H       
  57 H57           -1.3129    -1.3705     0.8978 H       
@<TRIPOS>BOND
   1    1    2 am
   2    1    6 am
   3    1   33 2
   4    2    3 1
   5    2   34 1
   6    3    4 2
   7    3    9 1
   8    4    5 1
   9    4    7 1
  10    5    6 am
  11    5   32 2
  12    6   22 1
  13    7    8 2
  14    7   35 1
  15    8    9 1
  16    8   10 1
  17   10   11 2
  18   10   12 am
  19   12   13 1
  20   12   36 1
  21   13   14 1
  22   13   37 1
  23   13   38 1
  24   14   15 ar
  25   14   19 ar
  26   15   16 ar
  27   15   39 1
  28   16   17 ar
  29   16   20 1
  30   17   18 ar
  31   17   40 1
  32   18   19 ar
  33   18   41 1
  34   19   42 1
  35   20   21 1
  36   21   43 1
  37   21   44 1
  38   21   45 1
  39   22   23 1
  40   22   46 1
  41   22   47 1
  42   23   24 1
  43   23   48 1
  44   23   49 1
  45   24   25 1
  46   24   31 2
  47   25   26 ar
  48   25   30 ar
  49   26   27 ar
  50   26   50 1
  51   27   28 ar
  52   27   51 1
  53   28   29 ar
  54   28   52 1
  55   29   30 ar
  56   29   53 1
  57   30   54 1
  58   34   55 1
  59   34   56 1
  60   34   57 1

#	End of record

