#	Name: ASD03091345
#	Creating user name:	WinNT
#	Creation time:	15. 06. 2019 20:30

#	Modifying user name:	WinNT
#	Modification time:	15. 06. 2019 20:30

#	Program:	/corina/corina34_cracker 3.40 0067  02.08.2006

@<TRIPOS>MOLECULE
ASD03091345
  53   56    0    0    0
SMALL
NO_CHARGES


@<TRIPOS>ATOM
   1 C1            -0.0167     1.3801     0.0096 C.ar    
   2 C2             0.0021    -0.0041     0.0020 C.ar    
   3 C3             1.2122    -0.6742    -0.0131 C.ar    
   4 C4             2.4065     0.0271    -0.0208 C.ar    
   5 C5             2.4051     1.4077    -0.0130 C.ar    
   6 C6             1.1937     2.0914     0.0019 C.ar    
   7 O7            -1.1801     2.0755     0.0301 O.3     
   8 C8            -1.1853     3.3203     0.7291 C.3     
   9 N9            -0.0453     4.1473     0.3321 N.am    
  10 C10            1.1334     3.5675     0.0106 C.2     
  11 C11            1.2312    -2.1811    -0.0207 C.3     
  12 Cl12          -1.4875    -0.8956     0.0120 Cl      
  13 C13            3.7147    -0.7208    -0.0374 C.3     
  14 C14            4.0757    -1.0701    -1.4582 C.ar    
  15 C15            3.6502    -2.2612    -2.0159 C.ar    
  16 C16            4.8339    -0.1984    -2.2244 C.ar    
  17 C17            5.1421    -0.5614    -3.5268 C.ar    
  18 C18            4.6864    -1.7715    -4.0142 C.ar    
  19 N19            3.9625    -2.5738    -3.2582 N.ar    
  20 O20            2.1102     4.2384    -0.2617 O.2     
  21 C21           -0.1799     5.6054     0.2883 C.3     
  22 C22            0.6843     7.7624     1.2065 C.3     
  23 C23            0.8248     6.2395     1.2523 C.3     
  24 C24            0.0949     6.1005    -1.1331 C.3     
  25 C25           -0.0456     7.6233    -1.1789 C.3     
  26 C26            0.9591     8.2574    -0.2148 C.3     
  27 O27           -0.8434     5.5082    -2.0335 O.3     
  28 C28            5.0152    -2.1763    -5.4281 C.3     
  29 H29            3.3375     1.9528    -0.0184 H       
  30 H30           -2.1095     3.8531     0.5052 H       
  31 H31           -1.1334     3.1295     1.8010 H       
  32 H32            1.2257    -2.5393    -1.0501 H       
  33 H33            2.1306    -2.5357     0.4826 H       
  34 H34            0.3509    -2.5582     0.4999 H       
  35 H35            4.4966    -0.0949     0.3927 H       
  36 H36            3.6180    -1.6351     0.5481 H       
  37 H37            3.0553    -2.9437    -1.4271 H       
  38 H38            5.1762     0.7413    -1.8167 H       
  39 H39            5.7305     0.0934    -4.1523 H       
  40 H40           -1.1916     5.8859     0.5814 H       
  41 H41           -0.3274     8.0429     1.4997 H       
  42 H42            1.4000     8.2141     1.8934 H       
  43 H43            0.6290     5.8869     2.2649 H       
  44 H44            1.8365     5.9590     0.9591 H       
  45 H45            1.1066     5.8200    -1.4263 H       
  46 H46            0.1502     7.9760    -2.1915 H       
  47 H47           -1.0573     7.9038    -0.8857 H       
  48 H48            0.8590     9.3423    -0.2474 H       
  49 H49            1.9708     7.9769    -0.5080 H       
  50 H50           -0.7283     5.7778    -2.9550 H       
  51 H51            5.9537    -2.7306    -5.4384 H       
  52 H52            4.2169    -2.8061    -5.8207 H       
  53 H53            5.1130    -1.2849    -6.0478 H       
@<TRIPOS>BOND
   1    1    2 ar
   2    1    6 ar
   3    1    7 1
   4    2    3 ar
   5    2   12 1
   6    3    4 ar
   7    3   11 1
   8    4    5 ar
   9    4   13 1
  10    5    6 ar
  11    5   29 1
  12    6   10 1
  13    7    8 1
  14    8    9 1
  15    8   30 1
  16    8   31 1
  17    9   10 am
  18    9   21 1
  19   10   20 2
  20   11   32 1
  21   11   33 1
  22   11   34 1
  23   13   14 1
  24   13   35 1
  25   13   36 1
  26   14   16 ar
  27   14   15 ar
  28   15   19 ar
  29   15   37 1
  30   16   17 ar
  31   16   38 1
  32   17   18 ar
  33   17   39 1
  34   18   19 ar
  35   18   28 1
  36   21   23 1
  37   21   24 1
  38   21   40 1
  39   22   23 1
  40   22   26 1
  41   22   41 1
  42   22   42 1
  43   23   43 1
  44   23   44 1
  45   24   25 1
  46   24   27 1
  47   24   45 1
  48   25   26 1
  49   25   46 1
  50   25   47 1
  51   26   48 1
  52   26   49 1
  53   27   50 1
  54   28   51 1
  55   28   52 1
  56   28   53 1

#	End of record

