#	Name: ASD03740238
#	Creating user name:	WinNT
#	Creation time:	15. 06. 2019 20:46

#	Modifying user name:	WinNT
#	Modification time:	15. 06. 2019 20:46

#	Program:	/corina/corina34_cracker 3.40 0067  02.08.2006

@<TRIPOS>MOLECULE
ASD03740238
  57   58    0    0    0
SMALL
NO_CHARGES


@<TRIPOS>ATOM
   1 C1            -2.4080     0.7729     0.2832 C.2     
   2 C2            -1.3022    -0.0178     0.0839 C.2     
   3 C3            -0.1408     0.6788    -0.1565 C.2     
   4 S4            -0.4705     2.4055    -0.1273 S.3     
   5 C5            -2.1711     2.1151     0.2099 C.2     
   6 C6            -3.1612     3.1354     0.3817 C.1     
   7 C7            -3.9729     3.9718     0.5225 C.1     
   8 C8            -4.9906     5.0206     0.6990 C.3     
   9 C9            -4.3380     6.3957     0.5442 C.3     
  10 C10           -6.0842     4.8531    -0.3578 C.3     
  11 C11           -5.6074     4.9029     2.0942 C.3     
  12 N12           -1.3531    -1.4119     0.1225 N.am    
  13 C13           -1.4676    -2.1140    -1.0223 C.2     
  14 N14           -1.2869    -2.0649     1.3205 N.3     
  15 C15           -1.6236    -3.6122    -0.9749 C.3     
  16 O16           -1.4450    -1.5401    -2.0905 O.2     
  17 C17           -1.8968    -4.1413    -2.3843 C.3     
  18 C18           -2.0552    -5.6623    -2.3362 C.3     
  19 C19           -0.7700    -6.2921    -1.7953 C.3     
  20 C20           -0.4968    -5.7630    -0.3860 C.3     
  21 C21           -0.3384    -4.2419    -0.4340 C.3     
  22 C22           -0.9284    -7.8131    -1.7472 C.3     
  23 C23           -0.1505    -1.5862     2.1188 C.3     
  24 C24           -2.5466    -1.9298     2.0640 C.3     
  25 C25            1.1255     0.0951    -0.3913 C.2     
  26 O26            1.2239    -1.1103    -0.5291 O.2     
  27 O27            2.2253     0.8747    -0.4628 O.3     
  28 H28           -3.3885     0.3644     0.4782 H       
  29 H29           -3.8986     6.4795    -0.4498 H       
  30 H30           -5.0916     7.1723     0.6749 H       
  31 H31           -3.5590     6.5150     1.2971 H       
  32 H32           -6.5491     3.8734    -0.2475 H       
  33 H33           -6.8378     5.6297    -0.2271 H       
  34 H34           -5.6448     4.9369    -1.3518 H       
  35 H35           -4.8283     5.0222     2.8472 H       
  36 H36           -6.3610     5.6795     2.2250 H       
  37 H37           -6.0723     3.9232     2.2046 H       
  38 H38           -2.4574    -3.8702    -0.3220 H       
  39 H39           -2.8124    -3.6926    -2.7696 H       
  40 H40           -1.0631    -3.8833    -3.0372 H       
  41 H41           -2.8890    -5.9203    -1.6832 H       
  42 H42           -2.2499    -6.0392    -3.3403 H       
  43 H43            0.0637    -6.0340    -2.4483 H       
  44 H44           -1.3305    -6.0210     0.2670 H       
  45 H45            0.4188    -6.2116    -0.0006 H       
  46 H46            0.4954    -3.9839    -1.0870 H       
  47 H47           -0.1437    -3.8650     0.5700 H       
  48 H48           -1.1231    -8.1900    -2.7513 H       
  49 H49           -0.0128    -8.2617    -1.3619 H       
  50 H50           -1.7622    -8.0711    -1.0943 H       
  51 H51           -0.2868    -0.5292     2.3476 H       
  52 H52           -0.0936    -2.1545     3.0472 H       
  53 H53            0.7722    -1.7196     1.5541 H       
  54 H54           -3.3865    -2.0906     1.3880 H       
  55 H55           -2.5774    -2.6695     2.8640 H       
  56 H56           -2.6107    -0.9292     2.4915 H       
  57 H57            3.0437     0.3863    -0.6261 H       
@<TRIPOS>BOND
   1    1    2 1
   2    1    5 2
   3    1   28 1
   4    2    3 2
   5    2   12 1
   6    3    4 1
   7    3   25 1
   8    4    5 1
   9    5    6 1
  10    6    7 3
  11    7    8 1
  12    8    9 1
  13    8   10 1
  14    8   11 1
  15    9   29 1
  16    9   30 1
  17    9   31 1
  18   10   32 1
  19   10   33 1
  20   10   34 1
  21   11   35 1
  22   11   36 1
  23   11   37 1
  24   12   13 am
  25   12   14 1
  26   13   15 1
  27   13   16 2
  28   14   23 1
  29   14   24 1
  30   15   17 1
  31   15   21 1
  32   15   38 1
  33   17   18 1
  34   17   39 1
  35   17   40 1
  36   18   19 1
  37   18   41 1
  38   18   42 1
  39   19   20 1
  40   19   22 1
  41   19   43 1
  42   20   21 1
  43   20   44 1
  44   20   45 1
  45   21   46 1
  46   21   47 1
  47   22   48 1
  48   22   49 1
  49   22   50 1
  50   23   51 1
  51   23   52 1
  52   23   53 1
  53   24   54 1
  54   24   55 1
  55   24   56 1
  56   25   26 2
  57   25   27 1
  58   27   57 1

#	End of record

