#	Name: ASD03731727
#	Creating user name:	WinNT
#	Creation time:	15. 06. 2019 20:46

#	Modifying user name:	WinNT
#	Modification time:	15. 06. 2019 20:46

#	Program:	/corina/corina34_cracker 3.40 0067  02.08.2006

@<TRIPOS>MOLECULE
ASD03731727
  37   38    0    0    0
SMALL
NO_CHARGES


@<TRIPOS>ATOM
   1 C1             0.7585     1.4152    -0.4022 C.2     
   2 C2             0.5739    -0.0457    -0.3017 C.ar    
   3 C3             1.5328    -0.9113    -0.8347 C.ar    
   4 C4             1.3572    -2.2735    -0.7385 C.ar    
   5 C5             0.2278    -2.7882    -0.1121 C.ar    
   6 C6            -0.7285    -1.9303     0.4194 C.ar    
   7 C7            -0.5574    -0.5669     0.3318 C.ar    
   8 O8             1.7458     1.8670    -0.9493 O.2     
   9 N9            -0.1702     2.2484     0.1075 N.am    
  10 S10            0.0370     3.8876    -0.0052 S.o2    
  11 O11           -1.1017     4.4305     0.6489 O.2     
  12 O12            1.3469     4.1107     0.4983 O.2     
  13 C13           -0.0278     4.2306    -1.7853 C.3     
  14 O14            0.0581    -4.1312    -0.0197 O.3     
  15 C15            0.5848    -4.7684     1.0597 C.ar    
  16 C16            1.1761    -4.0348     2.0779 C.ar    
  17 C17            1.7108    -4.6821     3.1746 C.ar    
  18 C18            1.6569    -6.0657     3.2578 C.ar    
  19 C19            1.0660    -6.7993     2.2396 C.ar    
  20 C20            0.5258    -6.1517     1.1457 C.ar    
  21 O21            2.1836    -6.7029     4.3373 O.3     
  22 C22            2.0930    -8.1289     4.3569 C.3     
  23 H23            2.4102    -0.5122    -1.3217 H       
  24 H24            2.0977    -2.9431    -1.1505 H       
  25 H25           -1.6047    -2.3339     0.9049 H       
  26 H26           -1.2987     0.0989     0.7486 H       
  27 H27           -0.9598     1.8880     0.5405 H       
  28 H28           -0.9927     3.9141    -2.1815 H       
  29 H29            0.1015     5.2996    -1.9543 H       
  30 H30            0.7690     3.6841    -2.2899 H       
  31 H31            1.2188    -2.9576     2.0128 H       
  32 H32            2.1711    -4.1110     3.9673 H       
  33 H33            1.0247    -7.8765     2.3041 H       
  34 H34            0.0619    -6.7227     0.3550 H       
  35 H35            2.6149    -8.5380     3.4919 H       
  36 H36            2.5500    -8.5094     5.2704 H       
  37 H37            1.0451    -8.4269     4.3235 H       
@<TRIPOS>BOND
   1    1    2 1
   2    1    8 2
   3    1    9 am
   4    2    3 ar
   5    2    7 ar
   6    3    4 ar
   7    3   23 1
   8    4    5 ar
   9    4   24 1
  10    5    6 ar
  11    5   14 1
  12    6    7 ar
  13    6   25 1
  14    7   26 1
  15    9   10 am
  16    9   27 1
  17   10   11 2
  18   10   12 2
  19   10   13 1
  20   13   28 1
  21   13   29 1
  22   13   30 1
  23   14   15 1
  24   15   16 ar
  25   15   20 ar
  26   16   17 ar
  27   16   31 1
  28   17   18 ar
  29   17   32 1
  30   18   19 ar
  31   18   21 1
  32   19   20 ar
  33   19   33 1
  34   20   34 1
  35   21   22 1
  36   22   35 1
  37   22   36 1
  38   22   37 1

#	End of record

