#	Name: ASD01901112
#	Creating user name:	WinNT
#	Creation time:	15. 06. 2019 19:53

#	Modifying user name:	WinNT
#	Modification time:	15. 06. 2019 19:53

#	Program:	/corina/corina34_cracker 3.40 0067  02.08.2006

@<TRIPOS>MOLECULE
ASD01901112
  34   36    0    0    0
SMALL
NO_CHARGES


@<TRIPOS>ATOM
   1 C1            -0.0184     1.5028     0.0103 C.2     
   2 C2             0.0021    -0.0041     0.0020 C.3     
   3 O3            -1.3386    -0.4987     0.0122 O.3     
   4 C4            -1.4983    -1.8482     0.0064 C.ar    
   5 C5            -2.7818    -2.4027     0.0157 C.ar    
   6 C6            -2.9358    -3.7865     0.0093 C.ar    
   7 C7            -1.8226    -4.6035    -0.0062 C.ar    
   8 C8            -0.5542    -4.0520    -0.0154 C.ar    
   9 C9            -0.3905    -2.6789    -0.0144 C.ar    
  10 C10           -4.1188    -0.5076     0.9069 C.2     
  11 C11           -3.9746    -1.5204     0.0328 C.2     
  12 C12           -5.0378    -1.6720    -0.8553 C.2     
  13 C13           -6.0264    -0.7946    -0.7012 C.2     
  14 S14           -5.6515     0.3047     0.6186 S.3     
  15 C15            2.4725     1.5850    -0.0130 C.ar    
  16 C16            1.2453     2.2555     0.0023 C.ar    
  17 C17            1.2403     3.6588     0.0094 C.ar    
  18 C18            2.4551     4.3180     0.0009 C.ar    
  19 C19            3.6277     3.5799    -0.0142 C.ar    
  20 N20            3.6028     2.2592    -0.0206 N.ar    
  21 Cl21           5.1552     4.4048    -0.0255 Cl      
  22 O22           -1.0766     2.0947     0.0185 O.2     
  23 H23            0.5123    -0.3556    -0.8948 H       
  24 H24            0.5293    -0.3651     0.8851 H       
  25 H25           -3.9247    -4.2204     0.0167 H       
  26 H26           -1.9428    -5.6768    -0.0109 H       
  27 H27            0.3122    -4.6967    -0.0275 H       
  28 H28            0.6023    -2.2540    -0.0257 H       
  29 H29           -3.4049    -0.2380     1.6711 H       
  30 H30           -5.0577    -2.4428    -1.6116 H       
  31 H31           -6.9257    -0.7627    -1.2984 H       
  32 H32            2.4929     0.5052    -0.0142 H       
  33 H33            0.3113     4.2094     0.0209 H       
  34 H34            2.4900     5.3975     0.0056 H       
@<TRIPOS>BOND
   1    1    2 1
   2    1   16 1
   3    1   22 2
   4    2    3 1
   5    2   23 1
   6    2   24 1
   7    3    4 1
   8    4    5 ar
   9    4    9 ar
  10    5    6 ar
  11    5   11 1
  12    6    7 ar
  13    6   25 1
  14    7    8 ar
  15    7   26 1
  16    8    9 ar
  17    8   27 1
  18    9   28 1
  19   10   11 2
  20   10   14 1
  21   10   29 1
  22   11   12 1
  23   12   13 2
  24   12   30 1
  25   13   14 1
  26   13   31 1
  27   15   16 ar
  28   15   20 ar
  29   15   32 1
  30   16   17 ar
  31   17   18 ar
  32   17   33 1
  33   18   19 ar
  34   18   34 1
  35   19   20 ar
  36   19   21 1

#	End of record

