#	Name: ASD00069085
#	Creating user name:	WinNT
#	Creation time:	15. 06. 2019 18:29

#	Modifying user name:	WinNT
#	Modification time:	15. 06. 2019 18:29

#	Program:	/corina/corina34_cracker 3.40 0067  02.08.2006

@<TRIPOS>MOLECULE
ASD00069085
  58   63    0    0    0
SMALL
NO_CHARGES


@<TRIPOS>ATOM
   1 N1            -0.1649     1.5472     0.0425 N.am    
   2 C2            -1.2356     1.8569    -0.7152 C.2     
   3 O3            -1.2818     2.9249    -1.2948 O.2     
   4 N4            -2.2551     0.9829    -0.8305 N.am    
   5 C5            -3.4191     1.3508    -1.5195 C.ar    
   6 C6            -4.2874     0.3725    -1.9917 C.ar    
   7 C7            -5.4350     0.7385    -2.6706 C.ar    
   8 C8            -5.7188     2.0778    -2.8801 C.ar    
   9 C9            -4.8550     3.0523    -2.4103 C.ar    
  10 C10           -3.7097     2.6915    -1.7263 C.ar    
  11 F11           -6.8400     2.4338    -3.5443 F       
  12 F12           -4.0097    -0.9338    -1.7879 F       
  13 N13            4.0155     5.1545     0.1912 N.pl3   
  14 N14            3.2923     6.3491     0.1192 N.2     
  15 C15            2.0064     6.0904     0.0515 C.2     
  16 C16            1.8473     4.6313     0.0792 C.ar    
  17 C17            0.7429     3.7775     0.0376 C.ar    
  18 C18            0.9377     2.4107     0.0833 C.ar    
  19 C19            2.2274     1.8865     0.1706 C.ar    
  20 C20            3.3140     2.7116     0.2124 C.ar    
  21 C21            3.1436     4.0937     0.1677 C.ar    
  22 C22            5.4746     5.0507     0.2725 C.3     
  23 C23            6.0849     5.3490    -1.0995 C.3     
  24 C24            7.6121     5.2977    -0.9924 C.3     
  25 C25            8.0716     6.2932     0.0773 C.3     
  26 C26            7.3846     5.9583     1.4037 C.3     
  27 O27            5.9670     5.9936     1.2267 O.3     
  28 C28            0.9195     7.0852    -0.0359 C.2     
  29 N29            1.0945     8.4434    -0.0601 N.pl3   
  30 C30           -0.1606     9.0156    -0.1466 C.ar    
  31 C31           -1.0773     7.9493    -0.1722 C.ar    
  32 N32           -0.3592     6.8016    -0.1078 N.2     
  33 C33           -2.4464     8.2215    -0.2572 C.ar    
  34 C34           -2.8815     9.5259    -0.3147 C.ar    
  35 C35           -1.9726    10.5739    -0.2895 C.ar    
  36 C36           -0.6188    10.3237    -0.2054 C.ar    
  37 H37           -0.1593     0.7285     0.5626 H       
  38 H38           -2.1833     0.0994    -0.4367 H       
  39 H39           -6.1101    -0.0202    -3.0378 H       
  40 H40           -5.0785     4.0960    -2.5754 H       
  41 H41           -3.0388     3.4529    -1.3568 H       
  42 H42           -0.2559     4.1827    -0.0299 H       
  43 H43            2.3678     0.8162     0.2057 H       
  44 H44            4.3070     2.2926     0.2807 H       
  45 H45            5.7506     4.0425     0.5816 H       
  46 H46            5.7450     4.6043    -1.8191 H       
  47 H47            5.7759     6.3415    -1.4275 H       
  48 H48            7.9243     4.2916    -0.7124 H       
  49 H49            8.0541     5.5641    -1.9524 H       
  50 H50            9.1526     6.2237     0.1992 H       
  51 H51            7.8028     7.3047    -0.2270 H       
  52 H52            7.6858     4.9622     1.7278 H       
  53 H53            7.6750     6.6895     2.1582 H       
  54 H54            1.9410     8.9155    -0.0230 H       
  55 H55           -3.1598     7.4109    -0.2780 H       
  56 H56           -3.9390     9.7354    -0.3803 H       
  57 H57           -2.3277    11.5928    -0.3360 H       
  58 H58            0.0830    11.1443    -0.1856 H       
@<TRIPOS>BOND
   1    1    2 am
   2    1   18 1
   3    1   37 1
   4    2    3 2
   5    2    4 am
   6    4    5 1
   7    4   38 1
   8    5    6 ar
   9    5   10 ar
  10    6    7 ar
  11    6   12 1
  12    7    8 ar
  13    7   39 1
  14    8    9 ar
  15    8   11 1
  16    9   10 ar
  17    9   40 1
  18   10   41 1
  19   13   14 1
  20   13   21 1
  21   13   22 1
  22   14   15 2
  23   15   16 1
  24   15   28 1
  25   16   17 ar
  26   16   21 ar
  27   17   18 ar
  28   17   42 1
  29   18   19 ar
  30   19   20 ar
  31   19   43 1
  32   20   21 ar
  33   20   44 1
  34   22   23 1
  35   22   27 1
  36   22   45 1
  37   23   24 1
  38   23   46 1
  39   23   47 1
  40   24   25 1
  41   24   48 1
  42   24   49 1
  43   25   26 1
  44   25   50 1
  45   25   51 1
  46   26   27 1
  47   26   52 1
  48   26   53 1
  49   28   29 1
  50   28   32 2
  51   29   30 1
  52   29   54 1
  53   30   31 ar
  54   30   36 ar
  55   31   32 1
  56   31   33 ar
  57   33   34 ar
  58   33   55 1
  59   34   35 ar
  60   34   56 1
  61   35   36 ar
  62   35   57 1
  63   36   58 1

#	End of record

