#	Name: ASD01910226
#	Creating user name:	WinNT
#	Creation time:	15. 06. 2019 19:55

#	Modifying user name:	WinNT
#	Modification time:	15. 06. 2019 19:55

#	Program:	/corina/corina34_cracker 3.40 0067  02.08.2006

@<TRIPOS>MOLECULE
ASD01910226
  46   49    0    0    0
SMALL
NO_CHARGES


@<TRIPOS>ATOM
   1 C1            -0.0157     1.3055     0.0092 C.2     
   2 C2             1.1844     2.2170     0.0027 C.3     
   3 C3             1.1430     3.1071    -1.2416 C.3     
   4 C4             2.3783     4.0102    -1.2662 C.3     
   5 C5             2.3722     4.9108    -0.0270 C.3     
   6 N6             2.2656     4.0666     1.1707 N.am    
   7 C7             1.1647     3.0973     1.2562 C.3     
   8 C8             3.1608     4.1790     2.1720 C.2     
   9 C9             4.2598     5.1561     2.0717 C.2     
  10 O10            3.0617     3.4744     3.1582 O.2     
  11 N11            0.0021    -0.0041     0.0020 N.2     
  12 C12           -1.2954    -0.3850     0.0132 C.2     
  13 N13           -2.0176     0.7053     0.0264 N.2     
  14 O14           -1.2982     1.6817     0.0294 O.3     
  15 C15           -1.8043    -1.7788     0.0102 C.ar    
  16 C16           -3.1765    -2.0217     0.0229 C.ar    
  17 C17           -3.6454    -3.3191     0.0196 C.ar    
  18 C18           -2.7541    -4.3799     0.0035 C.ar    
  19 C19           -1.3890    -4.1429    -0.0092 C.ar    
  20 C20           -0.9116    -2.8486    -0.0113 C.ar    
  21 F21           -3.2175    -5.6490     0.0008 F       
  22 C22            5.5161     4.9807     1.5446 C.2     
  23 O23            6.1471     6.1491     1.6809 O.3     
  24 N24            5.4679     6.9968     2.2062 N.2     
  25 C25            4.2799     6.5616     2.5055 C.2     
  26 C26            6.0715     3.7199     0.9339 C.3     
  27 C27            3.1647     7.3300     3.1666 C.3     
  28 H28            2.0955     1.6188    -0.0081 H       
  29 H29            1.1321     2.4824    -2.1348 H       
  30 H30            0.2437     3.7225    -1.2181 H       
  31 H31            3.2785     3.3955    -1.2647 H       
  32 H32            2.3601     4.6272    -2.1645 H       
  33 H33            3.2978     5.4851     0.0119 H       
  34 H34            1.5204     5.5894    -0.0727 H       
  35 H35            0.2145     3.6280     1.3152 H       
  36 H36            1.2937     2.4751     2.1418 H       
  37 H37           -3.8719    -1.1954     0.0358 H       
  38 H38           -4.7087    -3.5082     0.0298 H       
  39 H39           -0.6977    -4.9726    -0.0217 H       
  40 H40            0.1526    -2.6647    -0.0213 H       
  41 H41            5.8597     3.7102    -0.1353 H       
  42 H42            7.1496     3.6844     1.0911 H       
  43 H43            5.6071     2.8532     1.4042 H       
  44 H44            2.5546     7.8135     2.4037 H       
  45 H45            2.5459     6.6454     3.7468 H       
  46 H46            3.5871     8.0868     3.8276 H       
@<TRIPOS>BOND
   1    1   11 2
   2    1    2 1
   3    1   14 1
   4    2    3 1
   5    2    7 1
   6    2   28 1
   7    3    4 1
   8    3   29 1
   9    3   30 1
  10    4    5 1
  11    4   31 1
  12    4   32 1
  13    5    6 1
  14    5   33 1
  15    5   34 1
  16    6    7 1
  17    6    8 am
  18    7   35 1
  19    7   36 1
  20    8    9 1
  21    8   10 2
  22    9   22 2
  23    9   25 1
  24   11   12 1
  25   12   13 2
  26   12   15 1
  27   13   14 1
  28   15   16 ar
  29   15   20 ar
  30   16   17 ar
  31   16   37 1
  32   17   18 ar
  33   17   38 1
  34   18   19 ar
  35   18   21 1
  36   19   20 ar
  37   19   39 1
  38   20   40 1
  39   22   23 1
  40   22   26 1
  41   23   24 1
  42   24   25 2
  43   25   27 1
  44   26   41 1
  45   26   42 1
  46   26   43 1
  47   27   44 1
  48   27   45 1
  49   27   46 1

#	End of record

