#	Name: ASD03430621
#	Creating user name:	WinNT
#	Creation time:	15. 06. 2019 20:41

#	Modifying user name:	WinNT
#	Modification time:	15. 06. 2019 20:41

#	Program:	/corina/corina34_cracker 3.40 0067  02.08.2006

@<TRIPOS>MOLECULE
ASD03430621
  57   61    0    0    0
SMALL
NO_CHARGES


@<TRIPOS>ATOM
   1 N1            -0.0161     1.3394     0.0094 N.am    
   2 C2             0.0021    -0.0041     0.0020 C.2     
   3 C3             1.4546    -0.4302    -0.0141 C.3     
   4 C4             2.2206     0.8729    -0.0140 C.ar    
   5 C5             3.5664     1.1670    -0.0242 C.ar    
   6 C6             3.9878     2.4889    -0.0199 C.ar    
   7 C7             3.0467     3.5123    -0.0085 C.ar    
   8 C8             1.6949     3.2119     0.0022 C.ar    
   9 C9             1.2702     1.8854     0.0001 C.ar    
  10 O10            5.3208     2.7658    -0.0224 O.3     
  11 O11            3.4392     4.8163    -0.0116 O.3     
  12 C12            4.7964     5.0809     0.3587 C.3     
  13 C13            5.7010     4.0954    -0.3934 C.3     
  14 O14           -0.9638    -0.7377     0.0076 O.2     
  15 C15           -1.2432     2.1397     0.0198 C.3     
  16 C16           -1.6630     2.4109     1.4658 C.3     
  17 O17           -0.6760     3.2239     2.1038 O.3     
  18 C18           -0.9732     3.5375     3.4659 C.3     
  19 C19            0.1449     4.4068     4.0448 C.3     
  20 O20            0.1718     5.6634     3.3648 O.3     
  21 C21            1.1859     6.5553     3.8317 C.3     
  22 O22            2.6785    -3.4608     4.5843 O.3     
  23 C23            2.8363    -2.7484     5.8161 C.3     
  24 C24            1.6726    -1.7568     5.9501 C.3     
  25 O25            1.7167    -0.8610     4.8342 O.3     
  26 C26            1.9001    -1.4213     3.6063 C.ar    
  27 C27            2.3824    -2.7192     3.4820 C.ar    
  28 C28            1.6001    -0.6838     2.4713 C.ar    
  29 C29            1.7822    -1.2352     1.2170 C.ar    
  30 C30            2.2657    -2.5285     1.0906 C.ar    
  31 C31            2.5657    -3.2702     2.2231 C.ar    
  32 O32            2.4453    -3.0697    -0.1438 O.3     
  33 H33            1.6746    -1.0024    -0.9153 H       
  34 H34            4.2935     0.3686    -0.0353 H       
  35 H35            0.9668     4.0096     0.0131 H       
  36 H36            5.0593     6.1029     0.0856 H       
  37 H37            4.9176     4.9444     1.4333 H       
  38 H38            6.7418     4.2698    -0.1204 H       
  39 H39            5.5752     4.2274    -1.4680 H       
  40 H40           -1.0640     3.0862    -0.4902 H       
  41 H41           -2.0363     1.5953    -0.4928 H       
  42 H42           -2.6218     2.9293     1.4747 H       
  43 H43           -1.7560     1.4657     2.0006 H       
  44 H44           -1.9177     4.0793     3.5163 H       
  45 H45           -1.0520     2.6156     4.0421 H       
  46 H46           -0.0364     4.5723     5.1068 H       
  47 H47            1.1021     3.9023     3.9139 H       
  48 H48            1.0262     6.7653     4.8893 H       
  49 H49            2.1648     6.0953     3.6964 H       
  50 H50            1.1402     7.4857     3.2656 H       
  51 H51            2.8201    -3.4493     6.6508 H       
  52 H52            3.7821    -2.2065     5.8088 H       
  53 H53            0.7265    -2.2981     5.9499 H       
  54 H54            1.7745    -1.1937     6.8778 H       
  55 H55            1.2236     0.3239     2.5675 H       
  56 H56            2.9426    -4.2775     2.1244 H       
  57 H57            3.3241    -2.9155    -0.5168 H       
@<TRIPOS>BOND
   1    1    2 am
   2    1    9 1
   3    1   15 1
   4    2    3 1
   5    2   14 2
   6    3    4 1
   7    3   29 1
   8    3   33 1
   9    4    5 ar
  10    4    9 ar
  11    5    6 ar
  12    5   34 1
  13    6    7 ar
  14    6   10 1
  15    7    8 ar
  16    7   11 1
  17    8    9 ar
  18    8   35 1
  19   10   13 1
  20   11   12 1
  21   12   13 1
  22   12   36 1
  23   12   37 1
  24   13   38 1
  25   13   39 1
  26   15   16 1
  27   15   40 1
  28   15   41 1
  29   16   17 1
  30   16   42 1
  31   16   43 1
  32   17   18 1
  33   18   19 1
  34   18   44 1
  35   18   45 1
  36   19   20 1
  37   19   46 1
  38   19   47 1
  39   20   21 1
  40   21   48 1
  41   21   49 1
  42   21   50 1
  43   22   23 1
  44   22   27 1
  45   23   24 1
  46   23   51 1
  47   23   52 1
  48   24   25 1
  49   24   53 1
  50   24   54 1
  51   25   26 1
  52   26   27 ar
  53   26   28 ar
  54   27   31 ar
  55   28   29 ar
  56   28   55 1
  57   29   30 ar
  58   30   31 ar
  59   30   32 1
  60   31   56 1
  61   32   57 1

#	End of record

