#	Name: ASD04590576
#	Creating user name:	WinNT
#	Creation time:	15. 06. 2019 20:51

#	Modifying user name:	WinNT
#	Modification time:	15. 06. 2019 20:51

#	Program:	/corina/corina34_cracker 3.40 0067  02.08.2006

@<TRIPOS>MOLECULE
ASD04590576
  67   72    0    0    0
SMALL
NO_CHARGES


@<TRIPOS>ATOM
   1 N1             2.2726     1.4607    -0.0345 N.ar    
   2 C2             2.4120     0.1396    -0.0524 C.ar    
   3 C3             1.3006    -0.6695    -0.0269 C.ar    
   4 C4             0.0328    -0.0920    -0.0013 C.ar    
   5 C5            -0.0744     1.2849     0.0095 C.ar    
   6 C6             1.0899     2.0462    -0.0050 C.ar    
   7 C7             3.8145    -0.4078    -0.1178 C.3     
   8 C8             3.8548    -1.8586     0.3591 C.3     
   9 N9             2.7664    -2.5880    -0.3122 N.am    
  10 C10            1.3918    -2.1736    -0.0105 C.3     
  11 N11            1.0070     3.4357     0.0118 N.pl3   
  12 C12            2.1603     4.1973     0.1095 C.ar    
  13 N13            2.0657     5.5137     0.0156 N.ar    
  14 C14            3.1500     6.2783     0.1044 C.ar    
  15 C15            4.3982     5.6537     0.3004 C.ar    
  16 C16            4.4478     4.2664     0.3931 C.ar    
  17 N17            3.3199     3.5813     0.2993 N.ar    
  18 N18            3.3486     7.6354     0.0448 N.pl3   
  19 C19            4.6917     7.9347     0.1952 C.ar    
  20 C20            5.3967     6.7289     0.3591 C.ar    
  21 C21            5.4052     9.1261     0.2108 C.ar    
  22 N22            6.7124     9.1224     0.3751 N.ar    
  23 C23            7.4041     8.0075     0.5316 C.ar    
  24 C24            6.7796     6.7783     0.5305 C.ar    
  25 C25            2.2885     8.6273    -0.1512 C.3     
  26 C26            1.2737     8.5213     0.9889 C.3     
  27 C27            0.1665     9.5571     0.7842 C.3     
  28 C28           -0.5360     9.2959    -0.5496 C.3     
  29 C29            0.4787     9.4019    -1.6898 C.3     
  30 C30            1.5860     8.3661    -1.4851 C.3     
  31 C31            3.0225    -3.5957    -1.1699 C.2     
  32 C32            1.8850    -4.3219    -1.8404 C.3     
  33 O33            4.1685    -3.9179    -1.4020 O.2     
  34 O34            2.4084    -5.2601    -2.7827 O.3     
  35 C35           -1.6432    10.3318    -0.7544 C.3     
  36 C36            1.0614    -5.0638    -0.7859 C.3     
  37 H37           -0.8519    -0.7113     0.0096 H       
  38 H38           -1.0434     1.7613     0.0287 H       
  39 H39            4.1709    -0.3587    -1.1467 H       
  40 H40            4.4649     0.1958     0.5152 H       
  41 H41            4.8139    -2.3058     0.0981 H       
  42 H42            3.7119    -1.8956     1.4391 H       
  43 H43            1.1096    -2.5435     0.9753 H       
  44 H44            0.7158    -2.5863    -0.7594 H       
  45 H45            0.1419     3.8707    -0.0449 H       
  46 H46            5.3890     3.7584     0.5428 H       
  47 H47            4.8840    10.0638     0.0867 H       
  48 H48            8.4749     8.0599     0.6624 H       
  49 H49            7.3509     5.8708     0.6586 H       
  50 H50            2.7230     9.6269    -0.1591 H       
  51 H51            0.8392     7.5217     0.9968 H       
  52 H52            1.7742     8.7074     1.9392 H       
  53 H53           -0.5564     9.4816     1.5965 H       
  54 H54            0.6011    10.5567     0.7764 H       
  55 H55           -0.9706     8.2963    -0.5418 H       
  56 H56           -0.0217     9.2158    -2.6401 H       
  57 H57            0.9133    10.4015    -1.6977 H       
  58 H58            2.3089     8.4416    -2.2974 H       
  59 H59            1.1514     7.3665    -1.4772 H       
  60 H60            1.2498    -3.6031    -2.3580 H       
  61 H61            2.9841    -5.9312    -2.3913 H       
  62 H62           -1.2087    11.3314    -0.7622 H       
  63 H63           -2.1437    10.1457    -1.7046 H       
  64 H64           -2.3661    10.2563     0.0579 H       
  65 H65            0.6621    -4.3482    -0.0671 H       
  66 H66            0.2386    -5.5891    -1.2709 H       
  67 H67            1.6966    -5.7826    -0.2683 H       
@<TRIPOS>BOND
   1    1    2 ar
   2    1    6 ar
   3    2    3 ar
   4    2    7 1
   5    3    4 ar
   6    3   10 1
   7    4    5 ar
   8    4   37 1
   9    5    6 ar
  10    5   38 1
  11    6   11 1
  12    7    8 1
  13    7   39 1
  14    7   40 1
  15    8    9 1
  16    8   41 1
  17    8   42 1
  18    9   10 1
  19    9   31 am
  20   10   43 1
  21   10   44 1
  22   11   12 1
  23   11   45 1
  24   12   13 ar
  25   12   17 ar
  26   13   14 ar
  27   14   15 ar
  28   14   18 1
  29   15   16 ar
  30   15   20 1
  31   16   17 ar
  32   16   46 1
  33   18   19 1
  34   18   25 1
  35   19   20 ar
  36   19   21 ar
  37   20   24 ar
  38   21   22 ar
  39   21   47 1
  40   22   23 ar
  41   23   24 ar
  42   23   48 1
  43   24   49 1
  44   25   26 1
  45   25   30 1
  46   25   50 1
  47   26   27 1
  48   26   51 1
  49   26   52 1
  50   27   28 1
  51   27   53 1
  52   27   54 1
  53   28   29 1
  54   28   35 1
  55   28   55 1
  56   29   30 1
  57   29   56 1
  58   29   57 1
  59   30   58 1
  60   30   59 1
  61   31   32 1
  62   31   33 2
  63   32   34 1
  64   32   36 1
  65   32   60 1
  66   34   61 1
  67   35   62 1
  68   35   63 1
  69   35   64 1
  70   36   65 1
  71   36   66 1
  72   36   67 1

#	End of record

