#	Name: ASD00841753
#	Creating user name:	WinNT
#	Creation time:	15. 06. 2019 18:42

#	Modifying user name:	WinNT
#	Modification time:	15. 06. 2019 18:42

#	Program:	/corina/corina34_cracker 3.40 0067  02.08.2006

@<TRIPOS>MOLECULE
ASD00841753
  90   95    0    0    0
SMALL
NO_CHARGES


@<TRIPOS>ATOM
   1 F1            -0.0818    -3.1422     4.7177 F       
   2 C2            -0.0149     1.3803     0.0254 C.ar    
   3 C3             0.0029    -0.0066     0.0108 C.ar    
   4 C4             1.2146    -0.6824    -0.0068 C.ar    
   5 C5             2.3997     0.0270    -0.0096 C.ar    
   6 C6             2.3793     1.4096     0.0055 C.ar    
   7 C7             1.1734     2.0853     0.0225 C.ar    
   8 C8             1.2376    -2.1892    -0.0222 C.3     
   9 C9             0.4953    -2.7183    -1.2306 C.2     
  10 N10            2.6179    -2.6801    -0.0124 N.am    
  11 C11            3.4633    -2.3341    -1.0034 C.2     
  12 N12            4.7589    -2.7002    -0.9424 N.am    
  13 O13            3.0571    -1.6916    -1.9523 O.2     
  14 C14            5.6723    -2.4336    -2.0640 C.3     
  15 C15            6.9190    -1.7284    -1.5194 C.3     
  16 N16            7.4921    -2.5273    -0.4280 N.3     
  17 C17            6.5584    -2.6346     0.7010 C.3     
  18 C18            5.2984    -3.3715     0.2499 C.3     
  19 N19            8.7693    -1.9815     0.0022 N.3     
  20 C20            9.3427    -2.7807     1.0940 C.3     
  21 C21           10.7190    -2.2222     1.4631 C.3     
  22 N22           10.5829    -0.8140     1.8605 N.3     
  23 C23           10.0095    -0.0147     0.7686 C.3     
  24 C24            8.6332    -0.5732     0.3996 C.3     
  25 C25           11.8733    -0.2625     2.2951 C.3     
  26 O26            0.7756    -2.5161    -2.3932 O.2     
  27 N27           -0.5318    -3.4543    -0.7743 N.am    
  28 C28            0.4673    -2.7426     1.1552 C.ar    
  29 C29           -0.5779    -3.4898     0.6215 C.ar    
  30 C30            0.6342    -2.6251     2.5174 C.ar    
  31 C31           -0.2443    -3.2555     3.3813 C.ar    
  32 C32           -1.3009    -4.0109     2.8627 C.ar    
  33 C33           -1.4641    -4.1261     1.4825 C.ar    
  34 C34           -0.9809    -5.8440    -2.0636 C.ar    
  35 C35            0.1988    -5.9992    -2.7766 C.ar    
  36 C36           -1.6527    -6.9552    -1.5916 C.ar    
  37 C37           -1.1500    -8.2209    -1.8290 C.ar    
  38 C38            0.0259    -8.3783    -2.5396 C.ar    
  39 C39            0.7011    -7.2707    -3.0139 C.ar    
  40 H40            0.4166    -9.3682    -2.7237 H       
  41 O41            0.8613    -4.9078    -3.2423 O.3     
  42 C42            2.0695    -5.1431    -3.9682 C.3     
  43 C43            2.6685    -3.8060    -4.4087 C.3     
  44 S44           -1.6181    -4.2307    -1.7538 S.o2    
  45 O45           -2.7989    -4.4069    -0.9831 O.2     
  46 O46           -1.5974    -3.5453    -2.9984 O.2     
  47 O47           -1.1645    -0.7024     0.0141 O.3     
  48 C48           -3.5739    -0.8896     0.0339 C.3     
  49 C49           -2.3735     0.0592     0.0330 C.3     
  50 C50           -2.2148    -4.6666     3.7490 C.1     
  51 N51           -2.9398    -5.1868     4.4520 N.1     
  52 H52           -0.9568     1.9086     0.0346 H       
  53 H53            3.3431    -0.4985    -0.0233 H       
  54 H54            3.3071     1.9625     0.0039 H       
  55 H55            1.1601     3.1652     0.0343 H       
  56 H56            2.9233    -3.2542     0.7073 H       
  57 H57            5.9596    -3.3743    -2.5338 H       
  58 H58            5.1783    -1.7923    -2.7940 H       
  59 H59            7.6542    -1.6218    -2.3170 H       
  60 H60            6.6443    -0.7429    -1.1433 H       
  61 H61            7.0321    -3.1853     1.5137 H       
  62 H62            6.2888    -1.6365     1.0462 H       
  63 H63            4.5575    -3.3531     1.0491 H       
  64 H64            5.5469    -4.4032     0.0009 H       
  65 H65            8.6862    -2.7334     1.9629 H       
  66 H66            9.4452    -3.8167     0.7713 H       
  67 H67           11.1337    -2.7956     2.2922 H       
  68 H68           11.3836    -2.2946     0.6022 H       
  69 H69            9.9070     1.0213     1.0914 H       
  70 H70           10.6661    -0.0620    -0.1002 H       
  71 H71            8.2185     0.0001    -0.4295 H       
  72 H72            7.9686    -0.5009     1.2605 H       
  73 H73           12.5901    -0.3270     1.4765 H       
  74 H74           11.7439     0.7806     2.5835 H       
  75 H75           12.2431    -0.8320     3.1477 H       
  76 H76            1.4521    -2.0404     2.9120 H       
  77 H77           -2.2802    -4.7096     1.0825 H       
  78 H78           -2.5713    -6.8349    -1.0365 H       
  79 H79           -1.6763    -9.0882    -1.4587 H       
  80 H80            1.6190    -7.3942    -3.5694 H       
  81 H81            2.7808    -5.6672    -3.3299 H       
  82 H82            1.8530    -5.7512    -4.8466 H       
  83 H83            1.9572    -3.2819    -5.0471 H       
  84 H84            2.8850    -3.1979    -3.5303 H       
  85 H85            3.5900    -3.9854    -4.9624 H       
  86 H86           -4.4961    -0.3087     0.0483 H       
  87 H87           -3.5484    -1.5087    -0.8628 H       
  88 H88           -3.5323    -1.5272     0.9169 H       
  89 H89           -2.3990     0.6782     0.9297 H       
  90 H90           -2.4151     0.6968    -0.8501 H       
@<TRIPOS>BOND
   1    1   31 1
   2    2    3 ar
   3    2    7 ar
   4    2   52 1
   5    3    4 ar
   6    3   47 1
   7    4    5 ar
   8    4    8 1
   9    5    6 ar
  10    5   53 1
  11    6    7 ar
  12    6   54 1
  13    7   55 1
  14    8    9 1
  15    8   10 1
  16    8   28 1
  17    9   26 2
  18    9   27 am
  19   10   11 am
  20   10   56 1
  21   11   12 am
  22   11   13 2
  23   12   14 1
  24   12   18 1
  25   14   15 1
  26   14   57 1
  27   14   58 1
  28   15   16 1
  29   15   59 1
  30   15   60 1
  31   16   17 1
  32   16   19 1
  33   17   18 1
  34   17   61 1
  35   17   62 1
  36   18   63 1
  37   18   64 1
  38   19   20 1
  39   19   24 1
  40   20   21 1
  41   20   65 1
  42   20   66 1
  43   21   22 1
  44   21   67 1
  45   21   68 1
  46   22   23 1
  47   22   25 1
  48   23   24 1
  49   23   69 1
  50   23   70 1
  51   24   71 1
  52   24   72 1
  53   25   73 1
  54   25   74 1
  55   25   75 1
  56   27   44 am
  57   27   29 1
  58   28   29 ar
  59   28   30 ar
  60   29   33 ar
  61   30   31 ar
  62   30   76 1
  63   31   32 ar
  64   32   33 ar
  65   32   50 1
  66   33   77 1
  67   34   35 ar
  68   34   36 ar
  69   34   44 1
  70   35   41 1
  71   35   39 ar
  72   36   37 ar
  73   36   78 1
  74   37   38 ar
  75   37   79 1
  76   38   39 ar
  77   38   40 1
  78   39   80 1
  79   41   42 1
  80   42   43 1
  81   42   81 1
  82   42   82 1
  83   43   83 1
  84   43   84 1
  85   43   85 1
  86   44   45 2
  87   44   46 2
  88   47   49 1
  89   48   49 1
  90   48   86 1
  91   48   87 1
  92   48   88 1
  93   49   89 1
  94   49   90 1
  95   50   51 3

#	End of record

