#	Name: ASD03091491
#	Creating user name:	WinNT
#	Creation time:	15. 06. 2019 20:30

#	Modifying user name:	WinNT
#	Modification time:	15. 06. 2019 20:30

#	Program:	/corina/corina34_cracker 3.40 0067  02.08.2006

@<TRIPOS>MOLECULE
ASD03091491
  45   48    0    0    0
SMALL
NO_CHARGES


@<TRIPOS>ATOM
   1 C1            -0.0170     1.4054     0.0098 C.ar    
   2 C2             0.0021    -0.0041     0.0020 C.ar    
   3 N3             1.1519    -0.6692    -0.0125 N.ar    
   4 C4             2.3305    -0.0510    -0.0204 C.ar    
   5 C5             2.3923     1.3677    -0.0134 C.ar    
   6 C6             1.2031     2.1025     0.0019 C.ar    
   7 S7            -1.6495    -0.6155     0.0151 S.3     
   8 C8            -2.3256     1.0009     0.0305 C.2     
   9 C9            -1.3686     1.9298     0.0314 C.2     
  10 C10           -3.7656     1.2958     0.0456 C.2     
  11 O11           -4.1501     2.4499     0.0552 O.2     
  12 N12           -4.6600     0.2876     0.0488 N.am    
  13 N13           -7.6214    -0.1744    -1.6954 N.3     
  14 C14           -6.5861     0.8151    -1.3678 C.3     
  15 C15           -6.0951     0.5815     0.0638 C.3     
  16 C16           -6.8572    -0.6084     0.6605 C.3     
  17 C17           -6.6049    -1.8408    -0.2172 C.3     
  18 C18           -7.0823    -1.5403    -1.6408 C.3     
  19 C19           -8.7859    -0.0329    -0.8105 C.3     
  20 C20           -8.3575    -0.2899     0.6370 C.3     
  21 C21            3.5315    -0.7852    -0.0353 C.ar    
  22 C22            4.7241    -0.1317    -0.0427 C.ar    
  23 C23            4.7827     1.2618    -0.0359 C.ar    
  24 C24            3.6459     2.0081    -0.0215 C.ar    
  25 H25            1.2217     3.1823     0.0073 H       
  26 H26           -1.5833     2.9882     0.0400 H       
  27 H27           -4.3535    -0.6327     0.0411 H       
  28 H28           -5.7509     0.7104    -2.0603 H       
  29 H29           -7.0034     1.8187    -1.4499 H       
  30 H30           -6.2812     1.4723     0.6637 H       
  31 H31           -6.5184    -0.7979     1.6790 H       
  32 H32           -5.5389    -2.0681    -0.2298 H       
  33 H33           -7.1569    -2.6921     0.1811 H       
  34 H34           -7.8608    -2.2500    -1.9207 H       
  35 H35           -6.2439    -1.6283    -2.3317 H       
  36 H36           -9.1879     0.9766    -0.8970 H       
  37 H37           -9.5504    -0.7550    -1.0972 H       
  38 H38           -8.9166    -1.1350     1.0387 H       
  39 H39           -8.5519     0.5980     1.2385 H       
  40 H40            3.5059    -1.8649    -0.0404 H       
  41 H41            5.6415    -0.7015    -0.0537 H       
  42 H42            5.7437     1.7547    -0.0417 H       
  43 H43            3.7046     3.0865    -0.0166 H       
  44 Cl44          10.7437     8.1823     6.6790 Cl      
  45 H45           10.7437     9.5523     6.6790 H       
@<TRIPOS>BOND
   1    1    2 ar
   2    1    6 ar
   3    1    9 1
   4    2    3 ar
   5    2    7 1
   6    3    4 ar
   7    4    5 ar
   8    4   21 ar
   9    5    6 ar
  10    5   24 ar
  11    6   25 1
  12    7    8 1
  13    8    9 2
  14    8   10 1
  15    9   26 1
  16   10   11 2
  17   10   12 am
  18   12   15 1
  19   12   27 1
  20   13   14 1
  21   13   18 1
  22   13   19 1
  23   14   15 1
  24   14   28 1
  25   14   29 1
  26   15   16 1
  27   15   30 1
  28   16   17 1
  29   16   20 1
  30   16   31 1
  31   17   18 1
  32   17   32 1
  33   17   33 1
  34   18   34 1
  35   18   35 1
  36   19   20 1
  37   19   36 1
  38   19   37 1
  39   20   38 1
  40   20   39 1
  41   21   22 ar
  42   21   40 1
  43   22   23 ar
  44   22   41 1
  45   23   24 ar
  46   23   42 1
  47   24   43 1
  48   44   45 1

#	End of record

