#	Name: ASD02030705
#	Creating user name:	WinNT
#	Creation time:	15. 06. 2019 20:15

#	Modifying user name:	WinNT
#	Modification time:	15. 06. 2019 20:15

#	Program:	/corina/corina34_cracker 3.40 0067  02.08.2006

@<TRIPOS>MOLECULE
ASD02030705
  32   33    0    0    0
SMALL
NO_CHARGES


@<TRIPOS>ATOM
   1 N1            -0.0169     1.3957     0.0097 N.2     
   2 N2             0.0021    -0.0041     0.0020 N.am    
   3 C3             1.1646    -0.6797    -0.0123 C.2     
   4 N4             2.3448    -0.0325    -0.0200 N.am    
   5 C5             2.3757     1.3164    -0.0131 C.2     
   6 C6             1.1074     2.0610     0.0026 C.2     
   7 O7             1.1494    -1.8958    -0.0178 O.2     
   8 O8             3.4386     1.9089    -0.0192 O.2     
   9 C9            -1.2627    -0.7434     0.0101 C.3     
  10 C10           -1.6892    -1.0085     1.4554 C.3     
  11 C11           -2.9902    -1.7690     1.4637 C.ar    
  12 C12           -2.9821    -3.1506     1.4562 C.ar    
  13 C13           -4.1800    -3.8500     1.4639 C.ar    
  14 C14           -5.3836    -3.1598     1.4791 C.ar    
  15 C15           -5.3862    -1.7786     1.4865 C.ar    
  16 C16           -4.1906    -1.0837     1.4845 C.ar    
  17 O17           -4.1747    -5.2090     1.4561 O.3     
  18 C18           -5.4454    -5.8627     1.4647 C.3     
  19 O19            1.1051     3.4197     0.0094 O.3     
  20 H20            3.1737    -0.5362    -0.0303 H       
  21 H21           -2.0303    -0.1556    -0.4933 H       
  22 H22           -1.1322    -1.6923    -0.5101 H       
  23 H23           -0.9215    -1.5962     1.9587 H       
  24 H24           -1.8197    -0.0596     1.9756 H       
  25 H25           -2.0440    -3.6856     1.4440 H       
  26 H26           -6.3175    -3.7021     1.4847 H       
  27 H27           -6.3228    -1.2409     1.4980 H       
  28 H28           -4.1948    -0.0038     1.4952 H       
  29 H29           -5.9948    -5.5771     2.3617 H       
  30 H30           -6.0122    -5.5670     0.5819 H       
  31 H31           -5.2984    -6.9427     1.4571 H       
  32 H32            0.2211     3.8114     0.0197 H       
@<TRIPOS>BOND
   1    1    2 1
   2    1    6 2
   3    2    3 am
   4    2    9 1
   5    3    4 am
   6    3    7 2
   7    4    5 am
   8    4   20 1
   9    5    6 1
  10    5    8 2
  11    6   19 1
  12    9   10 1
  13    9   21 1
  14    9   22 1
  15   10   11 1
  16   10   23 1
  17   10   24 1
  18   11   12 ar
  19   11   16 ar
  20   12   13 ar
  21   12   25 1
  22   13   14 ar
  23   13   17 1
  24   14   15 ar
  25   14   26 1
  26   15   16 ar
  27   15   27 1
  28   16   28 1
  29   17   18 1
  30   18   29 1
  31   18   30 1
  32   18   31 1
  33   19   32 1

#	End of record

