#	Name: ASD05613002
#	Creating user name:	WinNT
#	Creation time:	15. 06. 2019 21:01

#	Modifying user name:	WinNT
#	Modification time:	15. 06. 2019 21:01

#	Program:	/corina/corina34_cracker 3.40 0067  02.08.2006

@<TRIPOS>MOLECULE
ASD05613002
  48   51    0    0    0
SMALL
NO_CHARGES


@<TRIPOS>ATOM
   1 C1            -0.0167     1.3823     0.0096 C.ar    
   2 C2             0.0021    -0.0041     0.0020 C.ar    
   3 C3            -1.1970    -0.7044     0.0103 C.ar    
   4 C4            -2.4259    -0.0324     0.0130 C.ar    
   5 C5            -2.4236     1.3522     0.0270 C.ar    
   6 C6            -1.2333     2.0519     0.0307 C.ar    
   7 C7            -1.2350    -2.1795     0.0364 C.2     
   8 C8            -2.5169    -2.9030    -0.3701 C.3     
   9 C9            -3.6342    -2.2232     0.4202 C.3     
  10 C10           -3.7381    -0.7631    -0.0165 C.3     
  11 O11            1.1485     2.0818     0.0023 O.3     
  12 C12            1.0495     3.5073     0.0109 C.3     
  13 N13           -0.3566    -3.0389     0.3753 N.2     
  14 N14           -0.8311    -4.3523     0.4124 N.am    
  15 C15           -2.2650    -4.3479     0.0646 C.3     
  16 H16           -2.6920    -2.8275    -1.4433 H       
  17 C17           -0.0998    -5.4432     0.7151 C.2     
  18 O18           -0.6183    -6.5399     0.7160 O.2     
  19 C19            1.3621    -5.3006     1.0523 C.3     
  20 C20           -3.1047    -4.6954     1.2668 C.ar    
  21 C21           -4.2242    -5.4934     1.1194 C.ar    
  22 C22           -4.9956    -5.8133     2.2198 C.ar    
  23 C23           -4.6461    -5.3332     3.4737 C.ar    
  24 C24           -3.5224    -4.5327     3.6189 C.ar    
  25 C25           -2.7512    -4.2203     2.5162 C.ar    
  26 O26           -5.4036    -5.6462     4.5577 O.3     
  27 C27           -4.9840    -5.1168     5.8170 C.3     
  28 H28            0.9423    -0.5353    -0.0107 H       
  29 H29           -3.3605     1.8893     0.0392 H       
  30 H30           -1.2485     3.1317     0.0417 H       
  31 H31           -4.5792    -2.7301     0.2250 H       
  32 H32           -3.4075    -2.2698     1.4854 H       
  33 H33           -4.4377    -0.2505     0.6437 H       
  34 H34           -4.1330    -0.7300    -1.0319 H       
  35 H35            0.5032     3.8389    -0.8722 H       
  36 H36            0.5202     3.8294     0.9077 H       
  37 H37            2.0494     3.9410     0.0037 H       
  38 H38           -2.4637    -5.0367    -0.7565 H       
  39 H39            1.6462    -4.2496     0.9999 H       
  40 H40            1.5407    -5.6755     2.0601 H       
  41 H41            1.9566    -5.8737     0.3408 H       
  42 H42           -4.4960    -5.8666     0.1431 H       
  43 H43           -5.8701    -6.4364     2.1041 H       
  44 H44           -3.2483    -4.1577     4.5939 H       
  45 H45           -1.8763    -3.5971     2.6287 H       
  46 H46           -5.6740    -5.4418     6.5958 H       
  47 H47           -3.9812    -5.4770     6.0466 H       
  48 H48           -4.9769    -4.0279     5.7692 H       
@<TRIPOS>BOND
   1    1    2 ar
   2    1   11 1
   3    1    6 ar
   4    2    3 ar
   5    2   28 1
   6    3    4 ar
   7    3    7 1
   8    4    5 ar
   9    4   10 1
  10    5    6 ar
  11    5   29 1
  12    6   30 1
  13    7    8 1
  14    7   13 2
  15    8    9 1
  16    8   16 1
  17    8   15 1
  18    9   10 1
  19    9   31 1
  20    9   32 1
  21   10   33 1
  22   10   34 1
  23   11   12 1
  24   12   35 1
  25   12   36 1
  26   12   37 1
  27   13   14 1
  28   14   15 1
  29   14   17 am
  30   15   20 1
  31   15   38 1
  32   17   18 2
  33   17   19 1
  34   19   39 1
  35   19   40 1
  36   19   41 1
  37   20   21 ar
  38   20   25 ar
  39   21   22 ar
  40   21   42 1
  41   22   23 ar
  42   22   43 1
  43   23   24 ar
  44   23   26 1
  45   24   25 ar
  46   24   44 1
  47   25   45 1
  48   26   27 1
  49   27   46 1
  50   27   47 1
  51   27   48 1

#	End of record

