#	Name: ASD01948049
#	Creating user name:	WinNT
#	Creation time:	15. 06. 2019 20:13

#	Modifying user name:	WinNT
#	Modification time:	15. 06. 2019 20:13

#	Program:	/corina/corina34_cracker 3.40 0067  02.08.2006

@<TRIPOS>MOLECULE
ASD01948049
  46   48    0    0    0
SMALL
NO_CHARGES


@<TRIPOS>ATOM
   1 C1             0.6182     1.3920    -1.0882 C.2     
   2 C2             0.6205     0.0250    -1.1234 C.2     
   3 C3             1.2101    -0.7063    -0.0820 C.2     
   4 C4             1.7918    -0.0234     0.9790 C.2     
   5 C5             1.7662     1.3702     0.9791 C.2     
   6 N6             1.1831     2.0424    -0.0302 N.am    
   7 O7             0.1171     2.2630    -2.0011 O.3     
   8 C8             1.0072     3.4934    -0.2422 C.3     
   9 C9            -0.0633     3.5364    -1.3566 C.3     
  10 O10            2.2770     1.9860     1.9024 O.2     
  11 N11           -0.0015    -0.6850    -2.2637 N.pl3   
  12 O12           -0.6053    -0.0577    -3.1155 O.2     
  13 O13            0.0905    -1.8964    -2.3502 O.2     
  14 C14            2.4396    -0.7773     2.1117 C.3     
  15 N15            1.2120    -2.0907    -0.1106 N.pl3   
  16 C16            0.0059    -2.7940    -0.0202 C.ar    
  17 C17           -0.0074    -4.1773    -0.1675 C.ar    
  18 C18           -1.2015    -4.8682    -0.0769 C.ar    
  19 C19           -2.3807    -4.1851     0.1598 C.ar    
  20 C20           -2.3699    -2.8106     0.3060 C.ar    
  21 C21           -1.1795    -2.1138     0.2224 C.ar    
  22 Si22          -3.9920    -5.1224     0.2815 Si      
  23 C23           -4.2885    -5.6204     2.0520 C.3     
  24 C24           -5.3885    -4.0348    -0.2999 C.3     
  25 C25           -3.9061    -6.6466    -0.7863 C.3     
  26 F26            1.1444    -4.8443    -0.3991 F       
  27 H27            0.6427     3.9763     0.6645 H       
  28 H28            1.9369     3.9514    -0.5797 H       
  29 H29            0.1319     4.3538    -2.0508 H       
  30 H30           -1.0634     3.6178    -0.9310 H       
  31 H31            3.4923    -0.9429     1.8828 H       
  32 H32            2.3544    -0.1967     3.0302 H       
  33 H33            1.9405    -1.7377     2.2413 H       
  34 H34            2.0496    -2.5729    -0.1934 H       
  35 H35           -1.2135    -5.9421    -0.1913 H       
  36 H36           -3.2928    -2.2808     0.4903 H       
  37 H37           -1.1720    -1.0405     0.3416 H       
  38 H38           -4.3388    -4.7286     2.6768 H       
  39 H39           -5.2287    -6.1673     2.1230 H       
  40 H40           -3.4715    -6.2567     2.3922 H       
  41 H41           -5.2150    -3.7434    -1.3358 H       
  42 H42           -6.3287    -4.5817    -0.2288 H       
  43 H43           -5.4388    -3.1430     0.3249 H       
  44 H44           -3.0890    -7.2829    -0.4462 H       
  45 H45           -4.8463    -7.1934    -0.7153 H       
  46 H46           -3.7326    -6.3552    -1.8222 H       
@<TRIPOS>BOND
   1    1    2 2
   2    1    6 1
   3    1    7 1
   4    2    3 1
   5    2   11 1
   6    3    4 2
   7    3   15 1
   8    4    5 1
   9    4   14 1
  10    5    6 am
  11    5   10 2
  12    6    8 1
  13    7    9 1
  14    8    9 1
  15    8   27 1
  16    8   28 1
  17    9   29 1
  18    9   30 1
  19   11   12 2
  20   11   13 2
  21   14   31 1
  22   14   32 1
  23   14   33 1
  24   15   16 1
  25   15   34 1
  26   16   17 ar
  27   16   21 ar
  28   17   18 ar
  29   17   26 1
  30   18   19 ar
  31   18   35 1
  32   19   20 ar
  33   19   22 1
  34   20   21 ar
  35   20   36 1
  36   21   37 1
  37   22   23 1
  38   22   24 1
  39   22   25 1
  40   23   38 1
  41   23   39 1
  42   23   40 1
  43   24   41 1
  44   24   42 1
  45   24   43 1
  46   25   44 1
  47   25   45 1
  48   25   46 1

#	End of record

