#	Name: ASD01940220
#	Creating user name:	WinNT
#	Creation time:	15. 06. 2019 20:12

#	Modifying user name:	WinNT
#	Modification time:	15. 06. 2019 20:12

#	Program:	/corina/corina34_cracker 3.40 0067  02.08.2006

@<TRIPOS>MOLECULE
ASD01940220
  41   43    0    0    0
SMALL
NO_CHARGES


@<TRIPOS>ATOM
   1 C1            -0.6566    -2.9522     1.5902 C.3     
   2 C2             6.0024    -0.1138     7.8020 C.ar    
   3 F3             1.7946     2.4571     3.0800 F       
   4 C4             0.8477     1.5317     3.3489 C.ar    
   5 C5             1.2003     0.1953     3.4824 C.ar    
   6 C6             0.2198    -0.7558     3.7598 C.ar    
   7 C7            -1.1029    -0.3634     3.9012 C.ar    
   8 C8            -1.4482     0.9688     3.7668 C.ar    
   9 C9            -0.4753     1.9162     3.4969 C.ar    
  10 N10            2.5383    -0.1963     3.3381 N.pl3   
  11 N11            0.5697    -2.1059     3.8950 N.am    
  12 C12            3.3943    -0.1761     4.4407 C.ar    
  13 C13            2.9042     0.1730     5.6936 C.ar    
  14 C14            3.7479     0.1936     6.7841 C.ar    
  15 C15            5.0934    -0.1360     6.6299 C.ar    
  16 C16            5.5841    -0.4861     5.3725 C.ar    
  17 C17            4.7361    -0.5111     4.2852 C.ar    
  18 Cl18           5.3456    -0.9474     2.7194 Cl      
  19 F19           -0.8173     3.2173     3.3730 F       
  20 S20           -0.4627    -3.2862     3.3626 S.o2    
  21 O21           -1.6767    -3.0281     4.0545 O.2     
  22 O22            0.2537    -4.4964     3.5665 O.2     
  23 C23            7.3532    -0.4423     7.6593 C.ar    
  24 C24            8.1599    -0.4065     8.7839 C.ar    
  25 C25            7.6085    -0.0502    10.0009 C.ar    
  26 N26            6.3293     0.2549    10.1048 N.ar    
  27 C27            5.5244     0.2406     9.0623 C.ar    
  28 H28            0.3156    -3.0109     1.1009 H       
  29 H29           -1.3287    -3.6904     1.1528 H       
  30 H30           -1.0733    -1.9545     1.4520 H       
  31 H31           -1.8639    -1.0990     4.1161 H       
  32 H32           -2.4789     1.2717     3.8770 H       
  33 H33            2.8696    -0.4813     2.4721 H       
  34 H34            1.4166    -2.3491     4.3005 H       
  35 H35            1.8617     0.4287     5.8131 H       
  36 H36            3.3663     0.4653     7.7572 H       
  37 H37            6.6264    -0.7414     5.2510 H       
  38 H38            7.7575    -0.7175     6.6964 H       
  39 H39            9.2085    -0.6546     8.7115 H       
  40 H40            8.2349    -0.0216    10.8802 H       
  41 H41            4.4826     0.4965     9.1870 H       
@<TRIPOS>BOND
   1    1   20 1
   2    1   28 1
   3    1   29 1
   4    1   30 1
   5    2   23 ar
   6    2   15 1
   7    2   27 ar
   8    3    4 1
   9    4    5 ar
  10    4    9 ar
  11    5    6 ar
  12    5   10 1
  13    6    7 ar
  14    6   11 1
  15    7    8 ar
  16    7   31 1
  17    8    9 ar
  18    8   32 1
  19    9   19 1
  20   10   12 1
  21   10   33 1
  22   11   20 am
  23   11   34 1
  24   12   13 ar
  25   12   17 ar
  26   13   14 ar
  27   13   35 1
  28   14   15 ar
  29   14   36 1
  30   15   16 ar
  31   16   17 ar
  32   16   37 1
  33   17   18 1
  34   20   21 2
  35   20   22 2
  36   23   24 ar
  37   23   38 1
  38   24   25 ar
  39   24   39 1
  40   25   26 ar
  41   25   40 1
  42   26   27 ar
  43   27   41 1

#	End of record

