#	Name: ASD02198674
#	Creating user name:	WinNT
#	Creation time:	15. 06. 2019 20:19

#	Modifying user name:	WinNT
#	Modification time:	15. 06. 2019 20:19

#	Program:	/corina/corina34_cracker 3.40 0067  02.08.2006

@<TRIPOS>MOLECULE
ASD02198674
  50   54    0    0    0
SMALL
NO_CHARGES


@<TRIPOS>ATOM
   1 F1             2.4700    -1.9121     1.9839 F       
   2 C2            -0.0917     1.5700     0.0854 C.2     
   3 C3            -0.1561     0.2215     0.2208 C.2     
   4 N4             0.9565    -0.5394     0.1167 N.pl3   
   5 N5             2.1216    -0.0556    -0.1109 N.2     
   6 C6             2.3247     1.2357    -0.2627 C.2     
   7 C7             1.1749     2.1491    -0.1674 C.2     
   8 C8             0.8301    -1.9251     0.2653 C.ar    
   9 C9             1.5997    -2.5970     1.2102 C.ar    
  10 C10            1.4735    -3.9655     1.3562 C.ar    
  11 C11            0.5787    -4.6688     0.5599 C.ar    
  12 C12           -0.1895    -3.9968    -0.3835 C.ar    
  13 C13           -0.0681    -2.6298    -0.5265 C.ar    
  14 C14            3.6813     1.7584    -0.5234 C.2     
  15 N15            4.0627     2.5354    -1.5809 N.pl3   
  16 N16            5.4298     2.8054    -1.4408 N.2     
  17 C17            5.8645     2.2229    -0.3518 C.2     
  18 C18            4.7991     1.5595     0.2570 C.2     
  19 C19            3.2349     2.9818    -2.6189 C.ar    
  20 C20            3.3370     4.2887    -3.0773 C.ar    
  21 C21            2.5193     4.7258    -4.1008 C.ar    
  22 C22            1.5995     3.8636    -4.6691 C.ar    
  23 C23            1.4951     2.5618    -4.2146 C.ar    
  24 C24            2.3142     2.1168    -3.1955 C.ar    
  25 O25            1.3081     3.3567    -0.3004 O.2     
  26 N26            0.4512    -6.0521     0.7070 N.3     
  27 C27           -0.0229    -6.4010     2.0710 C.3     
  28 C28            1.7720    -6.7232     0.5969 C.3     
  29 C29            1.5746    -8.0871     1.2927 C.3     
  30 C30            0.3938    -7.8751     2.2624 C.3     
  31 F31            1.2589    -9.0720     0.3506 F       
  32 F32            2.7274    -8.4425     2.0011 F       
  33 F33            0.8027    -8.0971     3.5818 F       
  34 F34           -0.6658    -8.7265     1.9313 F       
  35 H35           -0.9786     2.1812     0.1635 H       
  36 H36           -1.1082    -0.2500     0.4145 H       
  37 H37            2.0706    -4.4879     2.0890 H       
  38 H38           -0.8850    -4.5444    -1.0023 H       
  39 H39           -0.6658    -2.1085    -1.2597 H       
  40 H40            6.8793     2.2540     0.0162 H       
  41 H41            4.8439     0.9874     1.1719 H       
  42 H42            4.0549     4.9626    -2.6336 H       
  43 H43            2.5980     5.7421    -4.4575 H       
  44 H44            0.9612     4.2078    -5.4694 H       
  45 H45            0.7753     1.8910    -4.6599 H       
  46 H46            2.2321     1.1000    -2.8409 H       
  47 H47            0.4620    -5.7692     2.8152 H       
  48 H48           -1.1065    -6.3010     2.1340 H       
  49 H49            2.0399    -6.8657    -0.4500 H       
  50 H50            2.5378    -6.1418     1.1104 H       
@<TRIPOS>BOND
   1    1    9 1
   2    2    3 2
   3    2    7 1
   4    2   35 1
   5    3    4 1
   6    3   36 1
   7    4    5 1
   8    4    8 1
   9    5    6 2
  10    6    7 1
  11    6   14 1
  12    7   25 2
  13    8    9 ar
  14    8   13 ar
  15    9   10 ar
  16   10   11 ar
  17   10   37 1
  18   11   12 ar
  19   11   26 1
  20   12   13 ar
  21   12   38 1
  22   13   39 1
  23   14   15 1
  24   14   18 2
  25   15   16 1
  26   15   19 1
  27   16   17 2
  28   17   18 1
  29   17   40 1
  30   18   41 1
  31   19   20 ar
  32   19   24 ar
  33   20   21 ar
  34   20   42 1
  35   21   22 ar
  36   21   43 1
  37   22   23 ar
  38   22   44 1
  39   23   24 ar
  40   23   45 1
  41   24   46 1
  42   26   28 1
  43   26   27 1
  44   27   30 1
  45   27   47 1
  46   27   48 1
  47   28   29 1
  48   28   49 1
  49   28   50 1
  50   29   30 1
  51   29   31 1
  52   29   32 1
  53   30   33 1
  54   30   34 1

#	End of record

