#	Name: ASD03240569
#	Creating user name:	WinNT
#	Creation time:	15. 06. 2019 20:35

#	Modifying user name:	WinNT
#	Modification time:	15. 06. 2019 20:35

#	Program:	/corina/corina34_cracker 3.40 0067  02.08.2006

@<TRIPOS>MOLECULE
ASD03240569
  78   86    0    0    0
SMALL
NO_CHARGES


@<TRIPOS>ATOM
   1 C1            -0.0798     1.6672     0.1526 C.ar    
   2 C2            -0.1425     0.2941     0.2719 C.ar    
   3 N3             0.9564    -0.4349     0.3183 N.ar    
   4 C4             2.1631     0.1116     0.2537 C.ar    
   5 C5             2.3006     1.4916     0.1181 C.ar    
   6 C6             1.1614     2.2849     0.0732 C.ar    
   7 N7             3.2842    -0.7087     0.3440 N.pl3   
   8 C8             4.1774    -0.5761     1.4035 C.ar    
   9 C9             4.8870     0.6149     1.5907 C.ar    
  10 C10            4.7165     1.7389     0.6437 C.2     
  11 N11            3.5617     2.0944     0.0086 N.pl3   
  12 C12            4.3662    -1.6319     2.2855 C.ar    
  13 C13            5.2416    -1.4991     3.3463 C.ar    
  14 C14            5.9355    -0.3170     3.5392 C.ar    
  15 C15            5.7635     0.7400     2.6682 C.ar    
  16 N16            5.6772     2.5636     0.2790 N.2     
  17 C17            5.1950     3.4640    -0.5936 C.2     
  18 C18            3.8502     3.1870    -0.7848 C.2     
  19 C19            2.9137     3.9145    -1.6618 C.ar    
  20 C20            2.7465     5.2946    -1.5191 C.ar    
  21 C21            2.1937     3.2280    -2.6432 C.ar    
  22 C22            1.3198     3.9149    -3.4595 C.ar    
  23 C23            1.1554     5.2807    -3.3089 C.ar    
  24 C24            1.8690     5.9681    -2.3427 C.ar    
  25 C25            5.9594     4.5520    -1.2337 C.2     
  26 C26            0.1989     6.0242    -4.2053 C.3     
  27 N27           -0.7989     5.1447    -4.8290 N.3     
  28 C28           -0.4069     7.2787    -3.5541 C.3     
  29 C29           -0.2401     7.9708    -4.9172 C.3     
  30 C30            0.8944     6.9691    -5.1994 C.3     
  31 N31            5.7895     4.9872    -2.5298 N.pl3   
  32 C32            6.6677     6.0158    -2.7950 C.ar    
  33 C33            7.4204     6.2403    -1.6264 C.ar    
  34 C34            6.9345     5.2822    -0.6344 C.2     
  35 C35            6.9090     6.7944    -3.9214 C.ar    
  36 C36            7.8814     7.7765    -3.8820 C.ar    
  37 C37            8.6224     7.9934    -2.7227 C.ar    
  38 C38            8.3994     7.2387    -1.6070 C.ar    
  39 O39            8.1166     8.5367    -4.9842 O.3     
  40 C40            9.1341     9.5344    -4.8791 C.3     
  41 C41            9.2522    10.2714    -6.1883 C.ar    
  42 C42            8.4904    11.4022    -6.4160 C.ar    
  43 C43           10.1263     9.8198    -7.1593 C.ar    
  44 C44           10.2346    10.4958    -8.3602 C.ar    
  45 C45            9.4684    11.6231    -8.5903 C.ar    
  46 C46            8.5986    12.0782    -7.6170 C.ar    
  47 H47           -0.9856     2.2544     0.1170 H       
  48 H48           -1.1055    -0.1914     0.3286 H       
  49 H49            1.2392     3.3579    -0.0217 H       
  50 H50            3.4444    -1.3796    -0.3380 H       
  51 H51            3.8281    -2.5573     2.1424 H       
  52 H52            5.3852    -2.3230     4.0297 H       
  53 H53            6.6139    -0.2213     4.3741 H       
  54 H54            6.3062     1.6612     2.8207 H       
  55 H55            3.3027     5.8323    -0.7655 H       
  56 H56            2.3215     2.1622    -2.7623 H       
  57 H57            0.7626     3.3857    -4.2184 H       
  58 H58            1.7357     7.0340    -2.2310 H       
  59 H59           -0.3574     4.3488    -5.2646 H       
  60 H60           -1.4922     4.8510    -4.1573 H       
  61 H61           -1.4467     7.1547    -3.2517 H       
  62 H62            0.2155     7.7064    -2.7681 H       
  63 H63           -1.1003     7.8512    -5.5758 H       
  64 H64            0.0974     9.0046    -4.8435 H       
  65 H65            1.8731     7.3117    -4.8635 H       
  66 H66            0.9037     6.5973    -6.2241 H       
  67 H67            5.1486     4.6240    -3.1609 H       
  68 H68            7.2887     5.1717     0.3798 H       
  69 H69            6.3390     6.6322    -4.8243 H       
  70 H70            9.3788     8.7641    -2.7063 H       
  71 H71            8.9775     7.4125    -0.7114 H       
  72 H72            8.8730    10.2379    -4.0885 H       
  73 H73           10.0861     9.0591    -4.6426 H       
  74 H74            7.8104    11.7574    -5.6558 H       
  75 H75           10.7250     8.9390    -6.9795 H       
  76 H76           10.9181    10.1434    -9.1185 H       
  77 H77            9.5532    12.1514    -9.5284 H       
  78 H78            8.0000    12.9589    -7.7968 H       
@<TRIPOS>BOND
   1    1    2 ar
   2    1    6 ar
   3    1   47 1
   4    2    3 ar
   5    2   48 1
   6    3    4 ar
   7    4    5 ar
   8    4    7 1
   9    5    6 ar
  10    5   11 1
  11    6   49 1
  12    7    8 1
  13    7   50 1
  14    8    9 ar
  15    8   12 ar
  16    9   10 1
  17    9   15 ar
  18   10   11 1
  19   10   16 2
  20   11   18 1
  21   12   13 ar
  22   12   51 1
  23   13   14 ar
  24   13   52 1
  25   14   15 ar
  26   14   53 1
  27   15   54 1
  28   16   17 1
  29   17   18 2
  30   17   25 1
  31   18   19 1
  32   19   20 ar
  33   19   21 ar
  34   20   24 ar
  35   20   55 1
  36   21   22 ar
  37   21   56 1
  38   22   23 ar
  39   22   57 1
  40   23   24 ar
  41   23   26 1
  42   24   58 1
  43   25   31 1
  44   25   34 2
  45   26   27 1
  46   26   28 1
  47   26   30 1
  48   27   59 1
  49   27   60 1
  50   28   29 1
  51   28   61 1
  52   28   62 1
  53   29   30 1
  54   29   63 1
  55   29   64 1
  56   30   65 1
  57   30   66 1
  58   31   32 1
  59   31   67 1
  60   32   33 ar
  61   32   35 ar
  62   33   34 1
  63   33   38 ar
  64   34   68 1
  65   35   36 ar
  66   35   69 1
  67   36   37 ar
  68   36   39 1
  69   37   38 ar
  70   37   70 1
  71   38   71 1
  72   39   40 1
  73   40   41 1
  74   40   72 1
  75   40   73 1
  76   41   42 ar
  77   41   43 ar
  78   42   46 ar
  79   42   74 1
  80   43   44 ar
  81   43   75 1
  82   44   45 ar
  83   44   76 1
  84   45   46 ar
  85   45   77 1
  86   46   78 1

#	End of record

