#	Name: ASD04560048
#	Creating user name:	WinNT
#	Creation time:	15. 06. 2019 20:49

#	Modifying user name:	WinNT
#	Modification time:	15. 06. 2019 20:49

#	Program:	/corina/corina34_cracker 3.40 0067  02.08.2006

@<TRIPOS>MOLECULE
ASD04560048
  49   52    0    0    0
SMALL
NO_CHARGES


@<TRIPOS>ATOM
   1 C1            -0.0598     1.3512    -0.4289 C.ar    
   2 C2            -0.1080    -0.0177    -0.4831 C.ar    
   3 C3             1.0482    -0.7657    -0.2729 C.ar    
   4 C4             2.2564    -0.1255    -0.0067 C.ar    
   5 C5             2.3108     1.2432     0.0487 C.ar    
   6 C6             1.1518     1.9968    -0.1623 C.ar    
   7 C7             1.2071     3.4691    -0.1039 C.2     
   8 O8             2.2614     4.0293     0.1280 O.2     
   9 N9             0.0894     4.1941    -0.3075 N.am    
  10 C10            0.1161     5.5833    -0.1400 C.ar    
  11 C11           -0.6585     6.3971    -0.9561 C.ar    
  12 C12            0.9380     7.5207     1.0099 C.ar    
  13 C13            0.9131     6.1495     0.8463 C.ar    
  14 F14            0.1951     9.6718     0.3528 F       
  15 S15            0.9822    -2.5250    -0.3433 S.3     
  16 C16           -0.6306     7.7678    -0.7892 C.ar    
  17 C17            0.1692     8.3307     0.1912 C.ar    
  18 C18            2.8082    -4.5141    -0.0376 C.2     
  19 C19            2.7528    -5.4090     1.0507 C.2     
  20 C20            2.6979    -3.0114    -0.0112 C.3     
  21 C21            2.9912    -5.3275    -1.1225 C.2     
  22 O22            3.0318    -6.5843    -0.6451 O.3     
  23 N23            2.8982    -6.6054     0.5563 N.2     
  24 C24            2.5627    -5.0512     2.5022 C.3     
  25 C25            3.1184    -4.9093    -2.5348 C.ar    
  26 C26            4.0095    -3.8949    -2.8879 C.ar    
  27 C27            4.1236    -3.5097    -4.2077 C.ar    
  28 C28            3.3571    -4.1267    -5.1803 C.ar    
  29 C29            2.4716    -5.1327    -4.8370 C.ar    
  30 C30            2.3520    -5.5313    -3.5216 C.ar    
  31 H31           -0.9556     1.9308    -0.5964 H       
  32 H32           -1.0435    -0.5168    -0.6886 H       
  33 H33            3.1511    -0.7080     0.1565 H       
  34 H34            3.2478     1.7390     0.2555 H       
  35 H35           -0.7337     3.7530    -0.5701 H       
  36 H36           -1.2821     5.9585    -1.7211 H       
  37 H37            1.5577     7.9614     1.7768 H       
  38 H38            1.5126     5.5181     1.4852 H       
  39 H39           -1.2326     8.4011    -1.4239 H       
  40 H40            3.3503    -2.5858    -0.7737 H       
  41 H41            2.9968    -2.6423     0.9699 H       
  42 H42            1.4985    -5.0413     2.7376 H       
  43 H43            3.0662    -5.7888     3.1272 H       
  44 H44            2.9859    -4.0647     2.6918 H       
  45 H45            4.6081    -3.4123    -2.1295 H       
  46 H46            4.8126    -2.7246    -4.4822 H       
  47 H47            3.4503    -3.8215    -6.2121 H       
  48 H48            1.8758    -5.6101    -5.6009 H       
  49 H49            1.6606    -6.3169    -3.2548 H       
@<TRIPOS>BOND
   1    1    2 ar
   2    1    6 ar
   3    1   31 1
   4    2    3 ar
   5    2   32 1
   6    3    4 ar
   7    3   15 1
   8    4    5 ar
   9    4   33 1
  10    5    6 ar
  11    5   34 1
  12    6    7 1
  13    7    8 2
  14    7    9 am
  15    9   10 1
  16    9   35 1
  17   10   11 ar
  18   10   13 ar
  19   11   16 ar
  20   11   36 1
  21   12   13 ar
  22   12   17 ar
  23   12   37 1
  24   13   38 1
  25   14   17 1
  26   15   20 1
  27   16   17 ar
  28   16   39 1
  29   18   21 2
  30   18   19 1
  31   18   20 1
  32   19   24 1
  33   19   23 2
  34   20   40 1
  35   20   41 1
  36   21   22 1
  37   21   25 1
  38   22   23 1
  39   24   42 1
  40   24   43 1
  41   24   44 1
  42   25   26 ar
  43   25   30 ar
  44   26   27 ar
  45   26   45 1
  46   27   28 ar
  47   27   46 1
  48   28   29 ar
  49   28   47 1
  50   29   30 ar
  51   29   48 1
  52   30   49 1

#	End of record

