#	Name: ASD02590016
#	Creating user name:	WinNT
#	Creation time:	15. 06. 2019 20:25

#	Modifying user name:	WinNT
#	Modification time:	15. 06. 2019 20:25

#	Program:	/corina/corina34_cracker 3.40 0067  02.08.2006

@<TRIPOS>MOLECULE
ASD02590016
  24   26    0    0    0
SMALL
NO_CHARGES


@<TRIPOS>ATOM
   1 C1            -0.0168     1.3856     0.0097 C.ar    
   2 C2             0.0021    -0.0041     0.0020 C.ar    
   3 C3            -1.1766    -0.7190     0.0099 C.ar    
   4 C4            -2.3918    -0.0488     0.0256 C.ar    
   5 C5            -2.4182     1.3577     0.0334 C.ar    
   6 C6            -1.2131     2.0684     0.0305 C.ar    
   7 N7            -3.7108    -0.4584     0.0369 N.pl3   
   8 C8            -4.4848     0.6703     0.0509 C.2     
   9 N9            -3.7193     1.7333     0.0487 N.2     
  10 C10           -5.9645     0.6872     0.0657 C.ar    
  11 C11           -6.6420     1.9055     0.0793 C.ar    
  12 C12           -8.0267     1.9050     0.0926 C.ar    
  13 C13           -8.6884     0.6859     0.0920 C.ar    
  14 C14           -7.9524    -0.4862     0.0781 C.ar    
  15 N15           -6.6364    -0.4582     0.0605 N.ar    
  16 F16            1.1469     2.0720     0.0022 F       
  17 H17            0.9467    -0.5275    -0.0105 H       
  18 H18           -1.1544    -1.7988     0.0035 H       
  19 H19           -1.2208     3.1484     0.0368 H       
  20 H20           -4.0291    -1.3746     0.0348 H       
  21 H21           -6.0946     2.8365     0.0797 H       
  22 H22           -8.5790     2.8330     0.1036 H       
  23 H23           -9.7678     0.6516     0.1025 H       
  24 H24           -8.4649    -1.4369     0.0780 H       
@<TRIPOS>BOND
   1    1    2 ar
   2    1   16 1
   3    1    6 ar
   4    2    3 ar
   5    2   17 1
   6    3    4 ar
   7    3   18 1
   8    4    5 ar
   9    4    7 1
  10    5    6 ar
  11    5    9 1
  12    6   19 1
  13    7    8 1
  14    7   20 1
  15    8    9 2
  16    8   10 1
  17   10   11 ar
  18   10   15 ar
  19   11   12 ar
  20   11   21 1
  21   12   13 ar
  22   12   22 1
  23   13   14 ar
  24   13   23 1
  25   14   15 ar
  26   14   24 1

#	End of record

