#	Name: ASD01680134
#	Creating user name:	WinNT
#	Creation time:	15. 06. 2019 19:22

#	Modifying user name:	WinNT
#	Modification time:	15. 06. 2019 19:22

#	Program:	/corina/corina34_cracker 3.40 0067  02.08.2006

@<TRIPOS>MOLECULE
ASD01680134
  78   81    0    0    0
SMALL
NO_CHARGES


@<TRIPOS>ATOM
   1 N1            -0.0967     1.4811     0.1016 N.am    
   2 C2            -0.0449     0.0161    -0.0111 C.3     
   3 C3             1.4400    -0.3805    -0.1501 C.3     
   4 C4             2.1835     0.8371     0.4599 C.3     
   5 C5             1.2763     2.0109     0.0137 C.3     
   6 C6            -1.2147     2.2182     0.2541 C.2     
   7 O7            -2.3049     1.6827     0.2191 O.2     
   8 O8            -1.1237     3.5478     0.4451 O.3     
   9 C9            -0.8229    -0.4385    -1.2476 C.3     
  10 N10           -0.8626    -1.9023    -1.2887 N.pl3   
  11 C11           -1.6022    -2.5502    -2.2712 C.ar    
  12 C12           -2.3025    -1.8024    -3.2127 C.ar    
  13 C13           -3.0343    -2.4600    -4.1846 C.ar    
  14 C14           -3.0414    -3.8488    -4.1827 C.ar    
  15 C15           -2.3237    -4.5273    -3.2185 C.ar    
  16 N16           -1.6298    -3.8735    -2.3061 N.ar    
  17 O17            2.2364     0.7437     1.8848 O.3     
  18 C18            3.3873     1.3605     2.4654 C.3     
  19 C19            3.3400     1.2026     3.9634 C.2     
  20 N20            4.3289     1.7096     4.7260 N.am    
  21 O21            2.4121     0.6192     4.4826 O.2     
  22 C22            4.2829     1.5560     6.1822 C.3     
  23 C23            5.5151     2.2165     6.8038 C.3     
  24 N24            5.5943     3.6122     6.3658 N.am    
  25 C25            6.7842     4.2448     6.3427 C.2     
  26 O26            7.7894     3.6585     6.6846 O.2     
  27 C27            6.8657     5.6805     5.8921 C.3     
  28 C28            8.2969     6.1476     5.9592 C.ar    
  29 C29            9.1248     5.9982     4.8622 C.ar    
  30 C30           10.4377     6.4266     4.9237 C.ar    
  31 C31           10.9225     7.0048     6.0820 C.ar    
  32 C32           10.0944     7.1550     7.1786 C.ar    
  33 C33            8.7803     6.7305     7.1156 C.ar    
  34 C34           -2.3689     4.2781     0.6016 C.3     
  35 C35           -2.0709     5.7414     0.8040 C.ar    
  36 C36           -1.9815     6.5859    -0.2868 C.ar    
  37 C37           -1.7082     7.9281    -0.1012 C.ar    
  38 C38           -1.5248     8.4261     1.1753 C.ar    
  39 C39           -1.6151     7.5818     2.2661 C.ar    
  40 C40           -1.8927     6.2404     2.0808 C.ar    
  41 C41            5.4076     2.1668     8.3061 C.2     
  42 O42            5.3224     0.9835     8.9341 O.3     
  43 O43            5.3981     3.1921     8.9454 O.2     
  44 H44           -0.4682    -0.4397     0.8840 H       
  45 H45            1.6521    -1.2861     0.4182 H       
  46 H46            1.7080    -0.5103    -1.1986 H       
  47 H47            3.1841     0.9349     0.0389 H       
  48 H48            1.5065     2.2997    -1.0118 H       
  49 H49            1.3985     2.8611     0.6848 H       
  50 H50           -1.8397    -0.0485    -1.2009 H       
  51 H51           -0.3307    -0.0631    -2.1448 H       
  52 H52           -0.3728    -2.4195    -0.6302 H       
  53 H53           -2.2752    -0.7231    -3.1846 H       
  54 H54           -3.5880    -1.9060    -4.9282 H       
  55 H55           -3.6032    -4.3924    -4.9279 H       
  56 H56           -2.3266    -5.6073    -3.2134 H       
  57 H57            4.2885     0.8852     2.0782 H       
  58 H58            3.3981     2.4206     2.2120 H       
  59 H59            5.0710     2.1762     4.3107 H       
  60 H60            3.3817     2.0314     6.5694 H       
  61 H61            4.2721     0.4960     6.4356 H       
  62 H62            6.4118     1.6845     6.4859 H       
  63 H63            4.7904     4.0811     6.0923 H       
  64 H64            6.5050     5.7606     4.8667 H       
  65 H65            6.2501     6.3012     6.5433 H       
  66 H66            8.7460     5.5465     3.9573 H       
  67 H67           11.0847     6.3092     4.0670 H       
  68 H68           11.9484     7.3388     6.1302 H       
  69 H69           10.4733     7.6064     8.0836 H       
  70 H70            8.1323     6.8513     7.9711 H       
  71 H71           -2.9790     4.1518    -0.2927 H       
  72 H72           -2.9089     3.8942     1.4671 H       
  73 H73           -2.1248     6.1968    -1.2840 H       
  74 H74           -1.6376     8.5877    -0.9534 H       
  75 H75           -1.3105     9.4746     1.3203 H       
  76 H76           -1.4715     7.9708     3.2634 H       
  77 H77           -1.9670     5.5815     2.9333 H       
  78 H78            5.2551     1.0022     9.8986 H       
@<TRIPOS>BOND
   1    1    2 1
   2    1    5 1
   3    1    6 am
   4    2    3 1
   5    2    9 1
   6    2   44 1
   7    3    4 1
   8    3   45 1
   9    3   46 1
  10    4    5 1
  11    4   17 1
  12    4   47 1
  13    5   48 1
  14    5   49 1
  15    6    7 2
  16    6    8 1
  17    8   34 1
  18    9   10 1
  19    9   50 1
  20    9   51 1
  21   10   11 1
  22   10   52 1
  23   11   12 ar
  24   11   16 ar
  25   12   13 ar
  26   12   53 1
  27   13   14 ar
  28   13   54 1
  29   14   15 ar
  30   14   55 1
  31   15   16 ar
  32   15   56 1
  33   17   18 1
  34   18   19 1
  35   18   57 1
  36   18   58 1
  37   19   20 am
  38   19   21 2
  39   20   22 1
  40   20   59 1
  41   22   23 1
  42   22   60 1
  43   22   61 1
  44   23   24 1
  45   23   41 1
  46   23   62 1
  47   24   25 am
  48   24   63 1
  49   25   26 2
  50   25   27 1
  51   27   28 1
  52   27   64 1
  53   27   65 1
  54   28   29 ar
  55   28   33 ar
  56   29   30 ar
  57   29   66 1
  58   30   31 ar
  59   30   67 1
  60   31   32 ar
  61   31   68 1
  62   32   33 ar
  63   32   69 1
  64   33   70 1
  65   34   35 1
  66   34   71 1
  67   34   72 1
  68   35   36 ar
  69   35   40 ar
  70   36   37 ar
  71   36   73 1
  72   37   38 ar
  73   37   74 1
  74   38   39 ar
  75   38   75 1
  76   39   40 ar
  77   39   76 1
  78   40   77 1
  79   41   42 1
  80   41   43 2
  81   42   78 1

#	End of record

