#	Name: ASD01411024
#	Creating user name:	WinNT
#	Creation time:	15. 06. 2019 19:19

#	Modifying user name:	WinNT
#	Modification time:	15. 06. 2019 19:19

#	Program:	/corina/corina34_cracker 3.40 0067  02.08.2006

@<TRIPOS>MOLECULE
ASD01411024
 101  109    0    0    0
SMALL
NO_CHARGES


@<TRIPOS>ATOM
   1 C1            -3.6690     2.4237     2.2169 C.ar    
   2 C2            -3.2043     1.2088     2.7635 C.ar    
   3 C3            -4.0246     0.0844     2.7637 C.ar    
   4 C4            -5.2800     0.1519     2.2361 C.ar    
   5 C5            -5.7593     1.3510     1.6878 C.ar    
   6 C6            -4.9598     2.4869     1.6815 C.ar    
   7 N7            -2.6803     3.3259     2.3508 N.2     
   8 C8            -1.6490     2.7675     2.9331 C.2     
   9 N9            -1.9276     1.4535     3.2080 N.pl3   
  10 C10           -1.0321     0.4910     3.8545 C.3     
  11 C11           -1.6497     0.0273     5.1753 C.3     
  12 C12           -0.7144    -0.9779     5.8505 C.3     
  13 C13           -0.5123    -2.1838     4.9308 C.3     
  14 C14            0.1053    -1.7201     3.6100 C.3     
  15 C15           -0.8300    -0.7149     2.9349 C.3     
  16 C16           -7.1216     1.4072     1.1197 C.2     
  17 O17           -7.5394     2.4450     0.6439 O.2     
  18 N18           -7.9014     0.3081     1.1288 N.am    
  19 C19           -9.2899     0.3912     0.6690 C.3     
  20 C20           -9.4042     0.8068    -0.7751 C.2     
  21 O21          -10.3519     1.4683    -1.1425 O.2     
  22 C22           -0.3763     3.4506     3.2466 C.2     
  23 C23          -10.1309    -0.8469     1.0221 C.3     
  24 C24          -11.2818     0.1226     1.3390 C.3     
  25 C25          -10.2050     1.1881     1.6136 C.3     
  26 N26           -8.4532     0.4433    -1.6582 N.am    
  27 C27           -8.5809     0.7906    -3.0029 C.ar    
  28 C28           -8.1711    -0.0995    -3.9912 C.ar    
  29 C29           -8.2948     0.2391    -5.3193 C.ar    
  30 C30           -8.8344     1.4810    -5.6756 C.ar    
  31 C31           -9.2458     2.3730    -4.6779 C.ar    
  32 C32           -9.1231     2.0238    -3.3525 C.ar    
  33 C33           -8.9681     1.8472    -7.0923 C.2     
  34 C34           -9.4891     3.0461    -7.4338 C.2     
  35 O35            0.4794     2.8759     3.8912 O.2     
  36 C36           -0.1444     4.8296     2.7775 C.ar    
  37 C37            1.1063     5.4201     2.9464 C.ar    
  38 C38            1.3160     6.7240     2.4992 C.ar    
  39 C39            0.2610     7.4248     1.8837 C.ar    
  40 C40           -0.9808     6.8191     1.7237 C.ar    
  41 C41           -1.1819     5.5413     2.1573 C.ar    
  42 N42            2.3906     7.5526     2.5175 N.2     
  43 C43            2.0712     8.6969     1.9633 C.2     
  44 N44            0.7640     8.6661     1.5555 N.pl3   
  45 C45            0.0355     9.7506     0.8926 C.3     
  46 C46           -0.3159     9.3451    -0.5495 C.3     
  47 C47           -1.8549     9.3704    -0.6519 C.3     
  48 C48           -2.2946    10.3390     0.4740 C.3     
  49 C49           -1.3023    10.0081     1.6164 C.3     
  50 C50            2.9842     9.8474     1.8032 C.2     
  51 C51            4.4444     9.8065     1.6482 C.2     
  52 C52            4.8406    11.0845     1.5363 C.2     
  53 O53            3.7658    11.8847     1.6087 O.3     
  54 C54            2.6465    11.1659     1.7626 C.2     
  55 C55           -9.6181     3.3995    -8.8008 C.2     
  56 O56           -9.2597     2.6232    -9.6662 O.2     
  57 O57          -10.1384     4.5968    -9.1419 O.3     
  58 H58           -3.6657    -0.8441     3.1825 H       
  59 H59           -5.9105    -0.7249     2.2400 H       
  60 H60           -5.3292     3.4099     1.2596 H       
  61 H61           -0.0699     0.9644     4.0498 H       
  62 H62           -1.7937     0.8864     5.8305 H       
  63 H63           -2.6119    -0.4461     4.9801 H       
  64 H64            0.2478    -0.5045     6.0457 H       
  65 H65           -1.1544    -1.3083     6.7914 H       
  66 H66            0.1540    -2.8999     5.4118 H       
  67 H67           -1.4745    -2.6572     4.7356 H       
  68 H68            1.0675    -1.2467     3.8053 H       
  69 H69            0.2493    -2.5792     2.9548 H       
  70 H70           -1.7922    -1.1883     2.7396 H       
  71 H71           -0.3900    -0.3846     1.9939 H       
  72 H72           -7.5434    -0.5381     1.4399 H       
  73 H73          -10.3298    -1.4971     0.1702 H       
  74 H74           -9.7646    -1.3895     1.8936 H       
  75 H75          -11.9102     0.3506     0.4780 H       
  76 H76          -11.8569    -0.1561     2.2220 H       
  77 H77           -9.8585     1.2024     2.6470 H       
  78 H78          -10.4652     2.1783     1.2396 H       
  79 H79           -7.6799    -0.0598    -1.3586 H       
  80 H80           -7.7550    -1.0572    -3.7154 H       
  81 H81           -7.9759    -0.4520    -6.0855 H       
  82 H82           -9.6622     3.3321    -4.9481 H       
  83 H83           -9.4405     2.7111    -2.5822 H       
  84 H84           -8.6500     1.1581    -7.8606 H       
  85 H85           -9.8072     3.7352    -6.6656 H       
  86 H86            1.9072     4.8721     3.4204 H       
  87 H87           -1.7871     7.3606     1.2514 H       
  88 H88           -2.1487     5.0775     2.0293 H       
  89 H89            0.6395    10.6580     0.8887 H       
  90 H90            0.1168    10.0562    -1.2533 H       
  91 H91            0.0556     8.3414    -0.7562 H       
  92 H92           -2.1664     9.7501    -1.6250 H       
  93 H93           -2.2651     8.3751    -0.4806 H       
  94 H94           -2.1857    11.3758     0.1560 H       
  95 H95           -3.3200    10.1338     0.7816 H       
  96 H96           -1.6232     9.1159     2.1539 H       
  97 H97           -1.2104    10.8533     2.2986 H       
  98 H98            5.0716     8.9275     1.6282 H       
  99 H99            5.8607    11.4154     1.4091 H       
 100 H100           1.6464    11.5647     1.8470 H       
 101 H101         -10.1862     4.7475   -10.0959 H       
@<TRIPOS>BOND
   1    1    2 ar
   2    1    7 1
   3    1    6 ar
   4    2    3 ar
   5    2    9 1
   6    3    4 ar
   7    3   58 1
   8    4    5 ar
   9    4   59 1
  10    5    6 ar
  11    5   16 1
  12    6   60 1
  13    7    8 2
  14    8    9 1
  15    8   22 1
  16    9   10 1
  17   10   11 1
  18   10   15 1
  19   10   61 1
  20   11   12 1
  21   11   62 1
  22   11   63 1
  23   12   13 1
  24   12   64 1
  25   12   65 1
  26   13   14 1
  27   13   66 1
  28   13   67 1
  29   14   15 1
  30   14   68 1
  31   14   69 1
  32   15   70 1
  33   15   71 1
  34   16   17 2
  35   16   18 am
  36   18   19 1
  37   18   72 1
  38   19   20 1
  39   19   23 1
  40   19   25 1
  41   20   21 2
  42   20   26 am
  43   22   35 2
  44   22   36 1
  45   23   24 1
  46   23   73 1
  47   23   74 1
  48   24   25 1
  49   24   75 1
  50   24   76 1
  51   25   77 1
  52   25   78 1
  53   26   27 1
  54   26   79 1
  55   27   28 ar
  56   27   32 ar
  57   28   29 ar
  58   28   80 1
  59   29   30 ar
  60   29   81 1
  61   30   31 ar
  62   30   33 1
  63   31   32 ar
  64   31   82 1
  65   32   83 1
  66   33   34 2
  67   33   84 1
  68   34   55 1
  69   34   85 1
  70   36   37 ar
  71   36   41 ar
  72   37   38 ar
  73   37   86 1
  74   38   39 ar
  75   38   42 1
  76   39   40 ar
  77   39   44 1
  78   40   41 ar
  79   40   87 1
  80   41   88 1
  81   42   43 2
  82   43   44 1
  83   43   50 1
  84   44   45 1
  85   45   46 1
  86   45   49 1
  87   45   89 1
  88   46   47 1
  89   46   90 1
  90   46   91 1
  91   47   48 1
  92   47   92 1
  93   47   93 1
  94   48   49 1
  95   48   94 1
  96   48   95 1
  97   49   96 1
  98   49   97 1
  99   50   51 1
 100   50   54 2
 101   51   52 2
 102   51   98 1
 103   52   53 1
 104   52   99 1
 105   53   54 1
 106   54  100 1
 107   55   56 2
 108   55   57 1
 109   57  101 1

#	End of record

