#	Name: ASD00170074
#	Creating user name:	WinNT
#	Creation time:	15. 06. 2019 18:31

#	Modifying user name:	WinNT
#	Modification time:	15. 06. 2019 18:31

#	Program:	/corina/corina34_cracker 3.40 0067  02.08.2006

@<TRIPOS>MOLECULE
ASD00170074
  45   48    0    0    0
SMALL
NO_CHARGES


@<TRIPOS>ATOM
   1 C1            -0.0111     1.3386    -0.1036 C.2     
   2 C2             0.0143     0.0007    -0.1308 C.2     
   3 C3            -1.3043    -0.5833     0.0237 C.2     
   4 C4            -2.2970     0.3542     0.1642 C.2     
   5 S5            -1.6484     1.9282     0.1176 S.3     
   6 C6             1.2251     2.2056    -0.2411 C.3     
   7 N7             2.4121     1.3706    -0.0046 N.3     
   8 C8             2.3784     0.1599    -0.8375 C.3     
   9 C9             1.3009    -0.7910    -0.3073 C.3     
  10 N10           -3.6360     0.0615     0.3256 N.pl3   
  11 C11           -1.5513    -2.0250     0.0285 C.2     
  12 C12           -1.5544    -2.7705     1.3057 C.ar    
  13 C13            3.6464     2.1333    -0.2340 C.3     
  14 C14            3.7630     3.2233     0.8001 C.ar    
  15 C15            4.4123     2.9757     1.9951 C.ar    
  16 C16            4.5192     3.9756     2.9436 C.ar    
  17 C17            3.9771     5.2231     2.6970 C.ar    
  18 C18            3.3287     5.4709     1.5016 C.ar    
  19 C19            3.2256     4.4724     0.5513 C.ar    
  20 C20           -1.8834    -4.1269     1.3244 C.ar    
  21 C21           -1.8847    -4.8175     2.5183 C.ar    
  22 C22           -1.5606    -4.1683     3.6975 C.ar    
  23 C23           -1.2333    -2.8211     3.6860 C.ar    
  24 C24           -1.2226    -2.1216     2.4965 C.ar    
  25 O25           -1.7545    -2.6114    -1.0192 O.2     
  26 Cl26          -1.5645    -5.0443     5.1963 Cl      
  27 Cl27          -0.8293    -2.0146     5.1693 Cl      
  28 H28            1.2675     2.6256    -1.2461 H       
  29 H29            1.1914     3.0102     0.4934 H       
  30 H30            2.1472     0.4330    -1.8671 H       
  31 H31            3.3495    -0.3339    -0.8010 H       
  32 H32            1.6133    -1.2024     0.6525 H       
  33 H33            1.1409    -1.5998    -1.0203 H       
  34 H34           -3.9423    -0.8569     0.2661 H       
  35 H35           -4.2709     0.7742     0.4985 H       
  36 H36            4.5052     1.4664    -0.1573 H       
  37 H37            3.6193     2.5777    -1.2290 H       
  38 H38            4.8357     2.0011     2.1877 H       
  39 H39            5.0258     3.7819     3.8776 H       
  40 H40            4.0600     6.0040     3.4384 H       
  41 H41            2.9049     6.4455     1.3091 H       
  42 H42            2.7189     4.6660    -0.3827 H       
  43 H43           -2.1368    -4.6347     0.4055 H       
  44 H44           -2.1396    -5.8669     2.5335 H       
  45 H45           -0.9677    -1.0721     2.4881 H       
@<TRIPOS>BOND
   1    1    2 2
   2    1    6 1
   3    1    5 1
   4    2    3 1
   5    2    9 1
   6    3    4 2
   7    3   11 1
   8    4    5 1
   9    4   10 1
  10    6    7 1
  11    6   28 1
  12    6   29 1
  13    7    8 1
  14    7   13 1
  15    8    9 1
  16    8   30 1
  17    8   31 1
  18    9   32 1
  19    9   33 1
  20   10   34 1
  21   10   35 1
  22   11   12 1
  23   11   25 2
  24   12   20 ar
  25   12   24 ar
  26   13   14 1
  27   13   36 1
  28   13   37 1
  29   14   15 ar
  30   14   19 ar
  31   15   16 ar
  32   15   38 1
  33   16   17 ar
  34   16   39 1
  35   17   18 ar
  36   17   40 1
  37   18   19 ar
  38   18   41 1
  39   19   42 1
  40   20   21 ar
  41   20   43 1
  42   21   22 ar
  43   21   44 1
  44   22   23 ar
  45   22   26 1
  46   23   24 ar
  47   23   27 1
  48   24   45 1

#	End of record

