#	Name: ASD03330532
#	Creating user name:	WinNT
#	Creation time:	15. 06. 2019 20:37

#	Modifying user name:	WinNT
#	Modification time:	15. 06. 2019 20:37

#	Program:	/corina/corina34_cracker 3.40 0067  02.08.2006

@<TRIPOS>MOLECULE
ASD03330532
  69   71    0    0    0
SMALL
NO_CHARGES


@<TRIPOS>ATOM
   1 C1             1.7932     2.9128     1.1825 C.2     
   2 N2             1.2624     1.6769     1.3362 N.pl3   
   3 C3             3.1193     2.8209     1.4808 C.2     
   4 N4             3.3824     1.5335     1.7939 N.2     
   5 C5             2.2734     0.8378     1.7040 C.2     
   6 C6             2.1412    -0.6135     1.9597 C.ar    
   7 C7             4.0924     3.9274     1.4640 C.2     
   8 O8             3.7324     5.0494     1.1627 O.2     
   9 C9             6.3489     4.7961     1.7657 C.3     
  10 N10            5.3814     3.6961     1.7824 N.am    
  11 C11            6.8859     4.9815     0.3451 C.3     
  12 C12            5.7182     5.2200    -0.6144 C.3     
  13 C13            7.8293     6.1855     0.3095 C.3     
  14 C14            7.6471     3.7244    -0.0805 C.3     
  15 C15            7.4901     4.4756     2.6963 C.2     
  16 N16            8.3692     5.4374     3.0407 N.am    
  17 O17            7.6174     3.3522     3.1352 O.2     
  18 C18            9.5197     5.1093     3.8862 C.3     
  19 C19            3.2296    -1.4624     1.7568 C.ar    
  20 C20            0.9294    -1.1379     2.4100 C.ar    
  21 C21            0.8125    -2.4922     2.6465 C.ar    
  22 C22            1.8940    -3.3296     2.4384 C.ar    
  23 C23            3.0999    -2.8149     1.9969 C.ar    
  24 C24           -0.1489     1.3286     1.1503 C.3     
  25 C25           -0.6486     1.9380    -0.1633 C.3     
  26 C26           -1.1500     3.3571     0.0851 C.3     
  27 N27           -0.3673     4.0149     1.1335 N.3     
  28 C28            1.0445     4.1446     0.7437 C.3     
  29 C29           -0.9411     5.3230     1.4765 C.3     
  30 C30           -2.2026     5.1216     2.3184 C.3     
  31 C31           -1.8245     4.4947     3.6618 C.3     
  32 C32           -2.8769     6.4738     2.5583 C.3     
  33 H33            5.8606     5.7143     2.0923 H       
  34 H34            5.6686     2.8013     2.0227 H       
  35 H35            5.1759     6.1156    -0.3112 H       
  36 H36            6.1008     5.3521    -1.6265 H       
  37 H37            5.0461     4.3623    -0.5891 H       
  38 H38            8.6418     6.0314     1.0195 H       
  39 H39            8.2398     6.2959    -0.6941 H       
  40 H40            7.2783     7.0869     0.5779 H       
  41 H41            6.9749     2.8666    -0.0552 H       
  42 H42            8.0296     3.8564    -1.0926 H       
  43 H43            8.4789     3.5544     0.6031 H       
  44 H44            8.2401     6.3467     2.7288 H       
  45 H45            9.1690     4.7188     4.8415 H       
  46 H46           10.1331     4.3576     3.3895 H       
  47 H47           10.1131     6.0076     4.0568 H       
  48 H48            4.1715    -1.0618     1.4122 H       
  49 H49            0.0846    -0.4851     2.5735 H       
  50 H50           -0.1250    -2.8994     2.9952 H       
  51 H51            1.7977    -4.3888     2.6256 H       
  52 H52            3.9404    -3.4738     1.8360 H       
  53 H53           -0.2546     0.2444     1.1122 H       
  54 H54           -0.7340     1.7235     1.9808 H       
  55 H55            0.1678     1.9631    -0.8850 H       
  56 H56           -1.4623     1.3300    -0.5586 H       
  57 H57           -1.0677     3.9323    -0.8372 H       
  58 H58           -2.1958     3.3190     0.3899 H       
  59 H59            1.4757     5.0233     1.2234 H       
  60 H60            1.1156     4.2478    -0.3391 H       
  61 H61           -0.2130     5.9012     2.0454 H       
  62 H62           -1.1961     5.8589     0.5622 H       
  63 H63           -2.8904     4.4613     1.7901 H       
  64 H64           -1.2725     3.5708     3.4892 H       
  65 H65           -1.2019     5.1901     4.2249 H       
  66 H66           -2.7296     4.2766     4.2286 H       
  67 H67           -3.1463     6.9205     1.6012 H       
  68 H68           -3.7756     6.3304     3.1581 H       
  69 H69           -2.1891     7.1341     3.0866 H       
@<TRIPOS>BOND
   1    1    2 1
   2    1    3 2
   3    1   28 1
   4    2   24 1
   5    2    5 1
   6    3    4 1
   7    3    7 1
   8    4    5 2
   9    5    6 1
  10    6   19 ar
  11    6   20 ar
  12    7    8 2
  13    7   10 am
  14    9   10 1
  15    9   11 1
  16    9   15 1
  17    9   33 1
  18   10   34 1
  19   11   12 1
  20   11   13 1
  21   11   14 1
  22   12   35 1
  23   12   36 1
  24   12   37 1
  25   13   38 1
  26   13   39 1
  27   13   40 1
  28   14   41 1
  29   14   42 1
  30   14   43 1
  31   15   16 am
  32   15   17 2
  33   16   18 1
  34   16   44 1
  35   18   45 1
  36   18   46 1
  37   18   47 1
  38   19   23 ar
  39   19   48 1
  40   20   21 ar
  41   20   49 1
  42   21   22 ar
  43   21   50 1
  44   22   23 ar
  45   22   51 1
  46   23   52 1
  47   24   25 1
  48   24   53 1
  49   24   54 1
  50   25   26 1
  51   25   55 1
  52   25   56 1
  53   26   27 1
  54   26   57 1
  55   26   58 1
  56   27   28 1
  57   27   29 1
  58   28   59 1
  59   28   60 1
  60   29   30 1
  61   29   61 1
  62   29   62 1
  63   30   31 1
  64   30   32 1
  65   30   63 1
  66   31   64 1
  67   31   65 1
  68   31   66 1
  69   32   67 1
  70   32   68 1
  71   32   69 1

#	End of record

