#	Name: ASD08070157
#	Creating user name:	WinNT
#	Creation time:	15. 06. 2019 21:14

#	Modifying user name:	WinNT
#	Modification time:	15. 06. 2019 21:14

#	Program:	/corina/corina34_cracker 3.40 0067  02.08.2006

@<TRIPOS>MOLECULE
ASD08070157
  36   38    0    0    0
SMALL
NO_CHARGES


@<TRIPOS>ATOM
   1 C1            -0.0167     1.3791     0.0096 C.ar    
   2 C2             0.0021    -0.0041     0.0020 C.ar    
   3 C3             1.2052    -0.6865    -0.0127 C.ar    
   4 C4             2.3979     0.0097    -0.0200 C.ar    
   5 C5             2.3871     1.4070    -0.0128 C.ar    
   6 C6             1.1677     2.0892     0.0021 C.ar    
   7 N7             4.2483     2.4963     1.1439 N.am    
   8 C8             3.6583     2.1591    -0.0200 C.2     
   9 C9             4.2209     5.1090     0.1355 C.ar    
  10 C10            5.2143     4.7150     1.0228 C.ar    
  11 C11            5.5091     3.2423     1.1368 C.3     
  12 C12            3.9085     6.4435    -0.0197 C.ar    
  13 C13            4.5908     7.3978     0.7121 C.ar    
  14 C14            5.5769     7.0085     1.5945 C.ar    
  15 C15            5.8899     5.6647     1.7554 C.ar    
  16 C16            6.9662     5.3090     2.7474 C.3     
  17 C17            7.4806     3.8929     2.4972 C.3     
  18 C18            6.2767     2.9464     2.4237 C.3     
  19 O19            4.1723     2.4739    -1.0757 O.2     
  20 Cl20           1.1416     3.8250     0.0111 Cl      
  21 Cl21           3.9066    -0.8489    -0.0373 Cl      
  22 H22           -0.9600     1.9049     0.0170 H       
  23 H23           -0.9274    -0.5540     0.0080 H       
  24 H24            1.2119    -1.7664    -0.0182 H       
  25 H25            3.8381     2.2451     1.9862 H       
  26 H26            3.6917     4.3646    -0.4410 H       
  27 H27            6.1077     2.9283     0.2816 H       
  28 H28            3.1340     6.7420    -0.7106 H       
  29 H29            4.3528     8.4445     0.5929 H       
  30 H30            6.1103     7.7547     2.1649 H       
  31 H31            7.7919     6.0138     2.6500 H       
  32 H32            6.5592     5.3705     3.7567 H       
  33 H33            8.0293     3.8627     1.5559 H       
  34 H34            8.1357     3.5907     3.3143 H       
  35 H35            5.6278     3.1103     3.2841 H       
  36 H36            6.6223     1.9127     2.4156 H       
@<TRIPOS>BOND
   1    1    2 ar
   2    1    6 ar
   3    1   22 1
   4    2    3 ar
   5    2   23 1
   6    3    4 ar
   7    3   24 1
   8    4    5 ar
   9    4   21 1
  10    5    6 ar
  11    5    8 1
  12    6   20 1
  13    7    8 am
  14    7   11 1
  15    7   25 1
  16    8   19 2
  17    9   10 ar
  18    9   12 ar
  19    9   26 1
  20   10   11 1
  21   10   15 ar
  22   11   18 1
  23   11   27 1
  24   12   13 ar
  25   12   28 1
  26   13   14 ar
  27   13   29 1
  28   14   15 ar
  29   14   30 1
  30   15   16 1
  31   16   17 1
  32   16   31 1
  33   16   32 1
  34   17   18 1
  35   17   33 1
  36   17   34 1
  37   18   35 1
  38   18   36 1

#	End of record

