#	Name: ASD02198081
#	Creating user name:	WinNT
#	Creation time:	15. 06. 2019 20:18

#	Modifying user name:	WinNT
#	Modification time:	15. 06. 2019 20:18

#	Program:	/corina/corina34_cracker 3.40 0067  02.08.2006

@<TRIPOS>MOLECULE
ASD02198081
  53   56    0    0    0
SMALL
NO_CHARGES


@<TRIPOS>ATOM
   1 C1            -0.0166     1.3744     0.0096 C.2     
   2 C2             0.0021    -0.0041     0.0020 C.2     
   3 C3            -1.1876    -0.8011     0.0086 C.1     
   4 S4             1.5679     2.0035    -0.0022 S.3     
   5 C5             2.2765     0.3966    -0.0175 C.2     
   6 C6             1.2839    -0.5519    -0.0132 C.2     
   7 C7             3.6608     0.1212    -0.0327 C.2     
   8 C8             4.6296     1.2258    -0.0359 C.2     
   9 O9             4.0530    -1.0347    -0.0430 O.2     
  10 N10            1.5315    -1.9170    -0.0224 N.pl3   
  11 N11           -1.1600     2.1393     0.0193 N.pl3   
  12 N12           -2.1314    -1.4334     0.0139 N.1     
  13 C13            5.9875     1.0812    -0.0501 C.2     
  14 C14            6.6886     2.2573    -0.0503 C.2     
  15 C15            5.9175     3.3822    -0.0364 C.2     
  16 S16            4.2169     2.9351    -0.0299 S.3     
  17 C17            6.4328     4.7664    -0.0328 C.ar    
  18 C18            5.5389     5.8382    -0.0181 C.ar    
  19 C19            6.0375     7.1289    -0.0150 C.ar    
  20 C20            7.4138     7.3080    -0.0267 C.ar    
  21 C21            8.2428     6.2008    -0.0410 C.ar    
  22 N22            7.7441     4.9819    -0.0382 N.ar    
  23 C23           -1.0633     3.6011     0.0268 C.3     
  24 C24           -2.4478     4.1961     0.0368 C.ar    
  25 C25           -3.0755     4.4618     1.2391 C.ar    
  26 C26           -4.3459     5.0077     1.2536 C.ar    
  27 C27           -4.9923     5.2895     0.0613 C.ar    
  28 C28           -4.3602     5.0219    -1.1497 C.ar    
  29 C29           -3.0853     4.4802    -1.1571 C.ar    
  30 O30           -4.9907     5.2968    -2.3229 O.3     
  31 C31           -4.2815     4.9960    -3.5265 C.3     
  32 O32           -6.2419     5.8259     0.0737 O.3     
  33 C33           -6.8289     6.0734     1.3529 C.3     
  34 H34            2.4445    -2.2443    -0.0326 H       
  35 H35            0.7915    -2.5442    -0.0188 H       
  36 H36           -2.0302     1.7108     0.0212 H       
  37 H37            6.4703     0.1152    -0.0599 H       
  38 H38            7.7680     2.2916    -0.0603 H       
  39 H39            4.4733     5.6626    -0.0096 H       
  40 H40            5.3704     7.9782    -0.0040 H       
  41 H41            7.8337     8.3031    -0.0249 H       
  42 H42            9.3141     6.3377    -0.0501 H       
  43 H43           -0.5223     3.9249     0.9159 H       
  44 H44           -0.5310     3.9346    -0.8640 H       
  45 H45           -2.5728     4.2422     2.1694 H       
  46 H46           -4.8343     5.2141     2.1945 H       
  47 H47           -2.5926     4.2716    -2.0952 H       
  48 H48           -4.8957     5.2629    -4.3864 H       
  49 H49           -3.3524     5.5655    -3.5527 H       
  50 H50           -4.0553     3.9302    -3.5582 H       
  51 H51           -6.9069     5.1364     1.9043 H       
  52 H52           -6.2047     6.7720     1.9101 H       
  53 H53           -7.8229     6.5007     1.2200 H       
@<TRIPOS>BOND
   1    1    2 2
   2    1    4 1
   3    1   11 1
   4    2    3 1
   5    2    6 1
   6    3   12 3
   7    4    5 1
   8    5    6 2
   9    5    7 1
  10    6   10 1
  11    7    8 1
  12    7    9 2
  13    8   13 2
  14    8   16 1
  15   10   34 1
  16   10   35 1
  17   11   23 1
  18   11   36 1
  19   13   14 1
  20   13   37 1
  21   14   15 2
  22   14   38 1
  23   15   16 1
  24   15   17 1
  25   17   18 ar
  26   17   22 ar
  27   18   19 ar
  28   18   39 1
  29   19   20 ar
  30   19   40 1
  31   20   21 ar
  32   20   41 1
  33   21   22 ar
  34   21   42 1
  35   23   24 1
  36   23   43 1
  37   23   44 1
  38   24   25 ar
  39   24   29 ar
  40   25   26 ar
  41   25   45 1
  42   26   27 ar
  43   26   46 1
  44   27   28 ar
  45   27   32 1
  46   28   29 ar
  47   28   30 1
  48   29   47 1
  49   30   31 1
  50   31   48 1
  51   31   49 1
  52   31   50 1
  53   32   33 1
  54   33   51 1
  55   33   52 1
  56   33   53 1

#	End of record

