#	Name: ASD01918026
#	Creating user name:	WinNT
#	Creation time:	15. 06. 2019 20:10

#	Modifying user name:	WinNT
#	Modification time:	15. 06. 2019 20:10

#	Program:	/corina/corina34_cracker 3.40 0067  02.08.2006

@<TRIPOS>MOLECULE
ASD01918026
  37   39    0    0    0
SMALL
NO_CHARGES


@<TRIPOS>ATOM
   1 C1            -0.0237     1.3785     0.0819 C.ar    
   2 C2            -0.0064    -0.0028     0.0887 C.ar    
   3 C3             1.1988    -0.6804     0.0786 C.ar    
   4 C4             2.3894     0.0223     0.0617 C.ar    
   5 C5             2.3775     1.4037     0.0553 C.ar    
   6 C6             1.1696     2.0859     0.0649 C.ar    
   7 O7             1.1552     3.4448     0.0578 O.3     
   8 C8             2.4215     4.1069     0.0402 C.3     
   9 C9             2.2082     5.5987     0.0345 C.2     
  10 C10            0.9678     6.2493     0.0503 C.2     
  11 N11            3.1526     6.5086     0.0197 N.2     
  12 N12            2.5492     7.7656     0.0184 N.pl3   
  13 N13            0.2963     8.6445     0.0496 N.am    
  14 C14            1.2034     7.5787     0.0389 C.2     
  15 C15            3.1885     9.0839     0.0012 C.3     
  16 C16            2.1689    10.1244    -0.4760 C.3     
  17 C17            0.8651     9.9788     0.3167 C.3     
  18 C18           -1.0203     8.4632    -0.1746 C.2     
  19 C19           -1.9753     9.6202    -0.0314 C.3     
  20 O20           -1.4365     7.3690    -0.4917 O.2     
  21 H21           -0.9654     1.9072     0.0853 H       
  22 H22           -0.9351    -0.5540     0.1023 H       
  23 H23            1.2102    -1.7603     0.0843 H       
  24 H24            3.3296    -0.5092     0.0538 H       
  25 H25            3.3079     1.9521     0.0428 H       
  26 H26            2.9913     3.8247     0.9255 H       
  27 H27            2.9717     3.8151    -0.8543 H       
  28 H28           -0.0016     5.7736     0.0683 H       
  29 H29            3.5270     9.3385     1.0055 H       
  30 H30            4.0396     9.0680    -0.6796 H       
  31 H31            2.5747    11.1247    -0.3249 H       
  32 H32            1.9668     9.9734    -1.5364 H       
  33 H33            0.1563    10.7474     0.0085 H       
  34 H34            1.0791    10.0793     1.3807 H       
  35 H35           -1.4380    10.4903     0.3458 H       
  36 H36           -2.4101     9.8548    -1.0030 H       
  37 H37           -2.7685     9.3522     0.6665 H       
@<TRIPOS>BOND
   1    1    2 ar
   2    1    6 ar
   3    1   21 1
   4    2    3 ar
   5    2   22 1
   6    3    4 ar
   7    3   23 1
   8    4    5 ar
   9    4   24 1
  10    5    6 ar
  11    5   25 1
  12    6    7 1
  13    7    8 1
  14    8    9 1
  15    8   26 1
  16    8   27 1
  17    9   11 2
  18    9   10 1
  19   10   14 2
  20   10   28 1
  21   11   12 1
  22   12   15 1
  23   12   14 1
  24   13   14 1
  25   13   17 1
  26   13   18 am
  27   15   16 1
  28   15   29 1
  29   15   30 1
  30   16   17 1
  31   16   31 1
  32   16   32 1
  33   17   33 1
  34   17   34 1
  35   18   19 1
  36   18   20 2
  37   19   35 1
  38   19   36 1
  39   19   37 1

#	End of record

