#	Name: ASD03330149
#	Creating user name:	WinNT
#	Creation time:	15. 06. 2019 20:36

#	Modifying user name:	WinNT
#	Modification time:	15. 06. 2019 20:36

#	Program:	/corina/corina34_cracker 3.40 0067  02.08.2006

@<TRIPOS>MOLECULE
ASD03330149
  85   90    0    0    0
SMALL
NO_CHARGES


@<TRIPOS>ATOM
   1 N1             0.0930     1.4008    -0.8157 N.am    
   2 C2             0.4264    -0.0274    -0.7283 C.3     
   3 C3             0.7780    -0.5383    -2.1291 C.3     
   4 C4             1.8895     0.3316    -2.7208 C.3     
   5 C5             1.3990     1.7761    -2.8425 C.3     
   6 C6             1.0544     2.3132    -1.4498 C.3     
   7 C7             3.0966     0.2855    -1.8198 C.2     
   8 O8             3.5986     1.3166    -1.4253 O.2     
   9 N9             3.6182    -0.9017    -1.4523 N.am    
  10 C10            2.2617    -0.1889    -4.0853 C.ar    
  11 C11            3.1854     0.4917    -4.8563 C.ar    
  12 C12            3.5268     0.0143    -6.1079 C.ar    
  13 C13            2.9447    -1.1439    -6.5883 C.ar    
  14 C14            2.0217    -1.8249    -5.8169 C.ar    
  15 C15            1.6836    -1.3499    -4.5635 C.ar    
  16 C16           -1.0750     1.8644    -0.3284 C.2     
  17 O17           -1.9888     1.0930    -0.1016 O.2     
  18 C18           -1.2447     3.2969    -0.0717 C.2     
  19 C19           -2.4212     3.8966     0.2648 C.2     
  20 C20           -2.3384     5.2597     0.4589 C.2     
  21 C21           -1.0776     5.7817     0.2789 C.2     
  22 S22            0.0407     4.4933    -0.1451 S.3     
  23 C23           -3.5082     6.0919     0.8292 C.ar    
  24 C24           -4.6595     6.0679     0.0432 C.ar    
  25 C25           -5.7462     6.8429     0.3907 C.ar    
  26 C26           -5.6944     7.6462     1.5217 C.ar    
  27 C27           -4.5495     7.6728     2.3061 C.ar    
  28 C28           -3.4614     6.8958     1.9674 C.ar    
  29 O29           -6.7670     8.4088     1.8614 O.3     
  30 C30           -6.6458     9.2117     3.0373 C.3     
  31 C31           -7.9424     9.9936     3.2568 C.3     
  32 C32           -7.8127    10.8532     4.5158 C.3     
  33 O33           -9.0237    11.5835     4.7208 O.3     
  34 C34           -9.0077    12.4227     5.8774 C.3     
  35 C35          -10.2977    13.2455     5.9290 C.3     
  36 C36          -10.3001    14.0974     7.2020 C.3     
  37 C37          -10.1475    13.1787     8.4182 C.3     
  38 C38           -8.8634    12.3584     8.2704 C.3     
  39 O39           -8.9129    11.6139     7.0517 O.3     
  40 C40           -0.7183     7.2051     0.4251 C.ar    
  41 C41            0.3692     7.5765     1.2220 C.ar    
  42 C42            0.6998     8.9096     1.3545 C.ar    
  43 C43           -0.0437     9.8789     0.6997 C.ar    
  44 C44           -1.1226     9.5163    -0.0914 C.ar    
  45 C45           -1.4595     8.1871    -0.2364 C.ar    
  46 F46            0.2843    11.1826     0.8334 F       
  47 Cl47           1.3007     6.3632     2.0431 Cl      
  48 H48            1.2804    -0.1634    -0.0648 H       
  49 H49           -0.4304    -0.5797    -0.3424 H       
  50 H50            1.1199    -1.5712    -2.0645 H       
  51 H51           -0.1039    -0.4857    -2.7675 H       
  52 H52            2.1828     2.3904    -3.2856 H       
  53 H53            0.5112     1.8069    -3.4742 H       
  54 H54            0.6119     3.3052    -1.5399 H       
  55 H55            1.9596     2.3681    -0.8451 H       
  56 H56            3.2630    -1.7237    -1.8249 H       
  57 H57            4.3489    -0.9340    -0.8151 H       
  58 H58            3.6401     1.3965    -4.4810 H       
  59 H59            4.2479     0.5464    -6.7105 H       
  60 H60            3.2109    -1.5164    -7.5664 H       
  61 H61            1.5667    -2.7296    -6.1923 H       
  62 H62            0.9652    -1.8840    -3.9593 H       
  63 H63           -3.3454     3.3480     0.3707 H       
  64 H64           -4.7003     5.4434    -0.8370 H       
  65 H65           -6.6382     6.8251    -0.2179 H       
  66 H66           -4.5124     8.2991     3.1852 H       
  67 H67           -2.5726     6.9135     2.5807 H       
  68 H68           -6.4585     8.5696     3.8979 H       
  69 H69           -5.8168     9.9092     2.9171 H       
  70 H70           -8.1297    10.6357     2.3961 H       
  71 H71           -8.7714     9.2961     3.3769 H       
  72 H72           -7.6254    10.2112     5.3765 H       
  73 H73           -6.9837    11.5507     4.3956 H       
  74 H74           -8.1502    13.0937     5.8277 H       
  75 H75          -10.3502    13.8956     5.0556 H       
  76 H76          -11.1572    12.5753     5.9376 H       
  77 H77           -9.4690    14.8021     7.1708 H       
  78 H78          -11.2406    14.6437     7.2734 H       
  79 H79          -10.0927    13.7810     9.3251 H       
  80 H80          -11.0040    12.5071     8.4771 H       
  81 H81           -8.0040    13.0287     8.2523 H       
  82 H82           -8.7716    11.6721     9.1122 H       
  83 H83            1.5391     9.1982     1.9698 H       
  84 H84           -1.6981    10.2764    -0.5987 H       
  85 H85           -2.2975     7.9060    -0.8571 H       
@<TRIPOS>BOND
   1    1    2 1
   2    1    6 1
   3    1   16 am
   4    2    3 1
   5    2   48 1
   6    2   49 1
   7    3    4 1
   8    3   50 1
   9    3   51 1
  10    4    5 1
  11    4    7 1
  12    4   10 1
  13    5    6 1
  14    5   52 1
  15    5   53 1
  16    6   54 1
  17    6   55 1
  18    7    8 2
  19    7    9 am
  20    9   56 1
  21    9   57 1
  22   10   11 ar
  23   10   15 ar
  24   11   12 ar
  25   11   58 1
  26   12   13 ar
  27   12   59 1
  28   13   14 ar
  29   13   60 1
  30   14   15 ar
  31   14   61 1
  32   15   62 1
  33   16   17 2
  34   16   18 1
  35   18   19 2
  36   18   22 1
  37   19   20 1
  38   19   63 1
  39   20   21 2
  40   20   23 1
  41   21   22 1
  42   21   40 1
  43   23   24 ar
  44   23   28 ar
  45   24   25 ar
  46   24   64 1
  47   25   26 ar
  48   25   65 1
  49   26   27 ar
  50   26   29 1
  51   27   28 ar
  52   27   66 1
  53   28   67 1
  54   29   30 1
  55   30   31 1
  56   30   68 1
  57   30   69 1
  58   31   32 1
  59   31   70 1
  60   31   71 1
  61   32   33 1
  62   32   72 1
  63   32   73 1
  64   33   34 1
  65   34   35 1
  66   34   39 1
  67   34   74 1
  68   35   36 1
  69   35   75 1
  70   35   76 1
  71   36   37 1
  72   36   77 1
  73   36   78 1
  74   37   38 1
  75   37   79 1
  76   37   80 1
  77   38   39 1
  78   38   81 1
  79   38   82 1
  80   40   41 ar
  81   40   45 ar
  82   41   42 ar
  83   41   47 1
  84   42   43 ar
  85   42   83 1
  86   43   44 ar
  87   43   46 1
  88   44   45 ar
  89   44   84 1
  90   45   85 1

#	End of record

