#	Name: ASD01882366
#	Creating user name:	WinNT
#	Creation time:	15. 06. 2019 19:44

#	Modifying user name:	WinNT
#	Modification time:	15. 06. 2019 19:44

#	Program:	/corina/corina34_cracker 3.40 0067  02.08.2006

@<TRIPOS>MOLECULE
ASD01882366
  54   58    0    0    0
SMALL
NO_CHARGES


@<TRIPOS>ATOM
   1 C1            -0.0311     1.3499    -0.1951 C.2     
   2 C2             0.0361    -0.0509    -0.1058 C.2     
   3 C3             1.2521    -0.6493     0.0838 C.2     
   4 C4             2.4129     0.1481     0.1859 C.2     
   5 C5             2.3253     1.4897     0.0974 C.2     
   6 N6             1.1177     2.0961    -0.0916 N.pl3   
   7 N7            -0.5677     3.4052    -0.3845 N.2     
   8 N8            -1.0272     2.2035    -0.3767 N.2     
   9 C9             0.7283     3.3974    -0.2163 C.2     
  10 C10           -1.2150    -0.8835    -0.2169 C.3     
  11 F11           -1.7209    -1.1380     1.0624 F       
  12 F12           -2.1712    -0.1906    -0.9671 F       
  13 F13           -0.9145    -2.0948    -0.8490 F       
  14 C14            1.6284     4.6052    -0.1706 C.3     
  15 C15            2.1084     4.9269    -1.5624 C.ar    
  16 C16            1.9055     6.1926    -2.0796 C.ar    
  17 C17            2.3513     6.4783    -3.3607 C.ar    
  18 C18            2.9875     5.4758    -4.0770 C.ar    
  19 C19            3.1548     4.2341    -3.4942 C.ar    
  20 N20            2.7220     3.9994    -2.2707 N.ar    
  21 N21            1.3440    -2.0348     0.1759 N.pl3   
  22 C22            0.7390    -2.7517     1.3068 C.3     
  23 C23            1.8076    -3.6339     1.9599 C.3     
  24 C24            2.4299    -4.5445     0.8989 C.3     
  25 C25            3.1014    -3.6902    -0.1788 C.3     
  26 C26            2.0425    -2.8092    -0.8591 C.3     
  27 C27            3.4579    -5.4377     1.5442 C.ar    
  28 C28            3.3112    -6.8112     1.4908 C.ar    
  29 C29            4.2541    -7.6306     2.0828 C.ar    
  30 C30            5.3439    -7.0764     2.7278 C.ar    
  31 C31            5.4911    -5.7030     2.7805 C.ar    
  32 C32            4.5504    -4.8837     2.1847 C.ar    
  33 H33            3.3749    -0.3192     0.3359 H       
  34 H34            3.2191     2.0906     0.1771 H       
  35 H35            1.0754     5.4555     0.2286 H       
  36 H36            2.4851     4.3959     0.4699 H       
  37 H37            1.4055     6.9493    -1.4931 H       
  38 H38            2.2063     7.4583    -3.7908 H       
  39 H39            3.3475     5.6630    -5.0780 H       
  40 H40            3.6493     3.4480    -4.0455 H       
  41 H41            0.3627    -2.0336     2.0354 H       
  42 H42           -0.0802    -3.3749     0.9482 H       
  43 H43            2.5818    -3.0037     2.3978 H       
  44 H44            1.3499    -4.2432     2.7391 H       
  45 H45            1.6513    -5.1568     0.4440 H       
  46 H46            3.8633    -3.0595     0.2792 H       
  47 H47            3.5644    -4.3396    -0.9218 H       
  48 H48            1.3275    -3.4370    -1.3907 H       
  49 H49            2.5266    -2.1290    -1.5600 H       
  50 H50            2.4597    -7.2442     0.9869 H       
  51 H51            4.1391    -8.7037     2.0417 H       
  52 H52            6.0802    -7.7166     3.1910 H       
  53 H53            6.3424    -5.2700     3.2847 H       
  54 H54            4.6673    -3.8107     2.2226 H       
@<TRIPOS>BOND
   1    1    2 1
   2    1    6 1
   3    1    8 2
   4    2    3 2
   5    2   10 1
   6    3    4 1
   7    3   21 1
   8    4    5 2
   9    4   33 1
  10    5    6 1
  11    5   34 1
  12    6    9 1
  13    7    8 1
  14    7    9 2
  15    9   14 1
  16   10   11 1
  17   10   12 1
  18   10   13 1
  19   14   15 1
  20   14   35 1
  21   14   36 1
  22   15   16 ar
  23   15   20 ar
  24   16   17 ar
  25   16   37 1
  26   17   18 ar
  27   17   38 1
  28   18   19 ar
  29   18   39 1
  30   19   20 ar
  31   19   40 1
  32   21   22 1
  33   21   26 1
  34   22   23 1
  35   22   41 1
  36   22   42 1
  37   23   24 1
  38   23   43 1
  39   23   44 1
  40   24   25 1
  41   24   27 1
  42   24   45 1
  43   25   26 1
  44   25   46 1
  45   25   47 1
  46   26   48 1
  47   26   49 1
  48   27   28 ar
  49   27   32 ar
  50   28   29 ar
  51   28   50 1
  52   29   30 ar
  53   29   51 1
  54   30   31 ar
  55   30   52 1
  56   31   32 ar
  57   31   53 1
  58   32   54 1

#	End of record

