#	Name: ASD08178006
#	Creating user name:	WinNT
#	Creation time:	15. 06. 2019 21:18

#	Modifying user name:	WinNT
#	Modification time:	15. 06. 2019 21:18

#	Program:	/corina/corina34_cracker 3.40 0067  02.08.2006

@<TRIPOS>MOLECULE
ASD08178006
  53   56    0    0    0
SMALL
NO_CHARGES


@<TRIPOS>ATOM
   1 N1            -0.0150     1.2568     0.0090 N.2     
   2 N2             0.0021    -0.0041     0.0020 N.2     
   3 C3             1.1299     1.8765     0.0013 C.2     
   4 S4             2.4016     0.6527    -0.0174 S.3     
   5 C5             1.1533    -0.5948    -0.0121 C.2     
   6 N6             1.3171     3.2535     0.0065 N.am    
   7 C7             0.2513     4.0784     0.0212 C.2     
   8 C8             0.4504     5.5429     0.0267 C.ar    
   9 O9            -0.8736     3.6179     0.0299 O.2     
  10 C10           -0.6513     6.4001     0.0419 C.ar    
  11 C11           -0.4585     7.7661     0.0475 C.ar    
  12 C12            0.8233     8.2870     0.0376 C.ar    
  13 C13            1.9196     7.4430     0.0221 C.ar    
  14 C14            1.7410     6.0751     0.0226 C.ar    
  15 C15            1.3866    -2.0836    -0.0224 C.3     
  16 C16            1.4517    -2.5797    -1.4682 C.3     
  17 S17            1.7326    -4.3718    -1.4805 S.3     
  18 C18            1.7789    -4.7654    -3.2507 C.3     
  19 C19            2.0126    -6.2664    -3.4335 C.3     
  20 C20            2.0510    -6.5934    -4.9040 C.2     
  21 N21            3.1038    -6.5972    -5.6564 N.2     
  22 S22            0.6694    -7.0466    -5.9042 S.3     
  23 C23            1.7585    -7.1814    -7.2866 C.2     
  24 N24            2.9595    -6.8956    -6.8731 N.2     
  25 N25            1.3996    -7.5342    -8.5820 N.am    
  26 C26            2.3379    -7.5991    -9.5473 C.2     
  27 C27            1.9561    -7.9744   -10.9249 C.ar    
  28 O28            3.4982    -7.3490    -9.2848 O.2     
  29 C29            2.9255    -8.0426   -11.9271 C.ar    
  30 C30            0.6255    -8.2679   -11.2284 C.ar    
  31 C31            0.2761    -8.6180   -12.5162 C.ar    
  32 C32            1.2410    -8.6785   -13.5060 C.ar    
  33 C33            2.5625    -8.3940   -13.2108 C.ar    
  34 H34            2.2148     3.6210    -0.0004 H       
  35 H35           -1.6524     5.9948     0.0489 H       
  36 H36           -1.3099     8.4304     0.0592 H       
  37 H37            0.9688     9.3571     0.0416 H       
  38 H38            2.9175     7.8560     0.0141 H       
  39 H39            2.5975     5.4174     0.0105 H       
  40 H40            2.3269    -2.3075     0.4813 H       
  41 H41            0.5685    -2.5831     0.4966 H       
  42 H42            0.5114    -2.3558    -1.9719 H       
  43 H43            2.2698    -2.0801    -1.9872 H       
  44 H44            0.8303    -4.4868    -3.7098 H       
  45 H45            2.5887    -4.2112    -3.7251 H       
  46 H46            2.9611    -6.5449    -2.9744 H       
  47 H47            1.2027    -6.8206    -2.9591 H       
  48 H48            0.4737    -7.7338    -8.7914 H       
  49 H49            3.9573    -7.8204   -11.6981 H       
  50 H50           -0.1286    -8.2214   -10.4567 H       
  51 H51           -0.7529    -8.8456   -12.7523 H       
  52 H52            0.9621    -8.9531   -14.5125 H       
  53 H53            3.3108    -8.4431   -13.9880 H       
@<TRIPOS>BOND
   1    1    2 1
   2    1    3 2
   3    2    5 2
   4    3    4 1
   5    3    6 1
   6    4    5 1
   7    5   15 1
   8    6    7 am
   9    6   34 1
  10    7    8 1
  11    7    9 2
  12    8   10 ar
  13    8   14 ar
  14   10   11 ar
  15   10   35 1
  16   11   12 ar
  17   11   36 1
  18   12   13 ar
  19   12   37 1
  20   13   14 ar
  21   13   38 1
  22   14   39 1
  23   15   16 1
  24   15   40 1
  25   15   41 1
  26   16   17 1
  27   16   42 1
  28   16   43 1
  29   17   18 1
  30   18   19 1
  31   18   44 1
  32   18   45 1
  33   19   20 1
  34   19   46 1
  35   19   47 1
  36   20   21 2
  37   20   22 1
  38   21   24 1
  39   22   23 1
  40   23   24 2
  41   23   25 1
  42   25   26 am
  43   25   48 1
  44   26   27 1
  45   26   28 2
  46   27   29 ar
  47   27   30 ar
  48   29   33 ar
  49   29   49 1
  50   30   31 ar
  51   30   50 1
  52   31   32 ar
  53   31   51 1
  54   32   33 ar
  55   32   52 1
  56   33   53 1

#	End of record

