#	Name: ASD01708048
#	Creating user name:	WinNT
#	Creation time:	15. 06. 2019 19:22

#	Modifying user name:	WinNT
#	Modification time:	15. 06. 2019 19:22

#	Program:	/corina/corina34_cracker 3.40 0067  02.08.2006

@<TRIPOS>MOLECULE
ASD01708048
  64   68    0    0    0
SMALL
NO_CHARGES


@<TRIPOS>ATOM
   1 C1            -0.0162     1.3436     0.0094 C.2     
   2 N2            -0.0576    -0.0026     0.0614 N.am    
   3 O3             1.0546     1.9183    -0.0109 O.2     
   4 C4             1.1669    -0.8117    -0.0568 C.3     
   5 C5            -1.3234    -0.7205     0.2439 C.3     
   6 C6            -1.1425    -1.8193     1.2619 C.ar    
   7 C7             0.1001    -2.2024     1.7184 C.ar    
   8 C8             1.3715    -1.5486     1.2657 C.3     
   9 C9            -2.2853    -2.4508     1.7383 C.ar    
  10 C10           -2.1945    -3.4680     2.6632 C.ar    
  11 C11           -0.9379    -3.8688     3.1257 C.ar    
  12 C12            0.2048    -3.2295     2.6471 C.ar    
  13 Cl13           1.7696    -3.7214     3.2156 Cl      
  14 Cl14          -3.6310    -4.2461     3.2505 Cl      
  15 C15           -0.8216    -4.9606     4.1134 C.2     
  16 N16           -0.8399    -4.6814     5.4318 N.am    
  17 O17           -0.7093    -6.1112     3.7373 O.2     
  18 C18           -0.7245    -5.7644     6.4116 C.3     
  19 C19           -2.0857    -6.3590     6.6657 C.2     
  20 O20           -2.2236    -7.3732     7.5342 O.3     
  21 O21           -3.0530    -5.9229     6.0877 O.2     
  22 C22           -1.2740     2.1213    -0.0290 C.ar    
  23 C23           -0.1578    -5.2101     7.7202 C.3     
  24 C24            1.2513    -4.7267     7.4925 C.2     
  25 C25            1.6060    -3.4841     7.1190 C.2     
  26 N26           -2.4367     1.4771    -0.1594 N.ar    
  27 C27           -3.5879     2.0983    -0.2005 C.ar    
  28 C28           -3.6397     3.5013    -0.1067 C.ar    
  29 C29           -2.4253     4.2234     0.0330 C.ar    
  30 C30           -1.2208     3.5004     0.0766 C.ar    
  31 C31           -4.8539     4.2019    -0.1479 C.ar    
  32 C32           -4.8495     5.5614    -0.0534 C.ar    
  33 C33           -3.6574     6.2693     0.0833 C.ar    
  34 C34           -2.4587     5.6226     0.1274 C.ar    
  35 O35            2.3663    -5.4620     7.6335 O.3     
  36 C36            3.4398    -4.7067     7.3488 C.2     
  37 C37            3.0166    -3.4718     7.0240 C.2     
  38 S38            5.1180    -5.2414     7.3968 S.o2    
  39 O39            5.0458    -6.6428     7.1727 O.2     
  40 O40            5.7847    -4.3861     6.4785 O.2     
  41 C41            5.6551    -4.8951     9.0945 C.3     
  42 H42            1.0561    -1.5321    -0.8672 H       
  43 H43            2.0203    -0.1627    -0.2533 H       
  44 H44           -2.0875    -0.0256     0.5923 H       
  45 H45           -1.6347    -1.1543    -0.7064 H       
  46 H46            2.1381    -2.3114     1.1297 H       
  47 H47            1.7016    -0.8416     2.0267 H       
  48 H48           -3.2556    -2.1403     1.3797 H       
  49 H49           -0.9295    -3.7634     5.7320 H       
  50 H50           -0.0579    -6.5351     6.0245 H       
  51 H51           -3.1163    -7.7216     7.6641 H       
  52 H52           -0.7761    -4.3797     8.0610 H       
  53 H53           -0.1548    -5.9952     8.4763 H       
  54 H54            0.9409    -2.6548     6.9283 H       
  55 H55           -4.5014     1.5320    -0.3071 H       
  56 H56           -0.2745     4.0100     0.1823 H       
  57 H57           -5.7864     3.6676    -0.2542 H       
  58 H58           -5.7856     6.0990    -0.0853 H       
  59 H59           -3.6836     7.3466     0.1553 H       
  60 H60           -1.5416     6.1829     0.2339 H       
  61 H61            3.6356    -2.6323     6.7439 H       
  62 H62            5.0306    -5.4512     9.7937 H       
  63 H63            6.6950    -5.1983     9.2156 H       
  64 H64            5.5623    -3.8276     9.2943 H       
@<TRIPOS>BOND
   1    1    2 am
   2    1    3 2
   3    1   22 1
   4    2    4 1
   5    2    5 1
   6    4    8 1
   7    4   42 1
   8    4   43 1
   9    5    6 1
  10    5   44 1
  11    5   45 1
  12    6    7 ar
  13    6    9 ar
  14    7    8 1
  15    7   12 ar
  16    8   46 1
  17    8   47 1
  18    9   10 ar
  19    9   48 1
  20   10   11 ar
  21   10   14 1
  22   11   12 ar
  23   11   15 1
  24   12   13 1
  25   15   16 am
  26   15   17 2
  27   16   18 1
  28   16   49 1
  29   18   19 1
  30   18   23 1
  31   18   50 1
  32   19   20 1
  33   19   21 2
  34   20   51 1
  35   22   26 ar
  36   22   30 ar
  37   23   24 1
  38   23   52 1
  39   23   53 1
  40   24   25 2
  41   24   35 1
  42   25   37 1
  43   25   54 1
  44   26   27 ar
  45   27   28 ar
  46   27   55 1
  47   28   29 ar
  48   28   31 ar
  49   29   30 ar
  50   29   34 ar
  51   30   56 1
  52   31   32 ar
  53   31   57 1
  54   32   33 ar
  55   32   58 1
  56   33   34 ar
  57   33   59 1
  58   34   60 1
  59   35   36 1
  60   36   37 2
  61   36   38 1
  62   37   61 1
  63   38   39 2
  64   38   40 2
  65   38   41 1
  66   41   62 1
  67   41   63 1
  68   41   64 1

#	End of record

