#	Name: ASD07930273
#	Creating user name:	WinNT
#	Creation time:	15. 06. 2019 21:12

#	Modifying user name:	WinNT
#	Modification time:	15. 06. 2019 21:12

#	Program:	/corina/corina34_cracker 3.40 0067  02.08.2006

@<TRIPOS>MOLECULE
ASD07930273
  50   54    0    0    0
SMALL
NO_CHARGES


@<TRIPOS>ATOM
   1 S1            -0.0388     1.7806     0.0579 S.3     
   2 C2            -0.0036     0.0201     0.0290 C.2     
   3 N3             1.0045    -0.6424    -0.3887 N.2     
   4 C4             2.2688    -0.1954    -0.9223 C.3     
   5 C5             2.3934     1.3264    -1.0810 C.3     
   6 C6             1.7455     2.0944     0.0541 C.3     
   7 O7             2.0021     0.4315    -3.2306 O.3     
   8 C8             2.3630    -0.6752    -2.3946 C.3     
   9 C9             1.6670     1.5715    -2.4190 C.3     
  10 N10           -1.1073    -0.6692     0.4751 N.pl3   
  11 C11            2.1737     2.8587    -3.0727 C.3     
  12 C12            3.4091    -0.7535    -0.1103 C.ar    
  13 C13            4.7170    -0.4592    -0.4607 C.ar    
  14 C14            5.7690    -0.9696     0.2822 C.ar    
  15 C15            5.5181    -1.7742     1.3749 C.ar    
  16 C16            4.2045    -2.0727     1.7308 C.ar    
  17 C17            3.1491    -1.5521     0.9842 C.ar    
  18 F18            4.9671     0.3274    -1.5303 F       
  19 C19            2.6194    -3.2420     3.2683 C.ar    
  20 C20            3.9299    -2.9379     2.9046 C.ar    
  21 C21            4.9807    -3.4602     3.6616 C.ar    
  22 C22            4.6704    -4.2651     4.7506 C.ar    
  23 C23            3.3385    -4.5199     5.0459 C.ar    
  24 N24            2.3710    -4.0098     4.3092 N.ar    
  25 O25            5.6590    -4.7968     5.5171 O.3     
  26 C26            7.0028    -4.5928     5.0759 C.3     
  27 C27            8.0766    -4.3987     6.1483 C.3     
  28 C28            8.0147    -5.7058     5.3554 C.3     
  29 H29            3.4437     1.6056    -1.1649 H       
  30 H30            1.9263     3.1610    -0.0795 H       
  31 H31            2.1733     1.7699     1.0026 H       
  32 H32            3.3825    -0.9901    -2.6169 H       
  33 H33            1.6737    -1.5035    -2.5590 H       
  34 H34            0.5895     1.6226    -2.2624 H       
  35 H35           -1.8839    -0.1854     0.7970 H       
  36 H36           -1.1089    -1.6392     0.4678 H       
  37 H37            3.2441     2.7741    -3.2601 H       
  38 H38            1.6511     3.0172    -4.0160 H       
  39 H39            1.9868     3.7018    -2.4077 H       
  40 H40            6.7869    -0.7377     0.0057 H       
  41 H41            6.3388    -2.1723     1.9532 H       
  42 H42            2.1293    -1.7771     1.2594 H       
  43 H43            1.7985    -2.8400     2.6931 H       
  44 H44            6.0078    -3.2445     3.4068 H       
  45 H45            3.0908    -5.1451     5.8910 H       
  46 H46            7.1127    -4.0339     4.1466 H       
  47 H47            8.8933    -3.7124     5.9243 H       
  48 H48            7.7581    -4.4267     7.1903 H       
  49 H49            7.6555    -6.5936     5.8758 H       
  50 H50            8.7907    -5.8794     4.6098 H       
@<TRIPOS>BOND
   1    1    2 1
   2    1    6 1
   3    2    3 2
   4    2   10 1
   5    3    4 1
   6    4    8 1
   7    4   12 1
   8    4    5 1
   9    5    6 1
  10    5    9 1
  11    5   29 1
  12    6   30 1
  13    6   31 1
  14    7    8 1
  15    7    9 1
  16    8   32 1
  17    8   33 1
  18    9   11 1
  19    9   34 1
  20   10   35 1
  21   10   36 1
  22   11   37 1
  23   11   38 1
  24   11   39 1
  25   12   13 ar
  26   12   17 ar
  27   13   14 ar
  28   13   18 1
  29   14   15 ar
  30   14   40 1
  31   15   16 ar
  32   15   41 1
  33   16   17 ar
  34   16   20 1
  35   17   42 1
  36   19   20 ar
  37   19   24 ar
  38   19   43 1
  39   20   21 ar
  40   21   22 ar
  41   21   44 1
  42   22   23 ar
  43   22   25 1
  44   23   24 ar
  45   23   45 1
  46   25   26 1
  47   26   27 1
  48   26   28 1
  49   26   46 1
  50   27   28 1
  51   27   47 1
  52   27   48 1
  53   28   49 1
  54   28   50 1

#	End of record

