#	Name: ASD01230843
#	Creating user name:	WinNT
#	Creation time:	15. 06. 2019 19:15

#	Modifying user name:	WinNT
#	Modification time:	15. 06. 2019 19:15

#	Program:	/corina/corina34_cracker 3.40 0067  02.08.2006

@<TRIPOS>MOLECULE
ASD01230843
  45   48    0    0    0
SMALL
NO_CHARGES


@<TRIPOS>ATOM
   1 C1             0.9969    -0.1171    -0.6751 C.3     
   2 C2             1.4220    -1.5080    -0.1966 C.3     
   3 C3             0.3039    -2.5228    -0.3890 C.3     
   4 C4            -1.0796    -1.8895    -0.3377 C.3     
   5 N5            -1.0815    -0.6798     0.4881 N.pl3   
   6 C6            -0.1832     0.3092     0.1813 C.2     
   7 C7            -1.9918    -0.5552     1.6237 C.3     
   8 C8            -2.7629     0.7614     1.5168 C.3     
   9 S9            -1.5894     2.1346     1.3715 S.o2    
  10 N10           -0.3070     1.5280     0.5350 N.am    
  11 C11            2.1349     0.8556    -0.5022 C.ar    
  12 O12           -2.1120     3.1455     0.5205 O.2     
  13 O13           -1.0496     2.4623     2.6445 O.2     
  14 C14            2.6528     1.5144    -1.6020 C.ar    
  15 C15            3.6956     2.4068    -1.4462 C.ar    
  16 C16            4.2234     2.6419    -0.1846 C.ar    
  17 C17            3.7018     1.9794     0.9174 C.ar    
  18 C18            2.6555     1.0919     0.7568 C.ar    
  19 O19            5.2495     3.5189    -0.0287 O.3     
  20 C20            5.6569     4.2244    -1.1168 C.ar    
  21 C21            5.0635     5.4423    -1.4166 C.ar    
  22 C22            5.4781     6.1587    -2.5226 C.ar    
  23 C23            6.4851     5.6620    -3.3326 C.ar    
  24 C24            7.0785     4.4458    -3.0352 C.ar    
  25 C25            6.6699     3.7301    -1.9250 C.ar    
  26 F26            6.8891     6.3636    -4.4142 F       
  27 Cl27           8.3406     3.8243    -4.0523 Cl      
  28 H28            0.7006    -0.1593    -1.7233 H       
  29 H29            2.2966    -1.8286    -0.7627 H       
  30 H30            1.6811    -1.4582     0.8610 H       
  31 H31            0.4326    -3.0092    -1.3558 H       
  32 H32            0.3748    -3.2773     0.3945 H       
  33 H33           -1.3915    -1.6312    -1.3497 H       
  34 H34           -1.7854    -2.6075     0.0798 H       
  35 H35           -2.6940    -1.3889     1.6196 H       
  36 H36           -1.4194    -0.5668     2.5512 H       
  37 H37           -3.4046     0.7366     0.6361 H       
  38 H38           -3.3742     0.8983     2.4089 H       
  39 H39            2.2419     1.3308    -2.5838 H       
  40 H40            4.1000     2.9209    -2.3056 H       
  41 H41            4.1110     2.1602     1.9004 H       
  42 H42            2.2491     0.5760     1.6142 H       
  43 H43            4.2775     5.8300    -0.7856 H       
  44 H44            5.0161     7.1066    -2.7558 H       
  45 H45            7.1323     2.7821    -1.6930 H       
@<TRIPOS>BOND
   1    1    2 1
   2    1   11 1
   3    1    6 1
   4    1   28 1
   5    2    3 1
   6    2   29 1
   7    2   30 1
   8    3    4 1
   9    3   31 1
  10    3   32 1
  11    4    5 1
  12    4   33 1
  13    4   34 1
  14    5    6 1
  15    5    7 1
  16    6   10 2
  17    7    8 1
  18    7   35 1
  19    7   36 1
  20    8    9 1
  21    8   37 1
  22    8   38 1
  23    9   10 am
  24    9   12 2
  25    9   13 2
  26   11   14 ar
  27   11   18 ar
  28   14   15 ar
  29   14   39 1
  30   15   16 ar
  31   15   40 1
  32   16   17 ar
  33   16   19 1
  34   17   18 ar
  35   17   41 1
  36   18   42 1
  37   19   20 1
  38   20   21 ar
  39   20   25 ar
  40   21   22 ar
  41   21   43 1
  42   22   23 ar
  43   22   44 1
  44   23   24 ar
  45   23   26 1
  46   24   25 ar
  47   24   27 1
  48   25   45 1

#	End of record

