#	Name: ASD01813309
#	Creating user name:	WinNT
#	Creation time:	15. 06. 2019 19:30

#	Modifying user name:	WinNT
#	Modification time:	15. 06. 2019 19:30

#	Program:	/corina/corina34_cracker 3.40 0067  02.08.2006

@<TRIPOS>MOLECULE
ASD01813309
  54   58    0    0    0
SMALL
NO_CHARGES


@<TRIPOS>ATOM
   1 H1             0.0021    -0.0041     0.0020 H       
   2 C2            -0.0127     1.0858     0.0080 C.3     
   3 H3             1.0099     1.4631     0.0003 H       
   4 H4            -0.5399     1.4469    -0.8751 H       
   5 C5            -0.7181     1.5718     1.2479 C.ar    
   6 C6            -2.0845     1.7757     1.2206 C.ar    
   7 C7            -2.7241     2.2226     2.3670 C.ar    
   8 C8            -1.9615     2.4485     3.5025 C.ar    
   9 C9            -2.6102     2.9340     4.7731 C.3     
  10 C10           -3.0347     1.7507     5.6043 C.ar    
  11 C11           -4.3045     1.2795     5.5120 C.ar    
  12 C12           -4.7219     0.1753     6.2795 C.ar    
  13 C13           -6.0197    -0.5252     6.3691 C.2     
  14 O14           -7.0145    -0.2281     5.7372 O.2     
  15 N15           -5.9429    -1.5381     7.2493 N.am    
  16 C16           -4.5838    -1.5736     7.8015 C.3     
  17 C17           -3.8326    -0.4445     7.1418 C.ar    
  18 C18           -2.5172     0.0241     7.2528 C.ar    
  19 N19           -1.6421    -0.5594     8.0785 N.ar    
  20 C20           -0.4105    -0.1250     8.1854 C.ar    
  21 C21            0.0494     0.9638     7.4467 C.ar    
  22 C22           -0.7925     1.6064     6.5841 C.ar    
  23 C23           -2.1134     1.1346     6.4683 C.ar    
  24 C24           -7.0329    -2.4523     7.5993 C.3     
  25 H25           -6.6807    -3.1713     8.3389 H       
  26 C26           -8.2015    -1.6538     8.1804 C.3     
  27 C27           -9.3399    -2.6085     8.5458 C.3     
  28 C28           -9.8039    -3.3524     7.2920 C.3     
  29 C29           -8.6353    -4.1509     6.7109 C.3     
  30 C30           -7.4970    -3.1962     6.3454 C.3     
  31 H31           -7.8492    -2.4771     5.6058 H       
  32 O32           -6.4055    -3.9420     5.8027 O.3     
  33 C33           -0.5987     2.2224     3.4545 C.ar    
  34 N34           -0.0249     1.7924     2.3480 N.ar    
  35 H35           -2.6472     1.5896     0.3178 H       
  36 H36           -3.7908     2.3910     2.3750 H       
  37 H37           -1.8986     3.5373     5.3368 H       
  38 H38           -3.4839     3.5376     4.5274 H       
  39 H39           -5.0033     1.7578     4.8418 H       
  40 H40           -4.6136    -1.4237     8.8807 H       
  41 H41           -4.1090    -2.5265     7.5678 H       
  42 H42            0.2658    -0.6235     8.8639 H       
  43 H43            1.0701     1.2992     7.5565 H       
  44 H44           -0.4527     2.4517     6.0041 H       
  45 H45           -7.8709    -1.1238     9.0736 H       
  46 H46           -8.5537    -0.9347     7.4407 H       
  47 H47           -8.9877    -3.3275     9.2854 H       
  48 H48          -10.1724    -2.0396     8.9598 H       
  49 H49          -10.6149    -4.0326     7.5523 H       
  50 H50          -10.1561    -2.6333     6.5524 H       
  51 H51           -8.2832    -4.8699     7.4505 H       
  52 H52           -8.9660    -4.6809     5.8176 H       
  53 H53           -6.6279    -4.4398     5.0041 H       
  54 H54            0.0025     2.3964     4.3347 H       
@<TRIPOS>BOND
   1    1    2 1
   2    2    3 1
   3    2    4 1
   4    2    5 1
   5    5   34 ar
   6    5    6 ar
   7    6    7 ar
   8    6   35 1
   9    7    8 ar
  10    7   36 1
  11    8    9 1
  12    8   33 ar
  13    9   10 1
  14    9   37 1
  15    9   38 1
  16   10   23 ar
  17   10   11 ar
  18   11   12 ar
  19   11   39 1
  20   12   17 ar
  21   12   13 1
  22   13   14 2
  23   13   15 am
  24   15   16 1
  25   15   24 1
  26   16   17 1
  27   16   40 1
  28   16   41 1
  29   17   18 ar
  30   18   23 ar
  31   18   19 ar
  32   19   20 ar
  33   20   21 ar
  34   20   42 1
  35   21   22 ar
  36   21   43 1
  37   22   23 ar
  38   22   44 1
  39   24   25 1
  40   24   30 1
  41   24   26 1
  42   26   27 1
  43   26   45 1
  44   26   46 1
  45   27   28 1
  46   27   47 1
  47   27   48 1
  48   28   29 1
  49   28   49 1
  50   28   50 1
  51   29   30 1
  52   29   51 1
  53   29   52 1
  54   30   31 1
  55   30   32 1
  56   32   53 1
  57   33   34 ar
  58   33   54 1

#	End of record

