#	Name: ASD02198731
#	Creating user name:	WinNT
#	Creation time:	15. 06. 2019 20:20

#	Modifying user name:	WinNT
#	Modification time:	15. 06. 2019 20:20

#	Program:	/corina/corina34_cracker 3.40 0067  02.08.2006

@<TRIPOS>MOLECULE
ASD02198731
  45   49    0    0    0
SMALL
NO_CHARGES


@<TRIPOS>ATOM
   1 F1             2.2524    -1.7127     2.4712 F       
   2 C2            -0.0433     1.5018    -0.1150 C.2     
   3 C3            -0.0731     0.1621     0.0975 C.2     
   4 N4             1.0713    -0.5396     0.2598 N.pl3   
   5 N5             2.2358    -0.0049     0.2262 N.2     
   6 C6             2.4073     1.2846     0.0280 C.2     
   7 C7             1.2216     2.1357    -0.1605 C.2     
   8 C8             0.9797    -1.9187     0.4759 C.ar    
   9 C9             1.5803    -2.4897     1.5939 C.ar    
  10 C10            1.4889    -3.8524     1.8058 C.ar    
  11 C11            0.7982    -4.6502     0.9033 C.ar    
  12 C12            0.1989    -4.0794    -0.2125 C.ar    
  13 C13            0.2843    -2.7184    -0.4226 C.ar    
  14 C14            3.7643     1.8668    -0.0042 C.2     
  15 N15            4.3065     2.6069    -1.0170 N.pl3   
  16 N16            5.6083     2.9586    -0.6388 N.2     
  17 C17            5.8518     2.4589     0.5465 C.2     
  18 C18            4.7198     1.7712     0.9838 C.2     
  19 C19            3.6739     2.9516    -2.2182 C.ar    
  20 C20            3.8077     4.2348    -2.7318 C.ar    
  21 C21            3.1826     4.5716    -3.9165 C.ar    
  22 C22            2.4241     3.6325    -4.5909 C.ar    
  23 C23            2.2885     2.3540    -4.0818 C.ar    
  24 C24            2.9161     2.0092    -2.9009 C.ar    
  25 O25            1.3246     3.3388    -0.3483 O.2     
  26 N26            0.7060    -6.0321     1.1180 N.pl3   
  27 C27            0.0687    -6.9266     0.3164 C.2     
  28 N28            1.2591    -6.7391     2.1936 N.2     
  29 C29            0.9625    -8.0057     2.0484 C.2     
  30 C30            0.2133    -8.1520     0.8746 C.2     
  31 F31           -0.2785    -9.3112     0.3852 F       
  32 H32           -0.9546     2.0654    -0.2495 H       
  33 H33           -1.0229    -0.3503     0.1378 H       
  34 H34            1.9549    -4.2966     2.6729 H       
  35 H35           -0.3377    -4.7010    -0.9140 H       
  36 H36           -0.1820    -2.2758    -1.2904 H       
  37 H37            6.7752     2.5648     1.0965 H       
  38 H38            4.6138     1.2514     1.9245 H       
  39 H39            4.3997     4.9688    -2.2053 H       
  40 H40            3.2860     5.5695    -4.3163 H       
  41 H41            1.9362     3.8983    -5.5171 H       
  42 H42            1.6948     1.6230    -4.6106 H       
  43 H43            2.8098     1.0105    -2.5038 H       
  44 H44           -0.4575    -6.7008    -0.5993 H       
  45 H45            1.2493    -8.8027     2.7184 H       
@<TRIPOS>BOND
   1    1    9 1
   2    2    3 2
   3    2    7 1
   4    2   32 1
   5    3    4 1
   6    3   33 1
   7    4    5 1
   8    4    8 1
   9    5    6 2
  10    6    7 1
  11    6   14 1
  12    7   25 2
  13    8    9 ar
  14    8   13 ar
  15    9   10 ar
  16   10   11 ar
  17   10   34 1
  18   11   12 ar
  19   11   26 1
  20   12   13 ar
  21   12   35 1
  22   13   36 1
  23   14   15 1
  24   14   18 2
  25   15   16 1
  26   15   19 1
  27   16   17 2
  28   17   18 1
  29   17   37 1
  30   18   38 1
  31   19   20 ar
  32   19   24 ar
  33   20   21 ar
  34   20   39 1
  35   21   22 ar
  36   21   40 1
  37   22   23 ar
  38   22   41 1
  39   23   24 ar
  40   23   42 1
  41   24   43 1
  42   26   28 1
  43   26   27 1
  44   27   30 2
  45   27   44 1
  46   28   29 2
  47   29   30 1
  48   29   45 1
  49   30   31 1

#	End of record

