#	Name: ASD01814711
#	Creating user name:	WinNT
#	Creation time:	15. 06. 2019 19:32

#	Modifying user name:	WinNT
#	Modification time:	15. 06. 2019 19:32

#	Program:	/corina/corina34_cracker 3.40 0067  02.08.2006

@<TRIPOS>MOLECULE
ASD01814711
  57   61    0    0    0
SMALL
NO_CHARGES


@<TRIPOS>ATOM
   1 C1             0.0681     1.4758    -0.0286 C.3     
   2 N2             0.0432     0.0071    -0.0213 N.3     
   3 C3             0.4706    -0.5319    -1.3154 C.3     
   4 C4             0.4847    -2.0361    -1.2630 C.ar    
   5 C5             0.8041    -2.6556    -0.0622 C.ar    
   6 C6             0.8339    -4.0533     0.0376 C.ar    
   7 C7             0.5465    -4.8279    -1.0418 C.ar    
   8 C8             0.5821    -6.3296    -0.9203 C.3     
   9 C9             1.9294    -6.8377    -1.3649 C.ar    
  10 C10            2.1510    -7.1693    -2.6930 C.ar    
  11 C11            3.4057    -7.6322    -3.0572 C.ar    
  12 C12            4.3885    -7.7472    -2.0902 C.ar    
  13 Cl13           5.9646    -8.3251    -2.5326 Cl      
  14 N14            4.1412    -7.4222    -0.8352 N.ar    
  15 C15            2.9607    -6.9736    -0.4551 C.ar    
  16 C16            0.2155    -4.2309    -2.2725 C.ar    
  17 C17           -0.0880    -5.0142    -3.3980 C.ar    
  18 C18           -0.4052    -4.4104    -4.5765 C.ar    
  19 C19           -0.4346    -3.0219    -4.6867 C.ar    
  20 C20           -0.1471    -2.2291    -3.6183 C.ar    
  21 C21            0.1859    -2.8157    -2.3848 C.ar    
  22 C22            1.1075    -1.7860     1.0967 C.2     
  23 O23            1.6672    -2.2298     2.0804 O.2     
  24 N24            0.7464    -0.4868     1.0319 N.am    
  25 C25            1.1224     0.4139     2.1244 C.3     
  26 H26            0.7953     1.4267     1.8892 H       
  27 C27            0.4544    -0.0497     3.4204 C.3     
  28 C28            0.8471     0.8909     4.5614 C.3     
  29 C29            2.3670     0.8736     4.7365 C.3     
  30 C30            3.0350     1.3372     3.4404 C.3     
  31 C31            2.6423     0.3966     2.2995 C.3     
  32 H32            2.9694    -0.6162     2.5347 H       
  33 O33            3.2661     0.8296     1.0890 O.3     
  34 H34            1.0999     1.8220     0.0303 H       
  35 H35           -0.3862     1.8424    -0.9492 H       
  36 H36           -0.4911     1.8530     0.8277 H       
  37 H37           -0.2210    -0.2029    -2.0910 H       
  38 H38            1.4718    -0.1681    -1.5463 H       
  39 H39            1.0865    -4.5183     0.9790 H       
  40 H40            0.4110    -6.6142     0.1179 H       
  41 H41           -0.1954    -6.7635    -1.5489 H       
  42 H42            1.3644    -7.0695    -3.4263 H       
  43 H43            3.6135    -7.8999    -4.0826 H       
  44 H44            2.7967    -6.7135     0.5802 H       
  45 H45           -0.0695    -6.0918    -3.3291 H       
  46 H46           -0.6380    -5.0172    -5.4390 H       
  47 H47           -0.6894    -2.5682    -5.6330 H       
  48 H48           -0.1737    -1.1540    -3.7180 H       
  49 H49           -0.6283    -0.0374     3.2957 H       
  50 H50            0.7815    -1.0625     3.6557 H       
  51 H51            0.5200     1.9037     4.3262 H       
  52 H52            0.3712     0.5606     5.4847 H       
  53 H53            2.6467     1.5438     5.5493 H       
  54 H54            2.6941    -0.1392     4.9717 H       
  55 H55            2.7078     2.3501     3.2052 H       
  56 H56            4.1177     1.3249     3.5652 H       
  57 H57            4.2323     0.8435     1.1276 H       
@<TRIPOS>BOND
   1    1    2 1
   2    1   34 1
   3    1   35 1
   4    1   36 1
   5    2   24 1
   6    2    3 1
   7    3    4 1
   8    3   37 1
   9    3   38 1
  10    4   21 ar
  11    4    5 ar
  12    5    6 ar
  13    5   22 1
  14    6    7 ar
  15    6   39 1
  16    7    8 1
  17    7   16 ar
  18    8    9 1
  19    8   40 1
  20    8   41 1
  21    9   15 ar
  22    9   10 ar
  23   10   11 ar
  24   10   42 1
  25   11   12 ar
  26   11   43 1
  27   12   13 1
  28   12   14 ar
  29   14   15 ar
  30   15   44 1
  31   16   21 ar
  32   16   17 ar
  33   17   18 ar
  34   17   45 1
  35   18   19 ar
  36   18   46 1
  37   19   20 ar
  38   19   47 1
  39   20   21 ar
  40   20   48 1
  41   22   23 2
  42   22   24 am
  43   24   25 1
  44   25   26 1
  45   25   31 1
  46   25   27 1
  47   27   28 1
  48   27   49 1
  49   27   50 1
  50   28   29 1
  51   28   51 1
  52   28   52 1
  53   29   30 1
  54   29   53 1
  55   29   54 1
  56   30   31 1
  57   30   55 1
  58   30   56 1
  59   31   32 1
  60   31   33 1
  61   33   57 1

#	End of record

