#	Name: ASD01911772
#	Creating user name:	WinNT
#	Creation time:	15. 06. 2019 19:58

#	Modifying user name:	WinNT
#	Modification time:	15. 06. 2019 19:58

#	Program:	/corina/corina34_cracker 3.40 0067  02.08.2006

@<TRIPOS>MOLECULE
ASD01911772
  39   41    0    0    0
SMALL
NO_CHARGES


@<TRIPOS>ATOM
   1 N1            -0.0178     1.4648     0.0101 N.3     
   2 C2             0.0021    -0.0041     0.0020 C.3     
   3 C3            -1.4117    -0.5257     0.0127 C.2     
   4 C4            -1.8535    -1.5806     0.7086 C.2     
   5 S5            -2.7697     0.1527    -0.8829 S.3     
   6 C6            -3.8242    -1.0920    -0.2177 C.2     
   7 N7            -3.1270    -1.8632     0.5728 N.2     
   8 C8            -5.2221    -1.2323    -0.4950 C.1     
   9 C9            -6.3682    -1.3473    -0.7223 C.1     
  10 C10           -7.7660    -1.4876    -0.9995 C.ar    
  11 C11           -8.4992    -2.5207    -0.4084 C.ar    
  12 C12           -9.8452    -2.6490    -0.6798 C.ar    
  13 C13          -10.4702    -1.7584    -1.5351 C.ar    
  14 C14           -9.7509    -0.7334    -2.1244 C.ar    
  15 C15           -8.4056    -0.5887    -1.8582 C.ar    
  16 C16           -0.7742     1.9751     1.1628 C.3     
  17 C17            1.3473     2.0103    -0.0000 C.3     
  18 C18            1.2799     3.5389    -0.0515 C.3     
  19 O19            0.5148     4.0150     1.0591 O.3     
  20 C20           -0.8203     3.5041     1.0997 C.3     
  21 C21            0.7182    -0.4975    -1.2568 C.3     
  22 H22            0.5293    -0.3651     0.8851 H       
  23 H23           -1.2013    -2.1631     1.3424 H       
  24 H24           -8.0128    -3.2167     0.2590 H       
  25 H25          -10.4129    -3.4469    -0.2242 H       
  26 H26          -11.5245    -1.8640    -1.7439 H       
  27 H27          -10.2455    -0.0424    -2.7910 H       
  28 H28           -7.8457     0.2119    -2.3185 H       
  29 H29           -1.7893     1.5789     1.1364 H       
  30 H30           -0.2852     1.6635     2.0858 H       
  31 H31            1.8702     1.6992     0.9044 H       
  32 H32            1.8808     1.6398    -0.8753 H       
  33 H33            2.2884     3.9496    -0.0015 H       
  34 H34            0.8047     3.8511    -0.9814 H       
  35 H35           -1.3566     3.8153     0.2032 H       
  36 H36           -1.3308     3.8896     1.9822 H       
  37 H37            0.1910    -0.1364    -2.1398 H       
  38 H38            1.7408    -0.1202    -1.2645 H       
  39 H39            0.7330    -1.5874    -1.2628 H       
@<TRIPOS>BOND
   1    1    2 1
   2    1   17 1
   3    1   16 1
   4    2    3 1
   5    2   21 1
   6    2   22 1
   7    3    4 2
   8    3    5 1
   9    4    7 1
  10    4   23 1
  11    5    6 1
  12    6    7 2
  13    6    8 1
  14    8    9 3
  15    9   10 1
  16   10   11 ar
  17   10   15 ar
  18   11   12 ar
  19   11   24 1
  20   12   13 ar
  21   12   25 1
  22   13   14 ar
  23   13   26 1
  24   14   15 ar
  25   14   27 1
  26   15   28 1
  27   16   20 1
  28   16   29 1
  29   16   30 1
  30   17   18 1
  31   17   31 1
  32   17   32 1
  33   18   19 1
  34   18   33 1
  35   18   34 1
  36   19   20 1
  37   20   35 1
  38   20   36 1
  39   21   37 1
  40   21   38 1
  41   21   39 1

#	End of record

