#	Name: ASD01940607
#	Creating user name:	WinNT
#	Creation time:	15. 06. 2019 20:12

#	Modifying user name:	WinNT
#	Modification time:	15. 06. 2019 20:12

#	Program:	/corina/corina34_cracker 3.40 0067  02.08.2006

@<TRIPOS>MOLECULE
ASD01940607
  46   48    0    0    0
SMALL
NO_CHARGES


@<TRIPOS>ATOM
   1 C1            -0.6310     1.5080     0.5039 C.ar    
   2 C2            -0.6602     0.1054     0.5522 C.ar    
   3 C3             0.4980    -0.5973     0.8352 C.ar    
   4 C4             1.6851     0.0784     1.0712 C.ar    
   5 C5             1.7263     1.4612     1.0268 C.ar    
   6 C6             0.5770     2.1847     0.7440 C.ar    
   7 N7             0.6199     3.5725     0.6987 N.pl3   
   8 C8             1.6151     4.2647     1.3970 C.ar    
   9 C9             2.2649     3.6598     2.4646 C.ar    
  10 C10            3.2472     4.3455     3.1524 C.ar    
  11 C11            3.5843     5.6343     2.7796 C.ar    
  12 C12            2.9395     6.2415     1.7170 C.ar    
  13 C13            1.9599     5.5584     1.0199 C.ar    
  14 F14            1.3342     6.1489    -0.0217 F       
  15 I15            5.0744     6.6693     3.8272 I       
  16 F16            2.8097    -0.6176     1.3470 F       
  17 C17           -1.8545     2.2637     0.1981 C.2     
  18 O18           -2.5925     2.6166     1.0986 O.2     
  19 N19           -2.1586     2.5655    -1.0797 N.am    
  20 O20           -1.8203    -0.5592     0.3227 O.3     
  21 C21           -1.7952    -1.9174     0.3582 C.ar    
  22 C22           -1.7951    -2.5795     1.5763 C.ar    
  23 C23           -1.7699    -3.9668     1.6089 C.ar    
  24 C24           -1.7448    -4.6875     0.4209 C.ar    
  25 C25           -1.7449    -4.0240    -0.7905 C.ar    
  26 C26           -1.7753    -2.6427    -0.8249 C.ar    
  27 N27           -1.7693    -4.6376     2.8340 N.am    
  28 S28           -3.1560    -4.7158     3.7358 S.o2    
  29 N29           -4.2752    -5.5478     2.8428 N.am    
  30 O30           -2.8568    -5.5287     4.8622 O.2     
  31 O31           -3.6394    -3.3840     3.8449 O.2     
  32 H32            0.4768    -1.6765     0.8727 H       
  33 H33            2.6559     1.9785     1.2128 H       
  34 H34           -0.0402     4.0616     0.1830 H       
  35 H35            2.0023     2.6539     2.7573 H       
  36 H36            3.7525     3.8748     3.9828 H       
  37 H37            3.2044     7.2480     1.4288 H       
  38 H38           -1.5702     2.2841    -1.7977 H       
  39 H39           -2.9658     3.0641    -1.2815 H       
  40 H40           -1.8143    -2.0169     2.4980 H       
  41 H41           -1.7248    -5.7671     0.4449 H       
  42 H42           -1.7254    -4.5858    -1.7127 H       
  43 H43           -1.7799    -2.1269    -1.7738 H       
  44 H44           -0.9567    -5.0576     3.1565 H       
  45 H45           -4.0220    -5.9424     1.9936 H       
  46 H46           -5.1841    -5.6406     3.1689 H       
@<TRIPOS>BOND
   1    1    2 ar
   2    1    6 ar
   3    1   17 1
   4    2    3 ar
   5    2   20 1
   6    3    4 ar
   7    3   32 1
   8    4    5 ar
   9    4   16 1
  10    5    6 ar
  11    5   33 1
  12    6    7 1
  13    7    8 1
  14    7   34 1
  15    8    9 ar
  16    8   13 ar
  17    9   10 ar
  18    9   35 1
  19   10   11 ar
  20   10   36 1
  21   11   12 ar
  22   11   15 1
  23   12   13 ar
  24   12   37 1
  25   13   14 1
  26   17   18 2
  27   17   19 am
  28   19   38 1
  29   19   39 1
  30   20   21 1
  31   21   22 ar
  32   21   26 ar
  33   22   23 ar
  34   22   40 1
  35   23   24 ar
  36   23   27 1
  37   24   25 ar
  38   24   41 1
  39   25   26 ar
  40   25   42 1
  41   26   43 1
  42   27   28 am
  43   27   44 1
  44   28   29 am
  45   28   30 2
  46   28   31 2
  47   29   45 1
  48   29   46 1

#	End of record

