#	Name: ASD04880012
#	Creating user name:	WinNT
#	Creation time:	15. 06. 2019 20:52

#	Modifying user name:	WinNT
#	Modification time:	15. 06. 2019 20:52

#	Program:	/corina/corina34_cracker 3.40 0067  02.08.2006

@<TRIPOS>MOLECULE
ASD04880012
  44   46    0    0    0
SMALL
NO_CHARGES


@<TRIPOS>ATOM
   1 C1            -0.0281     1.3628    -0.2781 C.ar    
   2 C2            -0.0057    -0.0206    -0.2601 C.ar    
   3 C3             1.1976    -0.6937    -0.2203 C.ar    
   4 C4             2.3954     0.0246    -0.1985 C.ar    
   5 C5             2.3652     1.4211    -0.2173 C.ar    
   6 C6             1.1545     2.0809    -0.2567 C.ar    
   7 S7            -1.5698     2.2140    -0.3358 S.o2    
   8 O8            -1.3003     3.4952    -0.8883 O.2     
   9 O9            -2.5082     1.3070    -0.8978 O.2     
  10 N10           -2.0470     2.4706     1.2291 N.am    
  11 C11           -1.6449     3.6948     1.9261 C.3     
  12 C12           -2.8711     1.4733     1.9164 C.3     
  13 N13            5.1542    -2.3933    -0.0954 N.am    
  14 N14            3.8278    -1.9682    -0.1353 N.2     
  15 C15            3.6859    -0.6879    -0.1555 C.2     
  16 C16            5.0462    -0.0283    -0.1287 C.3     
  17 C17            6.0323    -1.2125    -0.0879 C.3     
  18 C18            5.5655    -3.6764    -0.0631 C.2     
  19 C19            4.5754    -4.7670     0.0578 C.ar    
  20 C20            3.2298    -4.4703     0.2821 C.ar    
  21 C21            2.3098    -5.4949     0.3942 C.ar    
  22 C22            2.7214    -6.8137     0.2843 C.ar    
  23 C23            4.0535    -7.1122     0.0625 C.ar    
  24 C24            4.9809    -6.0976    -0.0575 C.ar    
  25 O25            6.7511    -3.9367    -0.1336 O.2     
  26 F26            1.0070    -5.2107     0.6118 F       
  27 H27           -0.9326    -0.5747    -0.2769 H       
  28 H28            1.2136    -1.7735    -0.2056 H       
  29 H29            3.2874     1.9828    -0.2007 H       
  30 H30            1.1295     3.1605    -0.2712 H       
  31 H31           -2.3948     4.4689     1.7628 H       
  32 H32           -1.5576     3.4931     2.9937 H       
  33 H33           -0.6833     4.0334     1.5405 H       
  34 H34           -2.2260     0.7556     2.4231 H       
  35 H35           -3.5074     1.9702     2.6488 H       
  36 H36           -3.4933     0.9522     1.1888 H       
  37 H37            5.2004     0.5667    -1.0288 H       
  38 H38            5.1539     0.5898     0.7626 H       
  39 H39            6.6287    -1.1838     0.8241 H       
  40 H40            6.6751    -1.2069    -0.9681 H       
  41 H41            2.9090    -3.4426     0.3682 H       
  42 H42            1.9990    -7.6117     0.3725 H       
  43 H43            4.3679    -8.1420    -0.0216 H       
  44 H44            6.0199    -6.3328    -0.2355 H       
@<TRIPOS>BOND
   1    1    2 ar
   2    1    6 ar
   3    1    7 1
   4    2    3 ar
   5    2   27 1
   6    3    4 ar
   7    3   28 1
   8    4    5 ar
   9    4   15 1
  10    5    6 ar
  11    5   29 1
  12    6   30 1
  13    7    8 2
  14    7    9 2
  15    7   10 am
  16   10   11 1
  17   10   12 1
  18   11   31 1
  19   11   32 1
  20   11   33 1
  21   12   34 1
  22   12   35 1
  23   12   36 1
  24   13   14 1
  25   13   17 1
  26   13   18 am
  27   14   15 2
  28   15   16 1
  29   16   17 1
  30   16   37 1
  31   16   38 1
  32   17   39 1
  33   17   40 1
  34   18   19 1
  35   18   25 2
  36   19   20 ar
  37   19   24 ar
  38   20   21 ar
  39   20   41 1
  40   21   22 ar
  41   21   26 1
  42   22   23 ar
  43   22   42 1
  44   23   24 ar
  45   23   43 1
  46   24   44 1

#	End of record

