#	Name: ASD01150719
#	Creating user name:	WinNT
#	Creation time:	15. 06. 2019 19:04

#	Modifying user name:	WinNT
#	Modification time:	15. 06. 2019 19:04

#	Program:	/corina/corina34_cracker 3.40 0067  02.08.2006

@<TRIPOS>MOLECULE
ASD01150719
  34   35    0    0    0
SMALL
NO_CHARGES


@<TRIPOS>ATOM
   1 C1            -0.0424     1.1921     0.0129 C.2     
   2 O2             0.6610     1.2333    -0.9787 O.2     
   3 C3             0.3947     0.4266     1.1962 C.ar    
   4 C4             1.5597    -0.3444     1.1413 C.ar    
   5 C5             1.9639    -1.0571     2.2476 C.ar    
   6 C6             1.2155    -1.0109     3.4183 C.ar    
   7 C7             0.0562    -0.2458     3.4772 C.ar    
   8 C8            -0.3518     0.4749     2.3774 C.ar    
   9 O9             1.6175    -1.7149     4.5066 O.3     
  10 C10            0.8020    -1.6227     5.6764 C.3     
  11 C11           -1.3282     1.9117     0.0346 C.ar    
  12 C12           -2.5351     1.2051    -0.0924 C.ar    
  13 C13           -3.7416     1.8924    -0.0702 C.ar    
  14 C14           -3.7545     3.2646     0.0755 C.ar    
  15 C15           -2.5630     3.9696     0.2016 C.ar    
  16 C16           -1.3537     3.3011     0.1875 C.ar    
  17 O17           -2.5879     5.3218     0.3447 O.3     
  18 C18           -3.8717     5.9494     0.3567 C.3     
  19 F19           -4.6275     5.4449     1.4203 F       
  20 F20           -3.7140     7.3309     0.5107 F       
  21 F21           -4.5304     5.6868    -0.8493 F       
  22 N22           -2.5222    -0.1775    -0.2401 N.pl3   
  23 H23            2.1415    -0.3812     0.2321 H       
  24 H24            2.8635    -1.6533     2.2059 H       
  25 H25           -0.5226    -0.2128     4.3884 H       
  26 H26           -1.2499     1.0728     2.4254 H       
  27 H27           -0.2015    -1.9825     5.4491 H       
  28 H28            1.2351    -2.2314     6.4702 H       
  29 H29            0.7503    -0.5838     6.0024 H       
  30 H30           -4.6716     1.3520    -0.1676 H       
  31 H31           -4.6957     3.7939     0.0913 H       
  32 H32           -0.4301     3.8513     0.2902 H       
  33 H33           -1.6787    -0.6478    -0.3305 H       
  34 H34           -3.3568    -0.6717    -0.2528 H       
@<TRIPOS>BOND
   1    1    2 2
   2    1    3 1
   3    1   11 1
   4    3    4 ar
   5    3    8 ar
   6    4    5 ar
   7    4   23 1
   8    5    6 ar
   9    5   24 1
  10    6    7 ar
  11    6    9 1
  12    7    8 ar
  13    7   25 1
  14    8   26 1
  15    9   10 1
  16   10   27 1
  17   10   28 1
  18   10   29 1
  19   11   12 ar
  20   11   16 ar
  21   12   13 ar
  22   12   22 1
  23   13   14 ar
  24   13   30 1
  25   14   15 ar
  26   14   31 1
  27   15   16 ar
  28   15   17 1
  29   16   32 1
  30   17   18 1
  31   18   19 1
  32   18   20 1
  33   18   21 1
  34   22   33 1
  35   22   34 1

#	End of record

