#	Name: ASD02500903
#	Creating user name:	WinNT
#	Creation time:	15. 06. 2019 20:23

#	Modifying user name:	WinNT
#	Modification time:	15. 06. 2019 20:23

#	Program:	/corina/corina34_cracker 3.40 0067  02.08.2006

@<TRIPOS>MOLECULE
ASD02500903
  43   46    0    0    0
SMALL
NO_CHARGES


@<TRIPOS>ATOM
   1 C1             0.0005     1.4446     0.3268 C.2     
   2 C2             0.0005     0.0402     0.2237 C.2     
   3 C3            -1.2835    -0.6781     0.2668 C.ar    
   4 C4            -2.4530     0.1026     0.1695 C.ar    
   5 O5            -2.3886     1.4452     0.0129 O.3     
   6 C6            -1.3101     2.1252     0.4663 C.2     
   7 C7            -1.3615    -2.0596     0.3994 C.ar    
   8 C8            -2.5981    -2.6692     0.4466 C.ar    
   9 C9            -3.7523    -1.9056     0.3633 C.ar    
  10 C10           -3.6861    -0.5349     0.2264 C.ar    
  11 C11            1.2670     1.9882     0.2746 C.2     
  12 C12            2.2543     1.0775     0.1341 C.2     
  13 S13            1.5804    -0.5448     0.0630 S.3     
  14 C14            3.6841     1.3962     0.0525 C.2     
  15 N15            4.5969     0.4046     0.0572 N.am    
  16 O16            4.0458     2.5559    -0.0195 O.2     
  17 O17           -1.4095     3.2309     0.9641 O.2     
  18 C18            4.1724    -0.9807     0.2733 C.3     
  19 C19            3.8261    -1.6237    -1.0711 C.3     
  20 C20            6.0136     0.7122    -0.1538 C.3     
  21 C21            6.6721     0.9832     1.1744 C.ar    
  22 C22            7.2419    -0.0546     1.8879 C.ar    
  23 C23            7.8458     0.1941     3.1063 C.ar    
  24 C24            7.8803     1.4806     3.6108 C.ar    
  25 C25            7.3113     2.5185     2.8968 C.ar    
  26 C26            6.7112     2.2706     1.6765 C.ar    
  27 H27           -0.4605    -2.6515     0.4647 H       
  28 H28           -2.6672    -3.7422     0.5482 H       
  29 H29           -4.7163    -2.3908     0.4058 H       
  30 H30           -4.5953     0.0446     0.1640 H       
  31 H31            1.4530     3.0500     0.3401 H       
  32 H32            4.9808    -1.5390     0.7456 H       
  33 H33            3.2949    -0.9952     0.9197 H       
  34 H34            3.0177    -1.0655    -1.5434 H       
  35 H35            4.7036    -1.6092    -1.7175 H       
  36 H36            3.5103    -2.6545    -0.9103 H       
  37 H37            6.5017    -0.1354    -0.6350 H       
  38 H38            6.1035     1.5925    -0.7903 H       
  39 H39            7.2149    -1.0597     1.4937 H       
  40 H40            8.2903    -0.6169     3.6641 H       
  41 H41            8.3515     1.6747     4.5630 H       
  42 H42            7.3380     3.5236     3.2912 H       
  43 H43            6.2666     3.0815     1.1186 H       
@<TRIPOS>BOND
   1    1    2 2
   2    1   11 1
   3    1    6 1
   4    2    3 1
   5    2   13 1
   6    3    4 ar
   7    3    7 ar
   8    4    5 1
   9    4   10 ar
  10    5    6 1
  11    6   17 2
  12    7    8 ar
  13    7   27 1
  14    8    9 ar
  15    8   28 1
  16    9   10 ar
  17    9   29 1
  18   10   30 1
  19   11   12 2
  20   11   31 1
  21   12   13 1
  22   12   14 1
  23   14   15 am
  24   14   16 2
  25   15   18 1
  26   15   20 1
  27   18   19 1
  28   18   32 1
  29   18   33 1
  30   19   34 1
  31   19   35 1
  32   19   36 1
  33   20   21 1
  34   20   37 1
  35   20   38 1
  36   21   22 ar
  37   21   26 ar
  38   22   23 ar
  39   22   39 1
  40   23   24 ar
  41   23   40 1
  42   24   25 ar
  43   24   41 1
  44   25   26 ar
  45   25   42 1
  46   26   43 1

#	End of record

