#	Name: ASD09890122
#	Creating user name:	WinNT
#	Creation time:	15. 06. 2019 21:24

#	Modifying user name:	WinNT
#	Modification time:	15. 06. 2019 21:24

#	Program:	/corina/corina34_cracker 3.40 0067  02.08.2006

@<TRIPOS>MOLECULE
ASD09890122
  40   42    0    0    0
SMALL
NO_CHARGES


@<TRIPOS>ATOM
   1 C1             1.8055     1.9042     2.3768 C.ar    
   2 C2             1.7674     0.5601     2.7533 C.ar    
   3 C3             0.1361     0.1237     1.0235 C.ar    
   4 C4             0.1812     1.4502     0.6593 C.ar    
   5 C5             1.0134     2.3433     1.3328 C.ar    
   6 C6             2.4514    -0.2270     3.7823 C.2     
   7 C7             2.0088    -1.4894     3.6703 C.2     
   8 N8             1.0973    -1.5757     2.6539 N.pl3   
   9 C9             0.9265    -0.3377     2.0714 C.ar    
  10 C10            2.4507    -2.6410     4.5361 C.3     
  11 N11            1.0465     3.6904     0.9503 N.am    
  12 C12            2.2223     4.3470     0.8968 C.2     
  13 C13            2.2720     5.7292     0.3870 C.ar    
  14 C14            2.4433     8.2869    -0.5527 C.ar    
  15 N15            3.5430     7.6190    -0.2630 N.ar    
  16 C16            3.5044     6.3774     0.1951 C.ar    
  17 C17            1.0933     6.4183     0.0798 C.ar    
  18 C18            1.1940     7.7139    -0.3956 C.ar    
  19 N19            4.6826     5.7150     0.4867 N.pl3   
  20 O20            3.2422     3.7991     1.2691 O.2     
  21 C21           -0.0483     8.4972    -0.7333 C.3     
  22 C22           -0.4123     8.2681    -2.2016 C.3     
  23 H23            2.4467     2.5973     2.9011 H       
  24 H24           -0.5122    -0.5595     0.4950 H       
  25 H25           -0.4345     1.8027    -0.1549 H       
  26 H26            3.1750     0.1390     4.4956 H       
  27 H27            0.6397    -2.3870     2.3830 H       
  28 H28            1.7992    -2.7116     5.4071 H       
  29 H29            2.3950    -3.5675     3.9646 H       
  30 H30            3.4775    -2.4768     4.8628 H       
  31 H31            0.2232     4.1507     0.7240 H       
  32 H32            2.5196     9.2981    -0.9240 H       
  33 H33            0.1288     5.9502     0.2102 H       
  34 H34            5.4846     6.2201     0.6932 H       
  35 H35            4.7072     4.7454     0.4847 H       
  36 H36           -0.8705     8.1657    -0.0992 H       
  37 H37            0.1347     9.5586    -0.5657 H       
  38 H38           -1.3108     8.8347    -2.4459 H       
  39 H39            0.4099     8.5997    -2.8358 H       
  40 H40           -0.5952     7.2067    -2.3692 H       
@<TRIPOS>BOND
   1    1    2 ar
   2    1    5 ar
   3    1   23 1
   4    2    9 ar
   5    2    6 1
   6    3    4 ar
   7    3    9 ar
   8    3   24 1
   9    4    5 ar
  10    4   25 1
  11    5   11 1
  12    6    7 2
  13    6   26 1
  14    7    8 1
  15    7   10 1
  16    8    9 1
  17    8   27 1
  18   10   28 1
  19   10   29 1
  20   10   30 1
  21   11   12 am
  22   11   31 1
  23   12   13 1
  24   12   20 2
  25   13   17 ar
  26   13   16 ar
  27   14   15 ar
  28   14   18 ar
  29   14   32 1
  30   15   16 ar
  31   16   19 1
  32   17   18 ar
  33   17   33 1
  34   18   21 1
  35   19   34 1
  36   19   35 1
  37   21   22 1
  38   21   36 1
  39   21   37 1
  40   22   38 1
  41   22   39 1
  42   22   40 1

#	End of record

