#	Name: ASD01881062
#	Creating user name:	WinNT
#	Creation time:	15. 06. 2019 19:41

#	Modifying user name:	WinNT
#	Modification time:	15. 06. 2019 19:41

#	Program:	/corina/corina34_cracker 3.40 0067  02.08.2006

@<TRIPOS>MOLECULE
ASD01881062
  42   44    0    0    0
SMALL
NO_CHARGES


@<TRIPOS>ATOM
   1 O1            -0.0053     1.4895     0.0901 O.3     
   2 C2             0.0192     0.0331     0.0570 C.3     
   3 C3             1.5203    -0.3147     0.0536 C.3     
   4 N4             2.1841     0.9976     0.0856 N.am    
   5 C5             1.2483     1.9565     0.1046 C.2     
   6 C6            -0.6621    -0.5432     1.2998 C.3     
   7 O7            -2.0557    -0.2288     1.2680 O.3     
   8 O8             1.5140     3.1419     0.1320 O.2     
   9 C9             3.5673     1.2100     0.0946 C.ar    
  10 C10            4.0725     2.5031     0.1257 C.ar    
  11 C11            5.4381     2.7094     0.1345 C.ar    
  12 C12            6.3021     1.6299     0.1120 C.ar    
  13 C13            5.8022     0.3410     0.0806 C.ar    
  14 C14            4.4376     0.1279     0.0784 C.ar    
  15 C15           -2.8122    -0.6712     2.3077 C.ar    
  16 C16           -2.2264    -1.3919     3.3353 C.ar    
  17 C17           -2.9970    -1.8408     4.3922 C.ar    
  18 C18           -4.3526    -1.5724     4.4270 C.ar    
  19 C19           -4.9450    -0.8542     3.4050 C.ar    
  20 C20           -4.1776    -0.3959     2.3448 C.ar    
  21 N21           -4.7758     0.3323     1.3077 N.am    
  22 C22           -5.9096     1.0240     1.5369 C.2     
  23 O23           -6.4523     0.9574     2.6196 O.2     
  24 C24           -6.5031     1.8801     0.4479 C.3     
  25 H25           -0.4607    -0.3367    -0.8491 H       
  26 H26            1.7804    -0.8970     0.9376 H       
  27 H27            1.7859    -0.8561    -0.8544 H       
  28 H28           -0.5341    -1.6256     1.3153 H       
  29 H29           -0.2124    -0.1113     2.1939 H       
  30 H30            3.3983     3.3466     0.1425 H       
  31 H31            5.8317     3.7149     0.1586 H       
  32 H32            7.3696     1.7939     0.1186 H       
  33 H33            6.4795    -0.5000     0.0624 H       
  34 H34            4.0477    -0.8790     0.0539 H       
  35 H35           -1.1676    -1.6035     3.3110 H       
  36 H36           -2.5386    -2.4028     5.1924 H       
  37 H37           -4.9505    -1.9250     5.2544 H       
  38 H38           -6.0044    -0.6463     3.4346 H       
  39 H39           -4.3738     0.3386     0.4250 H       
  40 H40           -7.2009     1.2857    -0.1419 H       
  41 H41           -7.0310     2.7224     0.8950 H       
  42 H42           -5.7067     2.2514    -0.1970 H       
@<TRIPOS>BOND
   1    1    2 1
   2    1    5 1
   3    2    3 1
   4    2    6 1
   5    2   25 1
   6    3    4 1
   7    3   26 1
   8    3   27 1
   9    4    5 am
  10    4    9 1
  11    5    8 2
  12    6    7 1
  13    6   28 1
  14    6   29 1
  15    7   15 1
  16    9   10 ar
  17    9   14 ar
  18   10   11 ar
  19   10   30 1
  20   11   12 ar
  21   11   31 1
  22   12   13 ar
  23   12   32 1
  24   13   14 ar
  25   13   33 1
  26   14   34 1
  27   15   16 ar
  28   15   20 ar
  29   16   17 ar
  30   16   35 1
  31   17   18 ar
  32   17   36 1
  33   18   19 ar
  34   18   37 1
  35   19   20 ar
  36   19   38 1
  37   20   21 1
  38   21   22 am
  39   21   39 1
  40   22   23 2
  41   22   24 1
  42   24   40 1
  43   24   41 1
  44   24   42 1

#	End of record

