#	Name: ASD03740069
#	Creating user name:	WinNT
#	Creation time:	15. 06. 2019 20:46

#	Modifying user name:	WinNT
#	Modification time:	15. 06. 2019 20:46

#	Program:	/corina/corina34_cracker 3.40 0067  02.08.2006

@<TRIPOS>MOLECULE
ASD03740069
  59   62    0    0    0
SMALL
NO_CHARGES


@<TRIPOS>ATOM
   1 C1             0.3212     0.8668    -0.2541 C.ar    
   2 C2             0.4212    -0.5184    -0.2841 C.ar    
   3 C3             1.6421    -1.1319    -0.2894 C.ar    
   4 C4             2.8036    -0.3641    -0.2650 C.ar    
   5 C5             2.7038     1.0404    -0.2350 C.ar    
   6 C6             1.4431     1.6446    -0.2296 C.ar    
   7 N7             4.1405    -0.6660    -0.2627 N.pl3   
   8 N8             4.8794     0.5211    -0.2319 N.2     
   9 C9             4.0750     1.5489    -0.2148 C.2     
  10 O10            4.4451     2.8565    -0.1842 O.3     
  11 C11            4.7057    -2.0173    -0.2877 C.3     
  12 C12            4.9087    -2.4506    -1.7168 C.ar    
  13 C13            5.8469     3.1338    -0.1688 C.3     
  14 C14            6.0670     4.6475    -0.1348 C.3     
  15 C15            7.5678     4.9444    -0.1183 C.3     
  16 C16            6.1064    -2.1875    -2.3550 C.ar    
  17 C17            6.2932    -2.5846    -3.6656 C.ar    
  18 C18            5.2811    -3.2455    -4.3388 C.ar    
  19 C19            4.0827    -3.5084    -3.6996 C.ar    
  20 C20            3.8991    -3.1159    -2.3871 C.ar    
  21 Cl21           5.5148    -3.7440    -5.9852 Cl      
  22 N22            7.7791     6.3978    -0.0856 N.3     
  23 C23            9.1578     6.7205     0.3036 C.3     
  24 C24            7.4348     7.0087    -1.3758 C.3     
  25 C25            7.5270     8.5320    -1.2612 C.3     
  26 C26            8.9502     8.9231    -0.8537 C.3     
  27 C27            9.3014     8.2352     0.4684 C.3     
  28 C28            9.4834     6.0404     1.6084 C.2     
  29 O29            8.6054     5.8124     2.4065 O.2     
  30 O30           10.7489     5.6878     1.8839 O.3     
  31 C31           10.9890     5.0366     3.1593 C.3     
  32 H32           -0.6530     1.3329    -0.2546 H       
  33 H33           -0.4770    -1.1178    -0.3031 H       
  34 H34            1.7061    -2.2097    -0.3122 H       
  35 H35            1.3570     2.7210    -0.2070 H       
  36 H36            5.6636    -2.0202     0.2324 H       
  37 H37            4.0214    -2.7065     0.2072 H       
  38 H38            6.2971     2.6813     0.7147 H       
  39 H39            6.3091     2.7195    -1.0648 H       
  40 H40            5.6168     5.1001    -1.0183 H       
  41 H41            5.6048     5.0618     0.7612 H       
  42 H42            8.0180     4.4919     0.7652 H       
  43 H43            8.0300     4.5301    -1.0143 H       
  44 H44            6.8962    -1.6713    -1.8295 H       
  45 H45            7.2288    -2.3787    -4.1642 H       
  46 H46            3.2923    -4.0243    -4.2246 H       
  47 H47            2.9637    -3.3211    -1.8880 H       
  48 H48            9.8440     6.3726    -0.4685 H       
  49 H49            8.1291     6.6593    -2.1399 H       
  50 H50            6.4189     6.7262    -1.6519 H       
  51 H51            7.2865     8.9846    -2.2232 H       
  52 H52            6.8230     8.8835    -0.5069 H       
  53 H53            9.6505     8.6060    -1.6266 H       
  54 H54            9.0093    10.0043    -0.7287 H       
  55 H55            8.6254     8.5820     1.2499 H       
  56 H56           10.3288     8.4756     0.7421 H       
  57 H57           10.4102     4.1145     3.2111 H       
  58 H58           12.0499     4.8056     3.2553 H       
  59 H59           10.6872     5.7010     3.9690 H       
@<TRIPOS>BOND
   1    1    2 ar
   2    1    6 ar
   3    1   32 1
   4    2    3 ar
   5    2   33 1
   6    3    4 ar
   7    3   34 1
   8    4    5 ar
   9    4    7 1
  10    5    6 ar
  11    5    9 1
  12    6   35 1
  13    7    8 1
  14    7   11 1
  15    8    9 2
  16    9   10 1
  17   10   13 1
  18   11   12 1
  19   11   36 1
  20   11   37 1
  21   12   16 ar
  22   12   20 ar
  23   13   14 1
  24   13   38 1
  25   13   39 1
  26   14   15 1
  27   14   40 1
  28   14   41 1
  29   15   22 1
  30   15   42 1
  31   15   43 1
  32   16   17 ar
  33   16   44 1
  34   17   18 ar
  35   17   45 1
  36   18   19 ar
  37   18   21 1
  38   19   20 ar
  39   19   46 1
  40   20   47 1
  41   22   23 1
  42   22   24 1
  43   23   28 1
  44   23   27 1
  45   23   48 1
  46   24   25 1
  47   24   49 1
  48   24   50 1
  49   25   26 1
  50   25   51 1
  51   25   52 1
  52   26   27 1
  53   26   53 1
  54   26   54 1
  55   27   55 1
  56   27   56 1
  57   28   29 2
  58   28   30 1
  59   30   31 1
  60   31   57 1
  61   31   58 1
  62   31   59 1

#	End of record

