#	Name: ASD00311142
#	Creating user name:	WinNT
#	Creation time:	15. 06. 2019 18:34

#	Modifying user name:	WinNT
#	Modification time:	15. 06. 2019 18:34

#	Program:	/corina/corina34_cracker 3.40 0067  02.08.2006

@<TRIPOS>MOLECULE
ASD00311142
  37   40    0    0    0
SMALL
NO_CHARGES


@<TRIPOS>ATOM
   1 C1            -0.0167     1.3777     0.0096 C.2     
   2 C2             0.0021    -0.0041     0.0020 C.2     
   3 C3             1.2585    -0.6766    -0.0136 C.2     
   4 C4             2.4315     0.0673    -0.0208 C.2     
   5 C5             2.3576     1.4750    -0.0125 C.2     
   6 N6             1.1650     2.0903     0.0022 N.am    
   7 C7            -1.3435    -0.5753     0.0118 C.2     
   8 C8            -2.3231     0.3266     0.0260 C.2     
   9 S9            -1.6792     1.9565     0.0358 S.3     
  10 O10            3.3825     2.1371    -0.0187 O.2     
  11 C11            3.7475    -0.6122    -0.0365 C.ar    
  12 C12            4.5933    -0.4749    -1.1370 C.ar    
  13 C13            5.8183    -1.1099    -1.1455 C.ar    
  14 C14            6.2079    -1.8819    -0.0656 C.ar    
  15 C15            5.3732    -2.0223     1.0287 C.ar    
  16 C16            4.1484    -1.3872     1.0516 C.ar    
  17 O17            1.3083    -2.0292    -0.0209 O.3     
  18 C18           -1.5961    -2.0354     0.0059 C.ar    
  19 C19           -1.7276    -2.7206    -1.2066 C.ar    
  20 C20           -1.9635    -4.0846    -1.2042 C.ar    
  21 C21           -2.0691    -4.7682    -0.0065 C.ar    
  22 C22           -1.9396    -4.0940     1.1965 C.ar    
  23 C23           -1.6980    -2.7326     1.2078 C.ar    
  24 O24           -1.6243    -2.0488    -2.3839 O.3     
  25 F25           -2.0440    -4.7693     2.3619 F       
  26 Cl26          -4.0152    -0.0612     0.0391 Cl      
  27 H27            1.1329     3.0598     0.0073 H       
  28 H28            4.2899     0.1270    -1.9809 H       
  29 H29            6.4741    -1.0043    -1.9971 H       
  30 H30            7.1676    -2.3773    -0.0771 H       
  31 H31            5.6826    -2.6268     1.8684 H       
  32 H32            3.4997    -1.4936     1.9085 H       
  33 H33            2.2056    -2.3896    -0.0314 H       
  34 H34           -2.0658    -4.6157    -2.1390 H       
  35 H35           -2.2536    -5.8323    -0.0092 H       
  36 H36           -1.5930    -2.2098     2.1470 H       
  37 H37           -0.7240    -2.0047    -2.7340 H       
@<TRIPOS>BOND
   1    1    2 2
   2    1    6 1
   3    1    9 1
   4    2    3 1
   5    2    7 1
   6    3    4 2
   7    3   17 1
   8    4    5 1
   9    4   11 1
  10    5    6 am
  11    5   10 2
  12    6   27 1
  13    7    8 2
  14    7   18 1
  15    8    9 1
  16    8   26 1
  17   11   12 ar
  18   11   16 ar
  19   12   13 ar
  20   12   28 1
  21   13   14 ar
  22   13   29 1
  23   14   15 ar
  24   14   30 1
  25   15   16 ar
  26   15   31 1
  27   16   32 1
  28   17   33 1
  29   18   19 ar
  30   18   23 ar
  31   19   20 ar
  32   19   24 1
  33   20   21 ar
  34   20   34 1
  35   21   22 ar
  36   21   35 1
  37   22   23 ar
  38   22   25 1
  39   23   36 1
  40   24   37 1

#	End of record

