#	Name: ASD01812956
#	Creating user name:	WinNT
#	Creation time:	15. 06. 2019 19:29

#	Modifying user name:	WinNT
#	Modification time:	15. 06. 2019 19:29

#	Program:	/corina/corina34_cracker 3.40 0067  02.08.2006

@<TRIPOS>MOLECULE
ASD01812956
  55   59    0    0    0
SMALL
NO_CHARGES


@<TRIPOS>ATOM
   1 C1            -0.0175     1.3772     0.0449 C.ar    
   2 C2             0.0004    -0.0033     0.0480 C.ar    
   3 C3             1.2064    -0.6873     0.0193 C.ar    
   4 C4             2.3918     0.0066    -0.0129 C.ar    
   5 C5             2.3925     1.4048    -0.0169 C.ar    
   6 C6             1.1711     2.0915     0.0126 C.ar    
   7 C7             3.8383    -0.4196    -0.0489 C.3     
   8 N8             4.6288     0.8164    -0.0729 N.am    
   9 C9             3.7899     1.8665    -0.0543 C.2     
  10 C10            6.0913     0.8933    -0.1103 C.3     
  11 C11            6.5566     0.9153    -1.5435 C.ar    
  12 O12            1.1515     3.4479     0.0091 O.3     
  13 O13            4.1359     3.0320    -0.0662 O.2     
  14 C14            6.7064     2.1231    -2.2009 C.ar    
  15 C15            7.1322     2.1491    -3.5135 C.ar    
  16 C16            7.4115     0.9557    -4.1764 C.ar    
  17 C17            7.2589    -0.2582    -3.5092 C.ar    
  18 C18            6.8378    -0.2721    -2.1949 C.ar    
  19 C19            7.8691     0.9773    -5.5876 C.ar    
  20 C20            8.0273     2.1854    -6.2726 C.ar    
  21 C21            8.4550     2.1602    -7.5840 C.ar    
  22 N22            8.7131     1.0172    -8.1903 N.ar    
  23 C23            8.5767    -0.1443    -7.5800 C.ar    
  24 C24            8.1593    -0.2094    -6.2663 C.ar    
  25 C25            8.8870    -1.4167    -8.3255 C.3     
  26 C26           -0.1276     4.0779    -0.0868 C.3     
  27 C27            0.0114     5.4976    -0.6804 C.3     
  28 C28           -0.5143     6.4250     0.4377 C.3     
  29 O29           -0.3429     5.6683     1.6558 O.3     
  30 C30           -0.7207     4.3155     1.3197 C.3     
  31 O31           -0.7887     5.6288    -1.8571 O.3     
  32 H32           -0.9607     1.9029     0.0632 H       
  33 H33           -0.9289    -0.5529     0.0732 H       
  34 H34            1.2139    -1.7673     0.0226 H       
  35 H35            4.0797    -1.0017     0.8405 H       
  36 H36            4.0337    -1.0068    -0.9462 H       
  37 H37            6.4203     1.8027     0.3925 H       
  38 H38            6.5139     0.0252     0.3956 H       
  39 H39            6.4893     3.0474    -1.6862 H       
  40 H40            7.2484     3.0927    -4.0259 H       
  41 H41            7.4739    -1.1861    -4.0183 H       
  42 H42            6.7234    -1.2121    -1.6755 H       
  43 H43            7.8175     3.1247    -5.7826 H       
  44 H44            8.5798     3.0886    -8.1216 H       
  45 H45            8.0546    -1.1635    -5.7712 H       
  46 H46            9.9378    -1.6714    -8.1879 H       
  47 H47            8.2640    -2.2242    -7.9408 H       
  48 H48            8.6834    -1.2749    -9.3869 H       
  49 H49           -0.8046     3.4753    -0.6923 H       
  50 H50            1.0557     5.7189    -0.9007 H       
  51 H51            0.0718     7.3433     0.4758 H       
  52 H52           -1.5681     6.6528     0.2776 H       
  53 H53           -1.8062     4.2197     1.2949 H       
  54 H54           -0.2933     3.6132     2.0354 H       
  55 H55           -0.7390     6.5013    -2.2712 H       
@<TRIPOS>BOND
   1    1    2 ar
   2    1    6 ar
   3    1   32 1
   4    2    3 ar
   5    2   33 1
   6    3    4 ar
   7    3   34 1
   8    4    7 1
   9    4    5 ar
  10    5    6 ar
  11    5    9 1
  12    6   12 1
  13    7    8 1
  14    7   35 1
  15    7   36 1
  16    8    9 am
  17    8   10 1
  18    9   13 2
  19   10   11 1
  20   10   37 1
  21   10   38 1
  22   11   14 ar
  23   11   18 ar
  24   12   26 1
  25   14   15 ar
  26   14   39 1
  27   15   16 ar
  28   15   40 1
  29   16   17 ar
  30   16   19 1
  31   17   18 ar
  32   17   41 1
  33   18   42 1
  34   19   20 ar
  35   19   24 ar
  36   20   21 ar
  37   20   43 1
  38   21   22 ar
  39   21   44 1
  40   22   23 ar
  41   23   24 ar
  42   23   25 1
  43   24   45 1
  44   25   46 1
  45   25   47 1
  46   25   48 1
  47   26   27 1
  48   26   30 1
  49   26   49 1
  50   27   28 1
  51   27   31 1
  52   27   50 1
  53   28   29 1
  54   28   51 1
  55   28   52 1
  56   29   30 1
  57   30   53 1
  58   30   54 1
  59   31   55 1

#	End of record

