#	Name: ASD03331293
#	Creating user name:	WinNT
#	Creation time:	15. 06. 2019 20:38

#	Modifying user name:	WinNT
#	Modification time:	15. 06. 2019 20:38

#	Program:	/corina/corina34_cracker 3.40 0067  02.08.2006

@<TRIPOS>MOLECULE
ASD03331293
  46   49    0    0    0
SMALL
NO_CHARGES


@<TRIPOS>ATOM
   1 N1            -0.0459     1.4956     0.5698 N.am    
   2 C2             0.0019     0.1506     1.1630 C.3     
   3 C3             0.5966    -0.8151     0.1325 C.3     
   4 N4             1.8894    -0.2949    -0.3323 N.3     
   5 C5             1.7288     0.9912    -1.0237 C.3     
   6 C6             1.1805     2.0309    -0.0406 C.3     
   7 C7            -1.1849     2.2161     0.5802 C.2     
   8 O8            -2.2139     1.7206     0.9972 O.2     
   9 N9            -1.1831     3.4859     0.1284 N.am    
  10 C10           -2.3861     4.1969     0.0329 C.ar    
  11 C11           -2.4019     5.5684     0.2480 C.ar    
  12 C12            2.5724    -1.2723    -1.1904 C.3     
  13 C13            3.7649    -0.6214    -1.8425 C.ar    
  14 C14            3.6230     0.0133    -3.0628 C.ar    
  15 C15           -3.5634     3.5320    -0.2827 C.ar    
  16 C16           -4.7485     4.2350    -0.3769 C.ar    
  17 C17           -4.7631     5.6020    -0.1568 C.ar    
  18 C18           -3.5891     6.2678     0.1529 C.ar    
  19 C19            4.9969    -0.6552    -1.2170 C.ar    
  20 C20            6.0941    -0.0595    -1.8114 C.ar    
  21 C21            5.9606     0.5731    -3.0363 C.ar    
  22 C22            4.7176     0.6122    -3.6641 C.ar    
  23 O23            6.8664     1.2259    -3.8215 O.3     
  24 C24            6.2597     1.3040    -5.1249 C.3     
  25 O25            4.8462     1.2853    -4.8446 O.3     
  26 F26           -5.9233     6.2879    -0.2493 F       
  27 H27            0.6284     0.1658     2.0548 H       
  28 H28           -1.0063    -0.1698     1.4258 H       
  29 H29            0.7419    -1.7929     0.5918 H       
  30 H30           -0.0837    -0.9079    -0.7140 H       
  31 H31            2.6952     1.3234    -1.4030 H       
  32 H32            1.0327     0.8732    -1.8542 H       
  33 H33            0.9515     2.9537    -0.5736 H       
  34 H34            1.9203     2.2269     0.7355 H       
  35 H35           -0.3488     3.9073    -0.1307 H       
  36 H36           -1.4865     6.0880     0.4900 H       
  37 H37            2.9044    -2.1167    -0.5863 H       
  38 H38            1.8846    -1.6238    -1.9594 H       
  39 H39            2.6583     0.0417    -3.5475 H       
  40 H40           -3.5524     2.4658    -0.4548 H       
  41 H41           -5.6644     3.7182    -0.6227 H       
  42 H42           -3.6025     7.3340     0.3242 H       
  43 H43            5.1027    -1.1477    -0.2616 H       
  44 H44            7.0555    -0.0872    -1.3201 H       
  45 H45            6.5374     2.2337    -5.6215 H       
  46 H46            6.5442     0.4445    -5.7319 H       
@<TRIPOS>BOND
   1    1    2 1
   2    1    6 1
   3    1    7 am
   4    2    3 1
   5    2   27 1
   6    2   28 1
   7    3    4 1
   8    3   29 1
   9    3   30 1
  10    4    5 1
  11    4   12 1
  12    5    6 1
  13    5   31 1
  14    5   32 1
  15    6   33 1
  16    6   34 1
  17    7    8 2
  18    7    9 am
  19    9   10 1
  20    9   35 1
  21   10   11 ar
  22   10   15 ar
  23   11   18 ar
  24   11   36 1
  25   12   13 1
  26   12   37 1
  27   12   38 1
  28   13   19 ar
  29   13   14 ar
  30   14   22 ar
  31   14   39 1
  32   15   16 ar
  33   15   40 1
  34   16   17 ar
  35   16   41 1
  36   17   18 ar
  37   17   26 1
  38   18   42 1
  39   19   20 ar
  40   19   43 1
  41   20   21 ar
  42   20   44 1
  43   21   22 ar
  44   21   23 1
  45   22   25 1
  46   23   24 1
  47   24   25 1
  48   24   45 1
  49   24   46 1

#	End of record

