#	Name: ASD09380002
#	Creating user name:	WinNT
#	Creation time:	15. 06. 2019 21:21

#	Modifying user name:	WinNT
#	Modification time:	15. 06. 2019 21:21

#	Program:	/corina/corina34_cracker 3.40 0067  02.08.2006

@<TRIPOS>MOLECULE
ASD09380002
  57   59    0    0    0
SMALL
NO_CHARGES


@<TRIPOS>ATOM
   1 C1            -0.0167     1.3805     0.0096 C.ar    
   2 C2             0.0021    -0.0041     0.0020 C.ar    
   3 C3            -1.1809    -0.7150     0.0095 C.ar    
   4 C4            -2.3983    -0.0387     0.0248 C.ar    
   5 C5            -2.4148     1.3596     0.0324 C.ar    
   6 C6            -1.2206     2.0616     0.0305 C.ar    
   7 Cl7            1.4769     2.2652     0.0001 Cl      
   8 C8            -3.6722    -0.7985     0.0323 C.ar    
   9 C9            -3.8847    -1.8169    -0.8950 C.ar    
  10 C10           -5.0717    -2.5209    -0.8830 C.ar    
  11 C11           -6.0497    -2.2169     0.0468 C.ar    
  12 C12           -5.8442    -1.2070     0.9696 C.ar    
  13 C13           -4.6588    -0.5004     0.9705 C.ar    
  14 C14           -7.3442    -2.9885     0.0542 C.3     
  15 O15           -7.2169    -4.1241     0.9123 O.3     
  16 C16           -8.3033    -4.9317     1.0321 C.ar    
  17 C17           -8.2496    -6.0520     1.8486 C.ar    
  18 C18           -9.3553    -6.8714     1.9686 C.ar    
  19 C19          -10.5148    -6.5759     1.2757 C.ar    
  20 C20          -10.5706    -5.4602     0.4609 C.ar    
  21 C21           -9.4697    -4.6342     0.3424 C.ar    
  22 C22          -11.7194    -7.4715     1.4084 C.3     
  23 C23          -12.0907    -8.0338     0.0348 C.3     
  24 C24          -12.8506    -6.6963     1.9434 C.1     
  25 C25          -13.7528    -6.0781     2.3701 C.1     
  26 C26          -14.8841    -5.3029     2.9050 C.3     
  27 O27           -3.5977     2.0272     0.0473 O.3     
  28 C28           -4.9563     4.0258     0.0711 C.3     
  29 C29           -3.5369     3.4549     0.0544 C.3     
  30 C30          -13.2169    -9.0238     0.1849 C.2     
  31 O31          -13.6756    -9.2559     1.2784 O.2     
  32 O32          -13.7106    -9.6479    -0.8961 O.3     
  33 H33            0.9456    -0.5294    -0.0102 H       
  34 H34           -1.1626    -1.7948     0.0032 H       
  35 H35           -1.2296     3.1415     0.0364 H       
  36 H36           -3.1221    -2.0546    -1.6218 H       
  37 H37           -5.2375    -3.3103    -1.6011 H       
  38 H38           -6.6114    -0.9737     1.6930 H       
  39 H39           -4.4994     0.2879     1.6914 H       
  40 H40           -8.1474    -2.3471     0.4170 H       
  41 H41           -7.5743    -3.3217    -0.9577 H       
  42 H42           -7.3441    -6.2835     2.3898 H       
  43 H43           -9.3139    -7.7439     2.6039 H       
  44 H44          -11.4772    -5.2319    -0.0799 H       
  45 H45           -9.5138    -3.7629    -0.2942 H       
  46 H46          -11.4886    -8.2928     2.0869 H       
  47 H47          -12.4070    -7.2199    -0.6176 H       
  48 H48          -11.2244    -8.5322    -0.4001 H       
  49 H49          -15.7554    -5.9507     3.0010 H       
  50 H50          -14.6195    -4.9023     3.8836 H       
  51 H51          -15.1149    -4.4816     2.2266 H       
  52 H52           -5.4936     3.6894    -0.8156 H       
  53 H53           -5.4766     3.6799     0.9643 H       
  54 H54           -4.9099     5.1148     0.0765 H       
  55 H55           -2.9996     3.7913     0.9411 H       
  56 H56           -3.0166     3.8009    -0.8387 H       
  57 H57          -14.4326   -10.2743    -0.7499 H       
@<TRIPOS>BOND
   1    1    2 ar
   2    1    7 1
   3    1    6 ar
   4    2    3 ar
   5    2   33 1
   6    3    4 ar
   7    3   34 1
   8    4    5 ar
   9    4    8 1
  10    5    6 ar
  11    5   27 1
  12    6   35 1
  13    8    9 ar
  14    8   13 ar
  15    9   10 ar
  16    9   36 1
  17   10   11 ar
  18   10   37 1
  19   11   12 ar
  20   11   14 1
  21   12   13 ar
  22   12   38 1
  23   13   39 1
  24   14   15 1
  25   14   40 1
  26   14   41 1
  27   15   16 1
  28   16   17 ar
  29   16   21 ar
  30   17   18 ar
  31   17   42 1
  32   18   19 ar
  33   18   43 1
  34   19   20 ar
  35   19   22 1
  36   20   21 ar
  37   20   44 1
  38   21   45 1
  39   22   23 1
  40   22   24 1
  41   22   46 1
  42   23   30 1
  43   23   47 1
  44   23   48 1
  45   24   25 3
  46   25   26 1
  47   26   49 1
  48   26   50 1
  49   26   51 1
  50   27   29 1
  51   28   29 1
  52   28   52 1
  53   28   53 1
  54   28   54 1
  55   29   55 1
  56   29   56 1
  57   30   31 2
  58   30   32 1
  59   32   57 1

#	End of record

