#	Name: ASD01141115
#	Creating user name:	WinNT
#	Creation time:	15. 06. 2019 19:01

#	Modifying user name:	WinNT
#	Modification time:	15. 06. 2019 19:01

#	Program:	/corina/corina34_cracker 3.40 0067  02.08.2006

@<TRIPOS>MOLECULE
ASD01141115
  68   73    0    0    0
SMALL
NO_CHARGES


@<TRIPOS>ATOM
   1 C1            -1.1312     1.1054    -0.6005 C.3     
   2 C2            -0.7214    -0.3596    -0.3737 C.3     
   3 C3             0.1409     1.9013    -0.8123 C.3     
   4 C4             0.2334    -0.4947     0.8075 C.3     
   5 C5             0.9524     1.8399     0.5116 C.3     
   6 C6            -0.0073     3.3916    -1.0608 C.3     
   7 C7             0.9569     1.2760    -1.9455 C.3     
   8 C8             1.4601     0.4173     0.6512 C.3     
   9 C9             0.7025    -1.9449     0.9358 C.3     
  10 H10           -0.2946    -0.2230     1.7215 H       
  11 H11            0.3196     2.1018     1.3596 H       
  12 C12            2.0233     2.9106     0.2722 C.3     
  13 C13            1.2251     4.0565    -0.4111 C.3     
  14 C14            2.3434     0.2848     1.8926 C.3     
  15 H15            2.0161     0.1360    -0.2431 H       
  16 C16            1.5946    -2.0841     2.1711 C.3     
  17 C17           -0.5122    -2.8641     1.0768 C.3     
  18 C18            2.8102    -1.1658     2.0316 C.3     
  19 H19            3.2105     0.9378     1.7932 H       
  20 C20            2.0641    -3.5347     2.3000 C.3     
  21 H21            1.0295    -1.8050     3.0604 H       
  22 C22           -0.0421    -4.3145     1.2053 C.3     
  23 C23            0.8490    -4.4536     2.4413 C.3     
  24 O24            0.1077    -4.0872     3.6067 O.3     
  25 H25           -0.6785    -4.6292     3.7593 H       
  26 C26            1.4960    -2.3364    -0.3124 C.3     
  27 O27           -0.5773     3.9190    -2.2525 O.3     
  28 C28           -1.3599     4.0924    -1.0677 C.3     
  29 O29           -0.0804    -0.8532    -1.5516 O.3     
  30 C30           -0.1954    -1.9317    -3.6899 C.ar    
  31 C31            0.3137    -3.2167    -3.7102 C.ar    
  32 C32            1.0236    -3.6616    -4.8098 C.ar    
  33 C33            1.2240    -2.8216    -5.8892 C.ar    
  34 C34            0.7141    -1.5368    -5.8693 C.ar    
  35 C35            0.0054    -1.0915    -4.7691 C.ar    
  36 C36           -0.9746    -1.4487    -2.4938 C.3     
  37 H37           -1.7669     1.1804    -1.4827 H       
  38 H38           -1.6628     1.4814     0.2737 H       
  39 H39           -1.6145    -0.9536    -0.1798 H       
  40 H40            0.3181     1.1331    -2.8171 H       
  41 H41            1.7837     1.9370    -2.2055 H       
  42 H42            1.3501     0.3125    -1.6213 H       
  43 H43            2.4494     3.2478     1.2171 H       
  44 H44            2.8025     2.5349    -0.3910 H       
  45 H45            1.8377     4.5372    -1.1738 H       
  46 H46            0.9084     4.7880     0.3324 H       
  47 H47            1.7730     0.5695     2.7767 H       
  48 H48           -1.0775    -2.5853     1.9661 H       
  49 H49           -1.1473    -2.7646     0.1966 H       
  50 H50            3.3803    -1.4501     1.1472 H       
  51 H51            3.4405    -1.2612     2.9157 H       
  52 H52            2.6293    -3.8140     1.4108 H       
  53 H53            2.6991    -3.6341     3.1803 H       
  54 H54           -0.9075    -4.9695     1.3057 H       
  55 H55            0.5235    -4.5932     0.3162 H       
  56 H56            1.1837    -5.4869     2.5335 H       
  57 H57            2.2172    -1.5529    -0.5450 H       
  58 H58            2.0232    -3.2726    -0.1289 H       
  59 H59            0.8130    -2.4626    -1.1524 H       
  60 H60           -2.2519     3.4765    -0.9532 H       
  61 H61           -1.4163     5.0924    -0.6377 H       
  62 H62            0.1572    -3.8729    -2.8669 H       
  63 H63            1.4219    -4.6653    -4.8254 H       
  64 H64            1.7792    -3.1689    -6.7480 H       
  65 H65            0.8712    -0.8803    -6.7123 H       
  66 H66           -0.3923    -0.0875    -4.7532 H       
  67 H67           -1.4846    -2.2919    -2.0278 H       
  68 H68           -1.7102    -0.7106    -2.8133 H       
@<TRIPOS>BOND
   1    1    2 1
   2    1    3 1
   3    1   37 1
   4    1   38 1
   5    2    4 1
   6    2   29 1
   7    2   39 1
   8    3    5 1
   9    3    7 1
  10    3    6 1
  11    4    8 1
  12    4   10 1
  13    4    9 1
  14    5    8 1
  15    5   11 1
  16    5   12 1
  17    6   13 1
  18    6   27 1
  19    6   28 1
  20    7   40 1
  21    7   41 1
  22    7   42 1
  23    8   14 1
  24    8   15 1
  25    9   17 1
  26    9   26 1
  27    9   16 1
  28   12   13 1
  29   12   43 1
  30   12   44 1
  31   13   45 1
  32   13   46 1
  33   14   18 1
  34   14   19 1
  35   14   47 1
  36   16   20 1
  37   16   21 1
  38   16   18 1
  39   17   22 1
  40   17   48 1
  41   17   49 1
  42   18   50 1
  43   18   51 1
  44   20   23 1
  45   20   52 1
  46   20   53 1
  47   22   23 1
  48   22   54 1
  49   22   55 1
  50   23   24 1
  51   23   56 1
  52   24   25 1
  53   26   57 1
  54   26   58 1
  55   26   59 1
  56   27   28 1
  57   28   60 1
  58   28   61 1
  59   29   36 1
  60   30   31 ar
  61   30   35 ar
  62   30   36 1
  63   31   32 ar
  64   31   62 1
  65   32   33 ar
  66   32   63 1
  67   33   34 ar
  68   33   64 1
  69   34   35 ar
  70   34   65 1
  71   35   66 1
  72   36   67 1
  73   36   68 1

#	End of record

