#	Name: ASD01901616
#	Creating user name:	WinNT
#	Creation time:	15. 06. 2019 19:54

#	Modifying user name:	WinNT
#	Modification time:	15. 06. 2019 19:54

#	Program:	/corina/corina34_cracker 3.40 0067  02.08.2006

@<TRIPOS>MOLECULE
ASD01901616
  46   50    0    0    0
SMALL
NO_CHARGES


@<TRIPOS>ATOM
   1 F1             0.0849    -0.5049     2.8297 F       
   2 C2            -0.1171     0.8698     2.6669 C.3     
   3 C3             0.4902     1.6206     3.8552 C.3     
   4 C4             0.3200     3.1264     3.6419 C.3     
   5 N5             0.9875     3.5241     2.3958 N.3     
   6 C6             0.3898     2.8516     1.2353 C.3     
   7 C7             0.5621     1.3376     1.3767 C.3     
   8 C8             0.9653     4.8993     2.2381 C.ar    
   9 N9            -0.1866     5.5382     2.1574 N.ar    
  10 C10           -0.2667     6.8542     2.0065 C.ar    
  11 C11            0.8414     7.6383     1.9245 C.ar    
  12 C12            2.1116     7.0315     2.0024 C.ar    
  13 C13            3.2955     7.7737     1.9262 C.ar    
  14 C14            4.5095     7.1210     2.0093 C.ar    
  15 N15            5.6939     7.8533     1.9342 N.pl3   
  16 C16            6.8437     7.2697     1.3931 C.2     
  17 N17            6.9186     6.0927     0.8307 N.2     
  18 N18            8.2289     5.8464     0.4078 N.pl3   
  19 H19            8.5340     5.0404    -0.0374 H       
  20 C20            9.0123     6.9252     0.7224 C.ar    
  21 C21           10.3622     7.2256     0.5437 C.ar    
  22 C22           10.8261     8.4442     0.9987 C.ar    
  23 C23            9.9483     9.3270     1.6141 C.ar    
  24 N24            8.6791     9.0286     1.7748 N.ar    
  25 C25            8.1787     7.8710     1.3494 C.ar    
  26 C26            4.5628     5.7315     2.1687 C.ar    
  27 C27            3.4232     4.9913     2.2450 C.ar    
  28 C28            2.1752     5.6243     2.1689 C.ar    
  29 H29           -1.1858     1.0769     2.6116 H       
  30 H30           -0.0187     1.3231     4.7721 H       
  31 H31            1.5508     1.3817     3.9330 H       
  32 H32           -0.7413     3.3665     3.5779 H       
  33 H33            0.7641     3.6644     4.4795 H       
  34 H34           -0.6718     3.0930     1.1826 H       
  35 H35            0.8846     3.1899     0.3249 H       
  36 H36            1.6239     1.0942     1.4156 H       
  37 H37            0.1046     0.8379     0.5228 H       
  38 H38           -1.2410     7.3163     1.9468 H       
  39 H39            0.7499     8.7074     1.8014 H       
  40 H40            3.2601     8.8461     1.8032 H       
  41 H41            5.7201     8.7675     2.2574 H       
  42 H42           11.0273     6.5238     0.0625 H       
  43 H43           11.8660     8.7091     0.8769 H       
  44 H44           10.3167    10.2784     1.9683 H       
  45 H45            5.5221     5.2395     2.2316 H       
  46 H46            3.4805     3.9198     2.3681 H       
@<TRIPOS>BOND
   1    1    2 1
   2    2    7 1
   3    2    3 1
   4    2   29 1
   5    3    4 1
   6    3   30 1
   7    3   31 1
   8    4    5 1
   9    4   32 1
  10    4   33 1
  11    5    6 1
  12    5    8 1
  13    6    7 1
  14    6   34 1
  15    6   35 1
  16    7   36 1
  17    7   37 1
  18    8   28 ar
  19    8    9 ar
  20    9   10 ar
  21   10   11 ar
  22   10   38 1
  23   11   12 ar
  24   11   39 1
  25   12   28 ar
  26   12   13 ar
  27   13   14 ar
  28   13   40 1
  29   14   15 1
  30   14   26 ar
  31   15   16 1
  32   15   41 1
  33   16   25 1
  34   16   17 2
  35   17   18 1
  36   18   19 1
  37   18   20 1
  38   20   25 ar
  39   20   21 ar
  40   21   22 ar
  41   21   42 1
  42   22   23 ar
  43   22   43 1
  44   23   24 ar
  45   23   44 1
  46   24   25 ar
  47   26   27 ar
  48   26   45 1
  49   27   28 ar
  50   27   46 1

#	End of record

