#	Name: ASD01885840
#	Creating user name:	WinNT
#	Creation time:	15. 06. 2019 19:50

#	Modifying user name:	WinNT
#	Modification time:	15. 06. 2019 19:50

#	Program:	/corina/corina34_cracker 3.40 0067  02.08.2006

@<TRIPOS>MOLECULE
ASD01885840
  43   46    0    0    0
SMALL
NO_CHARGES


@<TRIPOS>ATOM
   1 C1            -0.0171     1.4131     0.0098 C.ar    
   2 C2             0.0021    -0.0041     0.0020 C.ar    
   3 C3            -1.2278    -0.7103     0.0099 C.ar    
   4 C4            -2.4020     0.0290     0.0250 C.ar    
   5 C5            -2.3363     1.4276     0.0319 C.ar    
   6 N6            -1.1801     2.0668     0.0189 N.ar    
   7 C7             2.3773     1.4225    -0.0130 C.ar    
   8 C8             2.3913     0.0293    -0.0214 C.ar    
   9 C9             1.2284    -0.6811    -0.0137 C.ar    
  10 C10           -1.2579    -2.1908     0.0017 C.2     
  11 C11           -3.5523     2.1837     0.0476 C.1     
  12 C12            3.6817     2.1772    -0.0214 C.3     
  13 C13           -1.9745    -2.9897     0.8484 C.2     
  14 C14            4.1300     2.4212     1.3965 C.ar    
  15 C15            3.7400     3.5645     2.0775 C.ar    
  16 C16            4.1708     3.7543     3.3767 C.ar    
  17 N17            4.9436     2.8641     3.9681 N.ar    
  18 C18            5.3339     1.7660     3.3513 C.ar    
  19 C19            4.9375     1.5053     2.0530 C.ar    
  20 C20            1.2046     2.1124     0.0019 C.ar    
  21 C21            3.7531     4.9931     4.1264 C.3     
  22 F22            2.5549     4.7457     4.8049 F       
  23 F23            4.7479     5.3385     5.0474 F       
  24 F24            3.5686     6.0450     3.2227 F       
  25 C25           -0.5574    -3.0345    -0.8849 C.2     
  26 N26           -0.8401    -4.2715    -0.5753 N.2     
  27 N27           -1.7265    -4.2689     0.5083 N.pl3   
  28 C28           -2.2880    -5.4545     1.1604 C.3     
  29 N29           -4.5169     2.7836     0.0600 N.1     
  30 H30           -3.3594    -0.4707     0.0310 H       
  31 H31            3.3358    -0.4943    -0.0342 H       
  32 H32            1.2521    -1.7609    -0.0193 H       
  33 H33            4.4369     1.5916    -0.5456 H       
  34 H34            3.5456     3.1322    -0.5289 H       
  35 H35           -2.6218    -2.6555     1.6457 H       
  36 H36            3.1078     4.2974     1.5984 H       
  37 H37            5.9672     1.0600     3.8680 H       
  38 H38            5.2567     0.6019     1.5547 H       
  39 H39            1.2111     3.1923     0.0073 H       
  40 H40            0.0983    -2.7139    -1.6809 H       
  41 H41           -1.6318    -5.7676     1.9725 H       
  42 H42           -3.2735    -5.2165     1.5609 H       
  43 H43           -2.3766    -6.2616     0.4331 H       
@<TRIPOS>BOND
   1    1    2 ar
   2    1   20 ar
   3    1    6 ar
   4    2    3 ar
   5    2    9 ar
   6    3   10 1
   7    3    4 ar
   8    4    5 ar
   9    4   30 1
  10    5   11 1
  11    5    6 ar
  12    7   12 1
  13    7   20 ar
  14    7    8 ar
  15    8    9 ar
  16    8   31 1
  17    9   32 1
  18   10   13 2
  19   10   25 1
  20   11   29 3
  21   12   14 1
  22   12   33 1
  23   12   34 1
  24   13   27 1
  25   13   35 1
  26   14   19 ar
  27   14   15 ar
  28   15   16 ar
  29   15   36 1
  30   16   21 1
  31   16   17 ar
  32   17   18 ar
  33   18   19 ar
  34   18   37 1
  35   19   38 1
  36   20   39 1
  37   21   22 1
  38   21   23 1
  39   21   24 1
  40   25   26 2
  41   25   40 1
  42   26   27 1
  43   27   28 1
  44   28   41 1
  45   28   42 1
  46   28   43 1

#	End of record

