#	Name: ASD01883260
#	Creating user name:	WinNT
#	Creation time:	15. 06. 2019 19:46

#	Modifying user name:	WinNT
#	Modification time:	15. 06. 2019 19:46

#	Program:	/corina/corina34_cracker 3.40 0067  02.08.2006

@<TRIPOS>MOLECULE
ASD01883260
  43   44    0    0    0
SMALL
NO_CHARGES


@<TRIPOS>ATOM
   1 N1            -0.4850     2.0290     0.4537 N.am    
   2 C2            -0.2768     0.7553     0.0716 C.2     
   3 C3            -1.3727    -0.1360    -0.0439 C.2     
   4 C4            -2.6624     0.3395     0.2471 C.2     
   5 C5            -2.8151     1.6824     0.6418 C.2     
   6 C6            -1.7309     2.4856     0.7399 C.2     
   7 O7             0.8529     0.3690    -0.1753 O.2     
   8 C8            -1.1695    -1.4942    -0.4496 C.1     
   9 N9            -1.0083    -2.5717    -0.7714 N.1     
  10 C10            0.6570     2.9394     0.5689 C.3     
  11 C11            0.8857     3.6426    -0.7705 C.3     
  12 C12            2.0783     4.5934    -0.6502 C.3     
  13 C13            2.3851     5.2026    -2.0198 C.3     
  14 C14            1.7427     5.7097     0.3409 C.3     
  15 C15           -3.8372    -0.5533     0.1403 C.ar    
  16 C16           -3.9616    -1.6525     0.9911 C.ar    
  17 C17           -5.0600    -2.4810     0.8867 C.ar    
  18 C18           -6.0364    -2.2242    -0.0591 C.ar    
  19 C19           -5.9188    -1.1361    -0.9061 C.ar    
  20 C20           -4.8289    -0.2965    -0.8080 C.ar    
  21 C21           -7.2331    -3.1336    -0.1679 C.3     
  22 N22           -6.9681    -0.8692    -1.9155 N.pl3   
  23 O23           -6.6626    -0.4321    -3.0105 O.2     
  24 O24           -8.1370    -1.0867    -1.6510 O.2     
  25 H25           -3.7969     2.0700     0.8705 H       
  26 H26           -1.8603     3.5139     1.0436 H       
  27 H27            0.4526     3.6829     1.3394 H       
  28 H28            1.5480     2.3723     0.8384 H       
  29 H29            1.0900     2.8992    -1.5410 H       
  30 H30           -0.0053     4.2097    -1.0400 H       
  31 H31            2.9486     4.0416    -0.2949 H       
  32 H32            1.5148     5.7545    -2.3751 H       
  33 H33            3.2347     5.8800    -1.9341 H       
  34 H34            2.6241     4.4074    -2.7259 H       
  35 H35            1.5242     5.2757     1.3166 H       
  36 H36            2.5924     6.3871     0.4266 H       
  37 H37            0.8725     6.2615    -0.0145 H       
  38 H38           -3.1997    -1.8544     1.7294 H       
  39 H39           -5.1575    -3.3320     1.5445 H       
  40 H40           -4.7385     0.5525    -1.4693 H       
  41 H41           -8.0583    -2.7191     0.4112 H       
  42 H42           -7.5301    -3.2200    -1.2131 H       
  43 H43           -6.9766    -4.1196     0.2197 H       
@<TRIPOS>BOND
   1    1    2 am
   2    1   10 1
   3    1    6 1
   4    2    3 1
   5    2    7 2
   6    3    4 2
   7    3    8 1
   8    4    5 1
   9    4   15 1
  10    5    6 2
  11    5   25 1
  12    6   26 1
  13    8    9 3
  14   10   11 1
  15   10   27 1
  16   10   28 1
  17   11   12 1
  18   11   29 1
  19   11   30 1
  20   12   13 1
  21   12   14 1
  22   12   31 1
  23   13   32 1
  24   13   33 1
  25   13   34 1
  26   14   35 1
  27   14   36 1
  28   14   37 1
  29   15   16 ar
  30   15   20 ar
  31   16   17 ar
  32   16   38 1
  33   17   18 ar
  34   17   39 1
  35   18   19 ar
  36   18   21 1
  37   19   20 ar
  38   19   22 1
  39   20   40 1
  40   21   41 1
  41   21   42 1
  42   21   43 1
  43   22   23 2
  44   22   24 2

#	End of record

