#	Name: ASD02440065
#	Creating user name:	WinNT
#	Creation time:	15. 06. 2019 20:21

#	Modifying user name:	WinNT
#	Modification time:	15. 06. 2019 20:21

#	Program:	/corina/corina34_cracker 3.40 0067  02.08.2006

@<TRIPOS>MOLECULE
ASD02440065
  51   54    0    0    0
SMALL
NO_CHARGES


@<TRIPOS>ATOM
   1 N1             0.0453     1.4581     0.6738 N.am    
   2 C2             0.0498     0.1308     0.8419 C.2     
   3 S3             1.7177    -0.4141     0.5929 S.3     
   4 C4             2.3501     1.2116     0.2651 C.2     
   5 C5             1.1739     2.0814     0.3789 C.2     
   6 O6            -0.9076    -0.5682     1.1144 O.2     
   7 C7            -1.2019     2.2148     0.8093 C.3     
   8 C8            -1.3715     2.6512     2.2417 C.ar    
   9 O9             1.2324     3.2858     0.2140 O.2     
  10 C10            3.6272     1.5680    -0.0242 C.2     
  11 C11            4.7058     0.5760     0.0705 C.ar    
  12 C12            5.9064     0.7749    -0.6223 C.ar    
  13 C13            6.9143    -0.1582    -0.5296 C.ar    
  14 C14            6.7419    -1.2962     0.2500 C.ar    
  15 C15            5.5522    -1.4988     0.9399 C.ar    
  16 C16            4.5396    -0.5697     0.8586 C.ar    
  17 C17           -2.1941     2.2249     4.4500 C.ar    
  18 C18           -2.0349     1.8314     3.1375 C.ar    
  19 C19           -0.8582     3.8674     2.6565 C.ar    
  20 C20           -1.0099     4.2731     3.9661 C.ar    
  21 C21           -1.6832     3.4533     4.8740 C.ar    
  22 C22           -1.8503     3.8815     6.2779 C.2     
  23 O23           -2.4333     3.1645     7.0663 O.2     
  24 O24           -1.3563     5.0672     6.6838 O.3     
  25 O25            7.7391    -2.2134     0.3375 O.3     
  26 C26            7.4962    -3.3596     1.1557 C.3     
  27 C27            8.7051    -4.2592     1.1316 C.ar    
  28 C28            9.7097    -4.0920     2.0663 C.ar    
  29 C29           10.8185    -4.9171     2.0443 C.ar    
  30 C30           10.9226    -5.9097     1.0877 C.ar    
  31 C31            9.9176    -6.0774     0.1535 C.ar    
  32 C32            8.8067    -5.2551     0.1783 C.ar    
  33 H33           -1.1663     3.0924     0.1638 H       
  34 H34           -2.0426     1.5844     0.5195 H       
  35 H35            3.8504     2.5813    -0.3240 H       
  36 H36            6.0412     1.6585    -1.2285 H       
  37 H37            7.8405    -0.0060    -1.0638 H       
  38 H38            5.4236    -2.3847     1.5441 H       
  39 H39            3.6158    -0.7279     1.3952 H       
  40 H40           -2.7127     1.5844     5.1479 H       
  41 H41           -2.4292     0.8814     2.8082 H       
  42 H42           -0.3373     4.5003     1.9533 H       
  43 H43           -0.6085     5.2224     4.2887 H       
  44 H44           -1.4902     5.3042     7.6117 H       
  45 H45            7.3011    -3.0405     2.1795 H       
  46 H46            6.6318    -3.9024     0.7733 H       
  47 H47            9.6284    -3.3166     2.8137 H       
  48 H48           11.6037    -4.7861     2.7741 H       
  49 H49           11.7893    -6.5538     1.0700 H       
  50 H50            9.9990    -6.8526    -0.5940 H       
  51 H51            8.0214    -5.3861    -0.5515 H       
@<TRIPOS>BOND
   1    1    2 am
   2    1    5 am
   3    1    7 1
   4    2    3 1
   5    2    6 2
   6    3    4 1
   7    4    5 1
   8    4   10 2
   9    5    9 2
  10    7    8 1
  11    7   33 1
  12    7   34 1
  13    8   19 ar
  14    8   18 ar
  15   10   11 1
  16   10   35 1
  17   11   12 ar
  18   11   16 ar
  19   12   13 ar
  20   12   36 1
  21   13   14 ar
  22   13   37 1
  23   14   15 ar
  24   14   25 1
  25   15   16 ar
  26   15   38 1
  27   16   39 1
  28   17   18 ar
  29   17   21 ar
  30   17   40 1
  31   18   41 1
  32   19   20 ar
  33   19   42 1
  34   20   21 ar
  35   20   43 1
  36   21   22 1
  37   22   23 2
  38   22   24 1
  39   24   44 1
  40   25   26 1
  41   26   27 1
  42   26   45 1
  43   26   46 1
  44   27   28 ar
  45   27   32 ar
  46   28   29 ar
  47   28   47 1
  48   29   30 ar
  49   29   48 1
  50   30   31 ar
  51   30   49 1
  52   31   32 ar
  53   31   50 1
  54   32   51 1

#	End of record

