#	Name: ASD01200399
#	Creating user name:	WinNT
#	Creation time:	15. 06. 2019 19:09

#	Modifying user name:	WinNT
#	Modification time:	15. 06. 2019 19:09

#	Program:	/corina/corina34_cracker 3.40 0067  02.08.2006

@<TRIPOS>MOLECULE
ASD01200399
  63   65    0    0    0
SMALL
NO_CHARGES


@<TRIPOS>ATOM
   1 N1            -0.0178     1.4608     0.0101 N.pl3   
   2 C2             0.0234     0.0209     0.2768 C.3     
   3 C3            -0.9983    -0.3264     1.3615 C.3     
   4 P4            -0.3770    -0.8917    -1.2497 P.3     
   5 C5             1.1735     2.1762    -0.1549 C.ar    
   6 O6            -0.2041    -2.4714    -0.9917 O.3     
   7 O7            -1.7750    -0.6061    -1.6428 O.2     
   8 O8             0.6171    -0.4284    -2.4283 O.3     
   9 C9             0.4916    -0.8847    -3.7767 C.3     
  10 C10            1.5911    -0.2535    -4.6331 C.3     
  11 C11           -0.5439    -3.4608    -1.9651 C.3     
  12 C12           -0.2576    -4.8530    -1.3987 C.3     
  13 C13            1.1444     3.5611    -0.2521 C.ar    
  14 C14            2.3206     4.2664    -0.4149 C.ar    
  15 C15            3.5307     3.5917    -0.4819 C.ar    
  16 C16            3.5606     2.2084    -0.3853 C.ar    
  17 C17            2.3860     1.5020    -0.2158 C.ar    
  18 N18           -2.3397     0.0478     0.9065 N.pl3   
  19 O19            4.6884     4.2870    -0.6427 O.3     
  20 C20           -3.4409    -0.1735     1.7294 C.ar    
  21 C21           -4.7165     0.1851     1.2903 C.ar    
  22 C22           -5.8025    -0.0425     2.1219 C.ar    
  23 C23           -5.5752    -0.6210     3.3640 C.ar    
  24 C24           -4.2868    -0.9498     3.7318 C.ar    
  25 N25           -3.2705    -0.7269     2.9186 N.ar    
  26 O26           -4.8915     0.7498     0.0654 O.3     
  27 C27           -6.2288     1.0875    -0.3083 C.3     
  28 C28           -6.2265     1.6972    -1.6864 C.ar    
  29 C29           -6.3655     0.8896    -2.7997 C.ar    
  30 C30           -6.3634     1.4488    -4.0639 C.ar    
  31 C31           -6.2227     2.8157    -4.2148 C.ar    
  32 C32           -6.0846     3.6234    -3.1015 C.ar    
  33 C33           -6.0911     3.0646    -1.8371 C.ar    
  34 H34           -0.8710     1.9175    -0.0562 H       
  35 H35            1.0214    -0.2575     0.6153 H       
  36 H36           -0.9676    -1.3977     1.5599 H       
  37 H37           -0.7589     0.2193     2.2742 H       
  38 H38            0.5882    -1.9700    -3.8035 H       
  39 H39           -0.4841    -0.5970    -4.1683 H       
  40 H40            2.5669    -0.5412    -4.2416 H       
  41 H41            1.4954    -0.6015    -5.6616 H       
  42 H42            1.4945     0.8319    -4.6064 H       
  43 H43           -1.6025    -3.3795    -2.2116 H       
  44 H44            0.0516    -3.3050    -2.8647 H       
  45 H45            0.8010    -4.9343    -1.1522 H       
  46 H46           -0.8531    -5.0088    -0.4992 H       
  47 H47           -0.5168    -5.6077    -2.1412 H       
  48 H48            0.2022     4.0865    -0.2007 H       
  49 H49            2.2982     5.3435    -0.4905 H       
  50 H50            4.5032     1.6839    -0.4379 H       
  51 H51            2.4095     0.4249    -0.1403 H       
  52 H52           -2.4607     0.4497     0.0320 H       
  53 H53            5.1071     4.5514     0.1879 H       
  54 H54           -6.8018     0.2242     1.8111 H       
  55 H55           -6.3992    -0.8114     4.0357 H       
  56 H56           -4.1072    -1.3994     4.6972 H       
  57 H57           -6.8437     0.1875    -0.3101 H       
  58 H58           -6.6355     1.8040     0.4053 H       
  59 H59           -6.4755    -0.1783    -2.6818 H       
  60 H60           -6.4713     0.8178    -4.9337 H       
  61 H61           -6.2204     3.2525    -5.2025 H       
  62 H62           -5.9744     4.6912    -3.2193 H       
  63 H63           -5.9832     3.6956    -0.9673 H       
@<TRIPOS>BOND
   1    1    2 1
   2    1    5 1
   3    1   34 1
   4    2    3 1
   5    2    4 1
   6    2   35 1
   7    3   18 1
   8    3   36 1
   9    3   37 1
  10    4    6 1
  11    4    7 2
  12    4    8 1
  13    5   13 ar
  14    5   17 ar
  15    6   11 1
  16    8    9 1
  17    9   10 1
  18    9   38 1
  19    9   39 1
  20   10   40 1
  21   10   41 1
  22   10   42 1
  23   11   12 1
  24   11   43 1
  25   11   44 1
  26   12   45 1
  27   12   46 1
  28   12   47 1
  29   13   14 ar
  30   13   48 1
  31   14   15 ar
  32   14   49 1
  33   15   16 ar
  34   15   19 1
  35   16   17 ar
  36   16   50 1
  37   17   51 1
  38   18   20 1
  39   18   52 1
  40   19   53 1
  41   20   21 ar
  42   20   25 ar
  43   21   22 ar
  44   21   26 1
  45   22   23 ar
  46   22   54 1
  47   23   24 ar
  48   23   55 1
  49   24   25 ar
  50   24   56 1
  51   26   27 1
  52   27   28 1
  53   27   57 1
  54   27   58 1
  55   28   29 ar
  56   28   33 ar
  57   29   30 ar
  58   29   59 1
  59   30   31 ar
  60   30   60 1
  61   31   32 ar
  62   31   61 1
  63   32   33 ar
  64   32   62 1
  65   33   63 1

#	End of record

