#	Name: ASD04882141
#	Creating user name:	WinNT
#	Creation time:	15. 06. 2019 20:54

#	Modifying user name:	WinNT
#	Modification time:	15. 06. 2019 20:54

#	Program:	/corina/corina34_cracker 3.40 0067  02.08.2006

@<TRIPOS>MOLECULE
ASD04882141
  79   83    0    0    0
SMALL
NO_CHARGES


@<TRIPOS>ATOM
   1 O1            -0.4140     1.5587    -1.2670 O.3     
   2 C2            -0.2868     0.3306    -0.7233 C.2     
   3 C3             1.0416     0.1005    -0.5056 C.2     
   4 C4             1.7262     1.2458    -0.9413 C.2     
   5 C5             0.7977     2.1137    -1.4000 C.2     
   6 C6            -1.3828    -0.5946    -0.4187 C.2     
   7 O7            -1.1426    -1.6813     0.0742 O.2     
   8 N8            -2.6561    -0.2418    -0.6844 N.am    
   9 C9            -3.6926    -1.1652    -0.4964 C.ar    
  10 C10           -4.9561    -0.7256    -0.0903 C.ar    
  11 C11           -5.9854    -1.6407     0.0966 C.ar    
  12 C12           -5.7646    -2.9835    -0.1173 C.ar    
  13 C13           -4.5041    -3.4297    -0.5229 C.ar    
  14 C14           -3.4687    -2.5106    -0.7176 C.ar    
  15 N15           -5.1836     0.6308     0.1276 N.3     
  16 C16           -4.4147     1.1148     1.2827 C.3     
  17 C17           -4.6296     2.6220     1.4398 C.3     
  18 N18           -6.0632     2.8943     1.6135 N.3     
  19 C19           -6.8320     2.4103     0.4584 C.3     
  20 C20           -6.6172     0.9031     0.3013 C.3     
  21 C21           -6.2913     4.2549     1.8320 C.ar    
  22 C22           -6.9656     5.0095     0.8801 C.ar    
  23 C23           -6.7437     6.9501     2.2652 C.ar    
  24 C24           -5.8496     4.8552     3.0040 C.ar    
  25 C25           -7.1899     6.3542     1.0996 C.ar    
  26 C26           -6.0773     6.2008     3.2172 C.ar    
  27 C27           -4.2678    -4.8680    -0.7511 C.2     
  28 N28           -5.2681    -5.7525    -0.5684 N.am    
  29 O29           -3.1705    -5.2553    -1.1039 O.2     
  30 C30           -5.0334    -7.1808    -0.7950 C.3     
  31 C31           -6.3214    -7.9592    -0.5193 C.3     
  32 C32           -6.0763    -9.4508    -0.7560 C.3     
  33 N33           -7.3095   -10.1963    -0.4920 N.am    
  34 C34           -8.2472   -10.4633    -1.4175 C.2     
  35 C35           -9.3860   -11.2406    -0.7950 C.3     
  36 C36           -9.1937   -11.0420     0.7264 C.3     
  37 C37           -7.6770   -10.7528     0.8153 C.3     
  38 O38           -8.1889   -10.1293    -2.5819 O.2     
  39 S39            1.1268     3.7120    -2.0647 S.o2    
  40 O40           -0.0659     4.4673    -1.9028 O.2     
  41 O41            2.3812     4.1168    -1.5338 O.2     
  42 N42            1.3466     3.5289    -3.6958 N.am    
  43 C43           -5.1231     4.0393     4.0421 C.3     
  44 H44            1.4803    -0.7899    -0.0800 H       
  45 H45            2.7943     1.4037    -0.9146 H       
  46 H46           -2.8548     0.6516    -1.0058 H       
  47 H47           -6.9603    -1.2982     0.4107 H       
  48 H48           -6.5665    -3.6921     0.0288 H       
  49 H49           -2.4948    -2.8520    -1.0360 H       
  50 H50           -4.7522     0.6034     2.1842 H       
  51 H51           -3.3553     0.9130     1.1248 H       
  52 H52           -4.0833     2.9781     2.3132 H       
  53 H53           -4.2671     3.1357     0.5494 H       
  54 H54           -7.8914     2.6121     0.6163 H       
  55 H55           -6.4945     2.9217    -0.4432 H       
  56 H56           -7.1634     0.5470    -0.5721 H       
  57 H57           -6.9797     0.3894     1.1917 H       
  58 H58           -7.3137     4.5449    -0.0306 H       
  59 H59           -6.9201     8.0021     2.4342 H       
  60 H60           -7.7140     6.9413     0.3601 H       
  61 H61           -5.7301     6.6692     4.1263 H       
  62 H62           -6.1434    -5.4435    -0.2869 H       
  63 H63           -4.7274    -7.3391    -1.8291 H       
  64 H64           -4.2472    -7.5304    -0.1259 H       
  65 H65           -6.6274    -7.8009     0.5148 H       
  66 H66           -7.1076    -7.6096    -1.1885 H       
  67 H67           -5.7703    -9.6092    -1.7901 H       
  68 H68           -5.2901    -9.8005    -0.0869 H       
  69 H69          -10.3453   -10.8335    -1.1146 H       
  70 H70           -9.3134   -12.2969    -1.0540 H       
  71 H71           -9.7781   -10.1952     1.0862 H       
  72 H72           -9.4478   -11.9499     1.2735 H       
  73 H73           -7.1249   -11.6740     1.0018 H       
  74 H74           -7.4782   -10.0269     1.6037 H       
  75 H75            1.1121     4.2499    -4.3008 H       
  76 H76            1.7098     2.7005    -4.0463 H       
  77 H77           -4.0479     4.1272     3.8862 H       
  78 H78           -5.3773     4.4069     5.0363 H       
  79 H79           -5.4187     2.9938     3.9547 H       
@<TRIPOS>BOND
   1    1    2 1
   2    1    5 1
   3    2    3 2
   4    2    6 1
   5    3    4 1
   6    3   44 1
   7    4    5 2
   8    4   45 1
   9    5   39 1
  10    6    7 2
  11    6    8 am
  12    8    9 1
  13    8   46 1
  14    9   10 ar
  15    9   14 ar
  16   10   11 ar
  17   10   15 1
  18   11   12 ar
  19   11   47 1
  20   12   13 ar
  21   12   48 1
  22   13   14 ar
  23   13   27 1
  24   14   49 1
  25   15   16 1
  26   15   20 1
  27   16   17 1
  28   16   50 1
  29   16   51 1
  30   17   18 1
  31   17   52 1
  32   17   53 1
  33   18   19 1
  34   18   21 1
  35   19   20 1
  36   19   54 1
  37   19   55 1
  38   20   56 1
  39   20   57 1
  40   21   22 ar
  41   21   24 ar
  42   22   25 ar
  43   22   58 1
  44   23   25 ar
  45   23   26 ar
  46   23   59 1
  47   24   26 ar
  48   24   43 1
  49   25   60 1
  50   26   61 1
  51   27   28 am
  52   27   29 2
  53   28   30 1
  54   28   62 1
  55   30   31 1
  56   30   63 1
  57   30   64 1
  58   31   32 1
  59   31   65 1
  60   31   66 1
  61   32   33 1
  62   32   67 1
  63   32   68 1
  64   33   34 am
  65   33   37 1
  66   34   35 1
  67   34   38 2
  68   35   36 1
  69   35   69 1
  70   35   70 1
  71   36   37 1
  72   36   71 1
  73   36   72 1
  74   37   73 1
  75   37   74 1
  76   39   40 2
  77   39   41 2
  78   39   42 am
  79   42   75 1
  80   42   76 1
  81   43   77 1
  82   43   78 1
  83   43   79 1

#	End of record

