#	Name: ASD01230461
#	Creating user name:	WinNT
#	Creation time:	15. 06. 2019 19:14

#	Modifying user name:	WinNT
#	Modification time:	15. 06. 2019 19:14

#	Program:	/corina/corina34_cracker 3.40 0067  02.08.2006

@<TRIPOS>MOLECULE
ASD01230461
  33   35    0    0    0
SMALL
NO_CHARGES


@<TRIPOS>ATOM
   1 C1             0.5468     0.5710     0.9193 C.ar    
   2 C2             0.3603    -0.7612     0.5234 C.ar    
   3 C3             1.4810    -1.5483     0.2599 C.ar    
   4 C4             2.7362    -0.9766     0.4015 C.ar    
   5 C5             2.8409     0.3430     0.7956 C.ar    
   6 N6             1.7662     1.0695     1.0398 N.ar    
   7 C7            -1.9345    -1.1777     1.4146 C.ar    
   8 C8            -1.0051    -1.3236     0.3877 C.ar    
   9 C9            -1.3785    -2.0081    -0.7740 C.ar    
  10 C10           -2.6619    -2.5139    -0.8544 C.ar    
  11 C11           -3.5331    -2.3279     0.2124 C.ar    
  12 N12           -3.1489    -1.6756     1.2977 N.ar    
  13 N13           -0.5554     1.3735     1.1809 N.pl3   
  14 O14           -4.7947    -2.8216     0.1399 O.3     
  15 C15           -5.6528    -2.5307     1.1526 C.ar    
  16 C16           -6.2296    -1.2714     1.2347 C.ar    
  17 C17           -7.1019    -0.9784     2.2650 C.ar    
  18 C18           -7.4000    -1.9386     3.2142 C.ar    
  19 C19           -6.8262    -3.1941     3.1350 C.ar    
  20 C20           -5.9581    -3.4942     2.1032 C.ar    
  21 H21            1.3737    -2.5783    -0.0467 H       
  22 H22            3.6247    -1.5585     0.2056 H       
  23 H23            3.8187     0.7880     0.9058 H       
  24 H24           -1.6557    -0.6550     2.3177 H       
  25 H25           -0.6808    -2.1376    -1.5881 H       
  26 H26           -2.9845    -3.0474    -1.7363 H       
  27 H27           -1.4510     1.0123     1.0896 H       
  28 H28           -0.4299     2.2955     1.4550 H       
  29 H29           -5.9965    -0.5208     0.4939 H       
  30 H30           -7.5512     0.0016     2.3293 H       
  31 H31           -8.0820    -1.7074     4.0191 H       
  32 H32           -7.0602    -3.9421     3.8780 H       
  33 H33           -5.5139    -4.4766     2.0390 H       
@<TRIPOS>BOND
   1    1    2 ar
   2    1    6 ar
   3    1   13 1
   4    2    3 ar
   5    2    8 1
   6    3    4 ar
   7    3   21 1
   8    4    5 ar
   9    4   22 1
  10    5    6 ar
  11    5   23 1
  12    7    8 ar
  13    7   12 ar
  14    7   24 1
  15    8    9 ar
  16    9   10 ar
  17    9   25 1
  18   10   11 ar
  19   10   26 1
  20   11   12 ar
  21   11   14 1
  22   13   27 1
  23   13   28 1
  24   14   15 1
  25   15   16 ar
  26   15   20 ar
  27   16   17 ar
  28   16   29 1
  29   17   18 ar
  30   17   30 1
  31   18   19 ar
  32   18   31 1
  33   19   20 ar
  34   19   32 1
  35   20   33 1

#	End of record

