#	Name: ASD01230459
#	Creating user name:	WinNT
#	Creation time:	15. 06. 2019 19:14

#	Modifying user name:	WinNT
#	Modification time:	15. 06. 2019 19:14

#	Program:	/corina/corina34_cracker 3.40 0067  02.08.2006

@<TRIPOS>MOLECULE
ASD01230459
  40   43    0    0    0
SMALL
NO_CHARGES


@<TRIPOS>ATOM
   1 S1             1.3976     0.7264     0.8974 S.o2    
   2 N2             0.9944    -0.8492     0.5926 N.am    
   3 C3             1.7992    -1.6672    -0.0414 C.2     
   4 N4             3.0368    -1.3477    -0.5228 N.pl3   
   5 C5             3.6203    -0.0054    -0.4538 C.3     
   6 C6             3.2174     0.6904     0.8496 C.3     
   7 C7             1.2987    -3.0447    -0.2359 C.2     
   8 C8             2.1066    -3.9702    -0.8597 C.2     
   9 C9             3.3799    -3.5772    -1.2944 C.2     
  10 C10            3.8068    -2.3148    -1.1198 C.2     
  11 C11           -0.3558    -3.4217     1.5947 C.ar    
  12 C12           -0.0531    -3.4248     0.2340 C.ar    
  13 C13           -1.0464    -3.7923    -0.6820 C.ar    
  14 C14           -2.2923    -4.1384    -0.1954 C.ar    
  15 C15           -2.5177    -4.1110     1.1759 C.ar    
  16 N16           -1.5576    -3.7594     2.0161 N.ar    
  17 O17           -3.7391    -4.4498     1.6599 O.3     
  18 C18           -3.9580    -4.3098     2.9937 C.ar    
  19 C19           -4.1754    -3.0504     3.5339 C.ar    
  20 C20           -4.3982    -2.9109     4.8900 C.ar    
  21 C21           -4.4048    -4.0250     5.7090 C.ar    
  22 C22           -4.1880    -5.2811     5.1733 C.ar    
  23 C23           -3.9704    -5.4267     3.8169 C.ar    
  24 O24            0.8781     1.4491    -0.2104 O.2     
  25 O25            0.9324     0.9654     2.2186 O.2     
  26 H26            4.7066    -0.0830    -0.4989 H       
  27 H27            3.2672     0.5840    -1.3000 H       
  28 H28            3.6095     1.7073     0.8644 H       
  29 H29            3.6004     0.1311     1.7032 H       
  30 H30            1.7638    -4.9830    -1.0116 H       
  31 H31            4.0254    -4.2971    -1.7755 H       
  32 H32            4.7960    -2.0504    -1.4632 H       
  33 H33            0.4036    -3.1443     2.3108 H       
  34 H34           -0.8437    -3.8045    -1.7427 H       
  35 H35           -3.0824    -4.4268    -0.8730 H       
  36 H36           -4.1700    -2.1798     2.8947 H       
  37 H37           -4.5670    -1.9308     5.3111 H       
  38 H38           -4.5791    -3.9138     6.7690 H       
  39 H39           -4.1929    -6.1496     5.8152 H       
  40 H40           -3.8055    -6.4085     3.3983 H       
@<TRIPOS>BOND
   1    1    2 am
   2    1    6 1
   3    1   24 2
   4    1   25 2
   5    2    3 2
   6    3    4 1
   7    3    7 1
   8    4    5 1
   9    4   10 1
  10    5    6 1
  11    5   26 1
  12    5   27 1
  13    6   28 1
  14    6   29 1
  15    7    8 2
  16    7   12 1
  17    8    9 1
  18    8   30 1
  19    9   10 2
  20    9   31 1
  21   10   32 1
  22   11   12 ar
  23   11   16 ar
  24   11   33 1
  25   12   13 ar
  26   13   14 ar
  27   13   34 1
  28   14   15 ar
  29   14   35 1
  30   15   16 ar
  31   15   17 1
  32   17   18 1
  33   18   19 ar
  34   18   23 ar
  35   19   20 ar
  36   19   36 1
  37   20   21 ar
  38   20   37 1
  39   21   22 ar
  40   21   38 1
  41   22   23 ar
  42   22   39 1
  43   23   40 1

#	End of record

