#	Name: ASD05740086
#	Creating user name:	WinNT
#	Creation time:	15. 06. 2019 21:02

#	Modifying user name:	WinNT
#	Modification time:	15. 06. 2019 21:02

#	Program:	/corina/corina34_cracker 3.40 0067  02.08.2006

@<TRIPOS>MOLECULE
ASD05740086
  44   47    0    0    0
SMALL
NO_CHARGES


@<TRIPOS>ATOM
   1 C1            -0.0216     1.4955     0.0224 C.3     
   2 N2            -2.6559     1.2703    -2.1216 N.ar    
   3 C3             1.2419    -0.7097    -0.0487 C.2     
   4 C4             1.2268    -2.0926    -0.0935 C.2     
   5 C5             0.0008    -0.0105    -0.0269 C.2     
   6 C6            -1.1623    -0.7121    -0.0504 C.2     
   7 C7            -1.1246    -2.1151    -0.0959 C.2     
   8 O8             0.0493    -2.7619    -0.1161 O.3     
   9 C9            -2.4845     0.0106    -0.0274 C.3     
  10 C10           -2.9839     0.1893    -1.4379 C.ar    
  11 N11           -3.7511    -0.7373    -1.9897 N.ar    
  12 O12           -2.1661    -2.7490    -0.1167 O.2     
  13 C13           -3.0973     1.4271    -3.3668 C.ar    
  14 N14           -3.8678     0.4935    -3.9181 N.ar    
  15 C15           -4.1920    -0.5849    -3.2278 C.ar    
  16 N16           -2.7568     2.5553    -4.0845 N.am    
  17 S17           -3.5838     2.9379    -5.4673 S.o2    
  18 O18           -3.0255     4.1541    -5.9452 O.2     
  19 O19           -3.6379     1.7494    -6.2443 O.2     
  20 S20            2.8763    -2.7070    -0.1117 S.3     
  21 C21            3.5512    -1.0901    -0.0586 C.2     
  22 C22            2.5953    -0.1751    -0.0245 C.2     
  23 O23            4.8808    -0.8127    -0.0482 O.3     
  24 C24            5.7469    -1.8516     0.0368 C.2     
  25 N25            7.0353    -1.7527    -0.0539 N.2     
  26 S26            5.2984    -3.4823     0.2868 S.3     
  27 C27            6.9920    -3.9655     0.2443 C.2     
  28 C28            7.7297    -2.8707     0.0527 C.2     
  29 N29           -5.1430     3.2803    -5.0272 N.am    
  30 C30           -5.4272     4.4427    -4.1820 C.3     
  31 H31            1.0005     1.8739     0.0357 H       
  32 H32           -0.5400     1.8801    -0.8559 H       
  33 H33           -0.5416     1.8218     0.9231 H       
  34 H34           -3.2075    -0.5726     0.5429 H       
  35 H35           -2.3566     0.9874     0.4392 H       
  36 H36           -4.8175    -1.3434    -3.6746 H       
  37 H37           -2.0330     3.1243    -3.7791 H       
  38 H38            2.8031     0.8841     0.0110 H       
  39 H39            7.3676    -4.9718     0.3573 H       
  40 H40            8.8075    -2.8970    -0.0123 H       
  41 H41           -5.8683     2.7112    -5.3290 H       
  42 H42           -6.4999     4.5055    -3.9992 H       
  43 H43           -4.9023     4.3384    -3.2323 H       
  44 H44           -5.0906     5.3489    -4.6855 H       
@<TRIPOS>BOND
   1    1    5 1
   2    1   31 1
   3    1   32 1
   4    1   33 1
   5    2   10 ar
   6    2   13 ar
   7    3    4 2
   8    3    5 1
   9    3   22 1
  10    4   20 1
  11    4    8 1
  12    5    6 2
  13    6    7 1
  14    6    9 1
  15    7    8 1
  16    7   12 2
  17    9   10 1
  18    9   34 1
  19    9   35 1
  20   10   11 ar
  21   11   15 ar
  22   13   14 ar
  23   13   16 1
  24   14   15 ar
  25   15   36 1
  26   16   17 am
  27   16   37 1
  28   17   18 2
  29   17   19 2
  30   17   29 am
  31   20   21 1
  32   21   22 2
  33   21   23 1
  34   22   38 1
  35   23   24 1
  36   24   25 2
  37   24   26 1
  38   25   28 1
  39   26   27 1
  40   27   28 2
  41   27   39 1
  42   28   40 1
  43   29   30 1
  44   29   41 1
  45   30   42 1
  46   30   43 1
  47   30   44 1

#	End of record

