#	Name: ASD01151028
#	Creating user name:	WinNT
#	Creation time:	15. 06. 2019 19:05

#	Modifying user name:	WinNT
#	Modification time:	15. 06. 2019 19:05

#	Program:	/corina/corina34_cracker 3.40 0067  02.08.2006

@<TRIPOS>MOLECULE
ASD01151028
  62   63    0    0    0
SMALL
NO_CHARGES


@<TRIPOS>ATOM
   1 C1            -0.1535     1.2877     0.3027 C.2     
   2 C2            -0.0825    -0.0973     0.2700 C.2     
   3 N3            -1.3293    -0.5647     0.4004 N.2     
   4 C4            -2.1679     0.4322     0.5115 C.2     
   5 N5            -1.4967     1.5963     0.4629 N.pl3   
   6 C6            -3.6599     0.2969     0.6751 C.3     
   7 C7            -2.0760     2.9388     0.5536 C.3     
   8 C8             0.9248     2.1997     0.1998 C.2     
   9 O9             0.6921     3.5282     0.2498 O.3     
  10 O10            2.0613     1.7856     0.0662 O.2     
  11 C11            1.8265     4.3901     0.1397 C.3     
  12 C12            1.3688     5.8480     0.2171 C.3     
  13 N13            1.0726    -0.8600     0.1279 N.am    
  14 C14           -4.0054     0.2261     2.1639 C.3     
  15 C15            0.9943    -2.2054     0.1126 C.2     
  16 C16            2.2281    -3.0291    -0.1522 C.3     
  17 O17           -0.0693    -2.7531     0.3118 O.2     
  18 C18           -2.1223     3.3764     2.0189 C.3     
  19 C19           -0.6961     3.5139     2.5554 C.3     
  20 C20           -2.8397     4.7235     2.1265 C.3     
  21 C21           -5.5201     0.0887     2.3299 C.3     
  22 C22            2.9724    -3.2484     1.1397 C.ar    
  23 C23            1.8219    -4.3809    -0.7426 C.3     
  24 C24            1.1970    -4.1675    -2.1228 C.3     
  25 C25            4.2725    -2.7980     1.2735 C.ar    
  26 C26            4.9552    -2.9993     2.4585 C.ar    
  27 C27            4.3377    -3.6506     3.5099 C.ar    
  28 C28            3.0374    -4.1002     3.3764 C.ar    
  29 C29            2.3532    -3.8951     2.1929 C.ar    
  30 H30           -4.1541     1.1594     0.2280 H       
  31 H31           -3.9986    -0.6131     0.1798 H       
  32 H32           -1.4632     3.6381    -0.0152 H       
  33 H33           -3.0868     2.9267     0.1459 H       
  34 H34            2.5203     4.1834     0.9546 H       
  35 H35            2.3242     4.2157    -0.8142 H       
  36 H36            0.8712     6.0225     1.1710 H       
  37 H37            2.2342     6.5055     0.1331 H       
  38 H38            0.6750     6.0547    -0.5978 H       
  39 H39            1.9343    -0.4233     0.0398 H       
  40 H40           -3.5111    -0.6365     2.6109 H       
  41 H41           -3.6666     1.1360     2.6591 H       
  42 H42            2.8716    -2.5032    -0.8575 H       
  43 H43           -2.6603     2.6306     2.6041 H       
  44 H44           -0.1581     4.2598     1.9703 H       
  45 H45           -0.7290     3.8257     3.5994 H       
  46 H46           -0.1850     2.5543     2.4788 H       
  47 H47           -3.8558     4.6256     1.7443 H       
  48 H48           -2.8727     5.0353     3.1704 H       
  49 H49           -2.3018     5.4694     1.5414 H       
  50 H50           -5.7662     0.0383     3.3906 H       
  51 H51           -6.0143     0.9512     1.8829 H       
  52 H52           -5.8589    -0.8213     1.8347 H       
  53 H53            2.7030    -5.0157    -0.8369 H       
  54 H54            1.0967    -4.8611    -0.0857 H       
  55 H55            0.8297    -5.1194    -2.5064 H       
  56 H56            0.3681    -3.4643    -2.0415 H       
  57 H57            1.9479    -3.7668    -2.8036 H       
  58 H58            4.7549    -2.2892     0.4520 H       
  59 H59            5.9711    -2.6480     2.5627 H       
  60 H60            4.8714    -3.8084     4.4355 H       
  61 H61            2.5551    -4.6093     4.1978 H       
  62 H62            1.3372    -4.2464     2.0887 H       
@<TRIPOS>BOND
   1    1    2 2
   2    1    8 1
   3    1    5 1
   4    2    3 1
   5    2   13 1
   6    3    4 2
   7    4    5 1
   8    4    6 1
   9    5    7 1
  10    6   14 1
  11    6   30 1
  12    6   31 1
  13    7   18 1
  14    7   32 1
  15    7   33 1
  16    8    9 1
  17    8   10 2
  18    9   11 1
  19   11   12 1
  20   11   34 1
  21   11   35 1
  22   12   36 1
  23   12   37 1
  24   12   38 1
  25   13   15 am
  26   13   39 1
  27   14   21 1
  28   14   40 1
  29   14   41 1
  30   15   16 1
  31   15   17 2
  32   16   22 1
  33   16   23 1
  34   16   42 1
  35   18   19 1
  36   18   20 1
  37   18   43 1
  38   19   44 1
  39   19   45 1
  40   19   46 1
  41   20   47 1
  42   20   48 1
  43   20   49 1
  44   21   50 1
  45   21   51 1
  46   21   52 1
  47   22   25 ar
  48   22   29 ar
  49   23   24 1
  50   23   53 1
  51   23   54 1
  52   24   55 1
  53   24   56 1
  54   24   57 1
  55   25   26 ar
  56   25   58 1
  57   26   27 ar
  58   26   59 1
  59   27   28 ar
  60   27   60 1
  61   28   29 ar
  62   28   61 1
  63   29   62 1

#	End of record

