#	Name: ASD01813600
#	Creating user name:	WinNT
#	Creation time:	15. 06. 2019 19:30

#	Modifying user name:	WinNT
#	Modification time:	15. 06. 2019 19:30

#	Program:	/corina/corina34_cracker 3.40 0067  02.08.2006

@<TRIPOS>MOLECULE
ASD01813600
  55   59    0    0    0
SMALL
NO_CHARGES


@<TRIPOS>ATOM
   1 C1            -0.0168     1.3825    -0.0436 C.ar    
   2 C2             0.0020    -0.0038    -0.0507 C.ar    
   3 C3             1.1975    -0.6932    -0.0477 C.ar    
   4 C4             2.4040     0.0044    -0.0380 C.ar    
   5 C5             2.3834     1.4096    -0.0313 C.ar    
   6 C6             1.1657     2.0946    -0.0340 C.ar    
   7 N7             3.6050    -0.6734    -0.0339 N.pl3   
   8 C8             4.7898    -0.0496    -0.0237 C.2     
   9 C9             4.8962     1.3266    -0.0160 C.2     
  10 C10            3.6660     2.1351    -0.0211 C.2     
  11 O11            3.7066     3.3531    -0.0152 O.2     
  12 C12            6.2155     1.9737    -0.0038 C.2     
  13 O13            6.3065     3.3187     0.0036 O.3     
  14 O14            7.2249     1.2962    -0.0005 O.2     
  15 C15            3.5837    -2.1382    -0.0406 C.3     
  16 C16            3.4403    -2.6321    -1.4571 C.ar    
  17 N17            2.2402    -2.7346    -1.9912 N.ar    
  18 C18            2.0667    -3.1646    -3.2347 C.ar    
  19 C19            3.1612    -3.5237    -4.0188 C.ar    
  20 C20            4.4335    -3.4258    -3.4828 C.ar    
  21 C21            4.5702    -2.9661    -2.1805 C.ar    
  22 F22            1.1984    -2.0441    -0.0538 F       
  23 F23            1.1457     3.4455    -0.0280 F       
  24 C24            0.6972    -3.2643    -3.7939 C.ar    
  25 C25            0.4890    -3.8102    -5.0575 C.ar    
  26 N26           -0.7263    -3.9005    -5.5591 N.ar    
  27 C27           -1.7896    -3.4808    -4.8898 C.ar    
  28 C28           -1.6603    -2.9233    -3.6202 C.ar    
  29 C29           -0.4052    -2.8158    -3.0561 C.ar    
  30 N30           -3.0493    -3.5978    -5.4617 N.3     
  31 C31           -2.9672    -4.2078    -6.7968 C.3     
  32 C32           -4.3795    -4.3723    -7.3644 C.3     
  33 O33           -5.0290    -3.0984    -7.3902 O.3     
  34 C34           -5.1268    -2.4759    -6.1063 C.3     
  35 C35           -3.7220    -2.2922    -5.5259 C.3     
  36 H36           -0.9606     1.9075    -0.0502 H       
  37 H37           -0.9295    -0.5504    -0.0582 H       
  38 H38            5.6921    -0.6430    -0.0210 H       
  39 H39            7.1957     3.6986     0.0115 H       
  40 H40            4.5134    -2.5171     0.3839 H       
  41 H41            2.7418    -2.4920     0.5545 H       
  42 H42            3.0187    -3.8739    -5.0305 H       
  43 H43            5.3008    -3.6969    -4.0664 H       
  44 H44            5.5494    -2.8779    -1.7336 H       
  45 H45            1.3321    -4.1631    -5.6328 H       
  46 H46           -2.5323    -2.5829    -3.0815 H       
  47 H47           -0.2755    -2.3880    -2.0730 H       
  48 H48           -2.3829    -3.5651    -7.4553 H       
  49 H49           -2.4890    -5.1844    -6.7220 H       
  50 H50           -4.3206    -4.7714    -8.3770 H       
  51 H51           -4.9472    -5.0576    -6.7350 H       
  52 H52           -5.6082    -1.5034    -6.2090 H       
  53 H53           -5.7162    -3.1061    -5.4403 H       
  54 H54           -3.7947    -1.8704    -4.5235 H       
  55 H55           -3.1497    -1.6189    -6.1641 H       
@<TRIPOS>BOND
   1    1    2 ar
   2    1    6 ar
   3    1   36 1
   4    2    3 ar
   5    2   37 1
   6    3    4 ar
   7    3   22 1
   8    4    5 ar
   9    4    7 1
  10    5    6 ar
  11    5   10 1
  12    6   23 1
  13    7    8 1
  14    7   15 1
  15    8    9 2
  16    8   38 1
  17    9   10 1
  18    9   12 1
  19   10   11 2
  20   12   13 1
  21   12   14 2
  22   13   39 1
  23   15   16 1
  24   15   40 1
  25   15   41 1
  26   16   17 ar
  27   16   21 ar
  28   17   18 ar
  29   18   19 ar
  30   18   24 1
  31   19   20 ar
  32   19   42 1
  33   20   21 ar
  34   20   43 1
  35   21   44 1
  36   24   25 ar
  37   24   29 ar
  38   25   26 ar
  39   25   45 1
  40   26   27 ar
  41   27   28 ar
  42   27   30 1
  43   28   29 ar
  44   28   46 1
  45   29   47 1
  46   30   31 1
  47   30   35 1
  48   31   32 1
  49   31   48 1
  50   31   49 1
  51   32   33 1
  52   32   50 1
  53   32   51 1
  54   33   34 1
  55   34   35 1
  56   34   52 1
  57   34   53 1
  58   35   54 1
  59   35   55 1

#	End of record

