#	Name: ASD07930469
#	Creating user name:	WinNT
#	Creation time:	15. 06. 2019 21:12

#	Modifying user name:	WinNT
#	Modification time:	15. 06. 2019 21:12

#	Program:	/corina/corina34_cracker 3.40 0067  02.08.2006

@<TRIPOS>MOLECULE
ASD07930469
  56   59    0    0    0
SMALL
NO_CHARGES


@<TRIPOS>ATOM
   1 C1            -0.0237     1.5451    -0.0201 C.3     
   2 N2             2.1227     1.2429     2.0324 N.2     
   3 N3             2.7594     3.3813     1.3373 N.pl3   
   4 C4             3.6749     3.8760     0.3038 C.3     
   5 C5             2.9014     4.0669    -1.0081 C.3     
   6 S6             2.1158     2.4835    -1.4437 S.o2    
   7 N7             1.3510     2.0516    -0.0277 N.am    
   8 C8             2.0803     2.1958     1.1441 C.2     
   9 C9             4.8004     2.8618     0.0904 C.3     
  10 C10            4.2604     5.1945     0.7394 C.ar    
  11 C11            3.8262     5.7902     1.9070 C.ar    
  12 C12            4.3664     7.0052     2.3082 C.ar    
  13 C13            5.3423     7.6184     1.5338 C.ar    
  14 C14            5.7737     7.0191     0.3665 C.ar    
  15 C15            5.2376     5.8053    -0.0289 C.ar    
  16 N16            3.9275     7.6108     3.4910 N.am    
  17 C17            4.7934     8.3088     4.2522 C.2     
  18 O18            5.9742     8.3316     3.9643 O.2     
  19 O19            1.0601     2.6832    -2.3737 O.2     
  20 O20            3.0947     1.4730    -1.6438 O.2     
  21 F21            5.6611     5.2208    -1.1709 F       
  22 C22            4.3069     9.0469     5.4379 C.ar    
  23 N23            3.0155     9.0174     5.7462 N.ar    
  24 C24            2.5402     9.6583     6.7900 C.ar    
  25 C25            3.3818    10.3976     7.6168 C.ar    
  26 C26            4.7425    10.4534     7.3271 C.ar    
  27 C27            5.2102     9.7624     6.2240 C.ar    
  28 C28           -0.0036     0.0153    -0.0350 C.3     
  29 C29           -1.3451    -0.7100     0.0885 C.3     
  30 C30           -0.6083    -0.6873    -1.2522 C.3     
  31 O31            2.8814    11.0567     8.6926 O.3     
  32 C32            1.4750    10.9505     8.9220 C.3     
  33 H33           -0.5341     1.8930     0.8780 H       
  34 H34           -0.5502     1.9102    -0.9018 H       
  35 H35            2.6376     1.3608     2.8459 H       
  36 H36            2.6345     3.8847     2.1570 H       
  37 H37            2.1367     4.8324    -0.8758 H       
  38 H38            3.5885     4.3662    -1.7996 H       
  39 H39            4.3759     1.9092    -0.2265 H       
  40 H40            5.4805     3.2300    -0.6778 H       
  41 H41            5.3468     2.7236     1.0234 H       
  42 H42            3.0668     5.3117     2.5077 H       
  43 H43            5.7634     8.5634     1.8438 H       
  44 H44            6.5328     7.4957    -0.2361 H       
  45 H45            3.0000     7.5282     3.7629 H       
  46 H46            1.4837     9.6114     7.0091 H       
  47 H47            5.4177    11.0197     7.9515 H       
  48 H48            6.2596     9.7835     5.9697 H       
  49 H49            0.8641    -0.4481     0.4344 H       
  50 H50           -1.3598    -1.6508     0.6388 H       
  51 H51           -2.2419    -0.0973     0.1803 H       
  52 H52           -1.0204    -0.0596    -2.0424 H       
  53 H53           -0.1382    -1.6131    -1.5840 H       
  54 H54            1.2090     9.9039     9.0700 H       
  55 H55            1.2075    11.5226     9.8104 H       
  56 H56            0.9356    11.3442     8.0604 H       
@<TRIPOS>BOND
   1    1   28 1
   2    1    7 1
   3    1   33 1
   4    1   34 1
   5    2    8 2
   6    2   35 1
   7    3    4 1
   8    3    8 1
   9    3   36 1
  10    4    5 1
  11    4    9 1
  12    4   10 1
  13    5    6 1
  14    5   37 1
  15    5   38 1
  16    6    7 am
  17    6   19 2
  18    6   20 2
  19    7    8 1
  20    9   39 1
  21    9   40 1
  22    9   41 1
  23   10   11 ar
  24   10   15 ar
  25   11   12 ar
  26   11   42 1
  27   12   13 ar
  28   12   16 1
  29   13   14 ar
  30   13   43 1
  31   14   15 ar
  32   14   44 1
  33   15   21 1
  34   16   17 am
  35   16   45 1
  36   17   18 2
  37   17   22 1
  38   22   23 ar
  39   22   27 ar
  40   23   24 ar
  41   24   25 ar
  42   24   46 1
  43   25   26 ar
  44   25   31 1
  45   26   27 ar
  46   26   47 1
  47   27   48 1
  48   28   29 1
  49   28   30 1
  50   28   49 1
  51   29   30 1
  52   29   50 1
  53   29   51 1
  54   30   52 1
  55   30   53 1
  56   31   32 1
  57   32   54 1
  58   32   55 1
  59   32   56 1

#	End of record

