#	Name: ASD01140549
#	Creating user name:	WinNT
#	Creation time:	15. 06. 2019 19:01

#	Modifying user name:	WinNT
#	Modification time:	15. 06. 2019 19:01

#	Program:	/corina/corina34_cracker 3.40 0067  02.08.2006

@<TRIPOS>MOLECULE
ASD01140549
  34   36    0    0    0
SMALL
NO_CHARGES


@<TRIPOS>ATOM
   1 O1            -0.0173     1.4232     0.0099 O.3     
   2 O2             0.9649    -1.9339     1.1172 O.3     
   3 O3             3.2915    -0.5765     1.0967 O.2     
   4 O4             4.6932     1.5746     0.8837 O.3     
   5 O5             2.4567     5.3686    -0.8948 O.3     
   6 O6            -3.4801    -3.3048    -0.8920 O.3     
   7 O7            -5.2342    -1.9530     0.7459 O.3     
   8 C8             0.0021    -0.0041     0.0020 C.3     
   9 C9             0.9022    -0.5065     1.1403 C.3     
  10 C10           -1.3974    -0.5271     0.1993 C.ar    
  11 C11            2.2852     0.0756     0.9090 C.2     
  12 C12            2.3428     1.4670     0.4476 C.ar    
  13 C13            1.1614     2.0891     0.0022 C.ar    
  14 C14            3.5567     2.1715     0.4465 C.ar    
  15 C15           -1.7979    -1.6844    -0.4419 C.ar    
  16 C16           -2.2761     0.1485     1.0257 C.ar    
  17 C17            1.2130     3.3967    -0.4464 C.ar    
  18 C18            3.5853     3.4794    -0.0043 C.ar    
  19 C19            2.4186     4.0872    -0.4507 C.ar    
  20 C20           -3.0844    -2.1667    -0.2616 C.ar    
  21 C21           -3.5609    -0.3273     1.2100 C.ar    
  22 C22           -3.9706    -1.4836     0.5657 C.ar    
  23 H23            0.3916    -0.3573    -0.9527 H       
  24 H24            0.5113    -0.1678     2.0997 H       
  25 H25           -1.1083    -2.2125    -1.0837 H       
  26 H26           -1.9579     1.0497     1.5287 H       
  27 H27            0.3134     3.8822    -0.7946 H       
  28 H28            1.5188    -2.3146     1.8124 H       
  29 H29            4.5155     4.0280    -0.0094 H       
  30 H30           -4.2453     0.2022     1.8563 H       
  31 H31            5.1880     1.1158     0.1911 H       
  32 H32            2.3054     6.0288    -0.2046 H       
  33 H33           -3.3187    -4.1120    -0.3846 H       
  34 H34           -5.3238    -2.5664     1.4880 H       
@<TRIPOS>BOND
   1    1    8 1
   2    1   13 1
   3    2   28 1
   4    2    9 1
   5    3   11 2
   6    4   14 1
   7    4   31 1
   8    5   19 1
   9    5   32 1
  10    6   20 1
  11    6   33 1
  12    7   22 1
  13    7   34 1
  14    8    9 1
  15    8   10 1
  16    8   23 1
  17    9   11 1
  18    9   24 1
  19   10   15 ar
  20   10   16 ar
  21   11   12 1
  22   12   13 ar
  23   12   14 ar
  24   13   17 ar
  25   14   18 ar
  26   15   20 ar
  27   15   25 1
  28   16   21 ar
  29   16   26 1
  30   17   19 ar
  31   17   27 1
  32   18   19 ar
  33   18   29 1
  34   20   22 ar
  35   21   22 ar
  36   21   30 1

#	End of record

