#	Name: ASD08150484
#	Creating user name:	WinNT
#	Creation time:	15. 06. 2019 21:16

#	Modifying user name:	WinNT
#	Modification time:	15. 06. 2019 21:16

#	Program:	/corina/corina34_cracker 3.40 0067  02.08.2006

@<TRIPOS>MOLECULE
ASD08150484
  49   53    0    0    0
SMALL
NO_CHARGES


@<TRIPOS>ATOM
   1 N1            -0.1346     1.3879    -2.3216 N.am    
   2 C2             0.1229     0.4237    -3.2266 C.2     
   3 C3             1.2290    -0.4364    -3.0728 C.2     
   4 C4             2.0545    -0.3032    -2.0035 C.2     
   5 C5             1.7866     0.7101    -1.0495 C.ar    
   6 C6             2.6112     0.8914     0.0773 C.ar    
   7 N7             2.3620     1.8273     0.9556 N.ar    
   8 C8             1.3180     2.6618     0.8384 C.ar    
   9 C9             0.4351     2.5522    -0.2640 C.ar    
  10 C10            0.6770     1.5497    -1.2324 C.ar    
  11 C11           -0.6506     3.4262    -0.3765 C.ar    
  12 C12           -0.8514     4.3931     0.5951 C.ar    
  13 C13            0.0268     4.4959     1.6830 C.ar    
  14 C14            1.0872     3.6532     1.8061 C.ar    
  15 O15           -0.6110     0.2931    -4.1915 O.2     
  16 C16           -2.0006     5.3243     0.4836 C.ar    
  17 C17           -1.2371     2.2340    -2.5002 C.ar    
  18 C18           -1.0668     3.5106    -3.0146 C.ar    
  19 N19           -2.1004     4.3124    -3.1848 N.ar    
  20 C20           -3.3300     3.9367    -2.8758 C.ar    
  21 C21           -3.5777     2.6724    -2.3558 C.ar    
  22 C22           -2.5202     1.8012    -2.1684 C.ar    
  23 C23           -1.9748     6.5726     1.1113 C.ar    
  24 N24           -3.0180     7.3740     0.9884 N.ar    
  25 C25           -4.0777     7.0074     0.2820 C.ar    
  26 N26           -4.1396     5.8322    -0.3276 N.ar    
  27 C27           -3.1341     4.9779    -0.2567 C.ar    
  28 N28           -5.1499     7.8757     0.1784 N.pl3   
  29 O29           -4.3623     4.7966    -3.0685 O.3     
  30 C30           -5.2845     6.9645    -3.6072 C.3     
  31 C31           -4.0532     6.0581    -3.6644 C.3     
  32 H32            1.4201    -1.2042    -3.8080 H       
  33 H33            2.9029    -0.9601    -1.8813 H       
  34 H34            3.4651     0.2454     0.2189 H       
  35 H35           -1.3273     3.3483    -1.2146 H       
  36 H36           -0.1407     5.2546     2.4331 H       
  37 H37            1.7533     3.7461     2.6511 H       
  38 H38           -0.0768     3.8523    -3.2785 H       
  39 H39           -4.5844     2.3720    -2.1052 H       
  40 H40           -2.6832     0.8124    -1.7660 H       
  41 H41           -1.1147     6.8777     1.6888 H       
  42 H42           -3.1911     4.0221    -0.7562 H       
  43 H43           -5.0919     8.7656     0.5600 H       
  44 H44           -5.9595     7.5946    -0.2759 H       
  45 H45           -6.0767     6.5405    -4.2242 H       
  46 H46           -5.6298     7.0437    -2.5764 H       
  47 H47           -5.0241     7.9550    -3.9803 H       
  48 H48           -3.2324     6.5255    -3.1205 H       
  49 H49           -3.7611     5.9072    -4.7037 H       
@<TRIPOS>BOND
   1    1    2 am
   2    1   10 1
   3    1   17 1
   4    2    3 1
   5    2   15 2
   6    3    4 2
   7    3   32 1
   8    4    5 1
   9    4   33 1
  10    5    6 ar
  11    5   10 ar
  12    6    7 ar
  13    6   34 1
  14    7    8 ar
  15    8    9 ar
  16    8   14 ar
  17    9   10 ar
  18    9   11 ar
  19   11   12 ar
  20   11   35 1
  21   12   13 ar
  22   12   16 1
  23   13   14 ar
  24   13   36 1
  25   14   37 1
  26   16   23 ar
  27   16   27 ar
  28   17   18 ar
  29   17   22 ar
  30   18   19 ar
  31   18   38 1
  32   19   20 ar
  33   20   21 ar
  34   20   29 1
  35   21   22 ar
  36   21   39 1
  37   22   40 1
  38   23   24 ar
  39   23   41 1
  40   24   25 ar
  41   25   26 ar
  42   25   28 1
  43   26   27 ar
  44   27   42 1
  45   28   43 1
  46   28   44 1
  47   29   31 1
  48   30   31 1
  49   30   45 1
  50   30   46 1
  51   30   47 1
  52   31   48 1
  53   31   49 1

#	End of record

