#	Name: ASD07300628
#	Creating user name:	WinNT
#	Creation time:	15. 06. 2019 21:10

#	Modifying user name:	WinNT
#	Modification time:	15. 06. 2019 21:10

#	Program:	/corina/corina34_cracker 3.40 0067  02.08.2006

@<TRIPOS>MOLECULE
ASD07300628
  17   18    0    0    0
SMALL
NO_CHARGES


@<TRIPOS>ATOM
   1 C1            -0.0171     1.4066     0.0098 C.2     
   2 C2             0.0021    -0.0041     0.0020 C.2     
   3 N3             1.1776     2.0840     0.0020 N.pl3   
   4 N4             1.1511    -0.6381    -0.0124 N.2     
   5 C5             2.3106     0.0249    -0.0199 C.2     
   6 C6             2.3462     1.3738    -0.0126 C.2     
   7 N7            -0.9929     2.2994     0.0291 N.2     
   8 C8            -0.4651     3.5239     0.0277 C.2     
   9 C9             0.8848     3.4125     0.0119 C.2     
  10 C10           -1.2406     4.8159     0.0454 C.3     
  11 Cl11          -1.4868    -0.8967     0.0120 Cl      
  12 H12            3.2374    -0.5294    -0.0317 H       
  13 H13            3.2944     1.8908    -0.0190 H       
  14 H14            1.5954     4.2258     0.0096 H       
  15 H15           -1.4124     5.1225     1.0772 H       
  16 H16           -0.6723     5.5880    -0.4732 H       
  17 H17           -2.1982     4.6718    -0.4550 H       
@<TRIPOS>BOND
   1    1    2 1
   2    1    3 1
   3    1    7 2
   4    2    4 2
   5    2   11 1
   6    3    6 1
   7    3    9 1
   8    4    5 1
   9    5    6 2
  10    5   12 1
  11    6   13 1
  12    7    8 1
  13    8    9 2
  14    8   10 1
  15    9   14 1
  16   10   15 1
  17   10   16 1
  18   10   17 1

#	End of record

