#	Name: ASD03331829
#	Creating user name:	WinNT
#	Creation time:	15. 06. 2019 20:39

#	Modifying user name:	WinNT
#	Modification time:	15. 06. 2019 20:39

#	Program:	/corina/corina34_cracker 3.40 0067  02.08.2006

@<TRIPOS>MOLECULE
ASD03331829
  61   63    0    0    0
SMALL
NO_CHARGES


@<TRIPOS>ATOM
   1 C1             0.1741     1.1518    -0.5133 C.2     
   2 N2             0.1421    -0.1416    -0.9070 N.pl3   
   3 C3            -1.1646    -0.5030    -1.0250 C.2     
   4 N4            -1.9175     0.5301    -0.7176 N.2     
   5 C5            -1.1271     1.5696    -0.3928 C.2     
   6 C6             1.4451     1.9223    -0.2666 C.3     
   7 N7             2.5516     0.9542    -0.1590 N.3     
   8 C8             2.5388     0.0079    -1.2835 C.3     
   9 C9             1.3444    -0.9450    -1.1464 C.3     
  10 C10           -1.5775     2.9149     0.0122 C.2     
  11 O11           -0.7604     3.7738     0.2828 O.2     
  12 N12           -2.8946     3.1919     0.0822 N.am    
  13 C13           -3.3418     4.5277     0.4843 C.3     
  14 C14           -3.3929     4.6103     2.0112 C.3     
  15 C15           -4.7151     4.7885    -0.0790 C.2     
  16 C16           -1.9981     4.3487     2.5830 C.3     
  17 C17           -3.8630     6.0045     2.4311 C.3     
  18 C18           -1.6554    -1.8341    -1.4315 C.2     
  19 O19           -0.8645    -2.7194    -1.6946 O.2     
  20 O20           -5.3174     3.9003    -0.6442 O.2     
  21 C21           -4.3687     3.5604     2.5464 C.3     
  22 C22            3.8459     1.6425    -0.0649 C.3     
  23 N23           -5.2739     6.0086     0.0451 N.am    
  24 N24           -2.9802    -2.0685    -1.5111 N.am    
  25 C25           -4.5957    -3.5308    -2.5514 C.ar    
  26 C26           -3.4467    -3.3565    -1.7906 C.ar    
  27 C27           -6.6398     6.2406    -0.4308 C.3     
  28 C28           -5.0536    -4.8044    -2.8260 C.ar    
  29 C29           -4.3695    -5.9056    -2.3445 C.ar    
  30 C30           -3.2253    -5.7356    -1.5867 C.ar    
  31 C31           -2.7620    -4.4646    -1.3084 C.ar    
  32 H32            1.6305     2.6028    -1.0976 H       
  33 H33            1.3588     2.4878     0.6613 H       
  34 H34            2.4569     0.5592    -2.2202 H       
  35 H35            3.4640    -0.5683    -1.2828 H       
  36 H36            1.5079    -1.6211    -0.3072 H       
  37 H37            1.2255    -1.5200    -2.0647 H       
  38 H38           -3.5464     2.5068    -0.1337 H       
  39 H39           -2.6450     5.2742     0.1032 H       
  40 H40           -1.3029     5.0967     2.2017 H       
  41 H41           -2.0344     4.4075     3.6708 H       
  42 H42           -1.6632     3.3555     2.2839 H       
  43 H43           -4.8419     6.2044     1.9954 H       
  44 H44           -3.9324     6.0525     3.5179 H       
  45 H45           -3.1496     6.7497     2.0794 H       
  46 H46           -4.0338     2.5672     2.2473 H       
  47 H47           -4.4050     3.6192     3.6342 H       
  48 H48           -5.3623     3.7468     2.1391 H       
  49 H49            3.8540     2.2820     0.8178 H       
  50 H50            4.6447     0.9050     0.0135 H       
  51 H51            3.9995     2.2511    -0.9560 H       
  52 H52           -4.7716     6.7332     0.4496 H       
  53 H53           -3.6100    -1.3435    -1.3745 H       
  54 H54           -5.1329    -2.6711    -2.9240 H       
  55 H55           -7.3265     5.5812     0.1001 H       
  56 H56           -6.9174     7.2785    -0.2468 H       
  57 H57           -6.6920     6.0347    -1.4999 H       
  58 H58           -5.9471    -4.9407    -3.4172 H       
  59 H59           -4.7299    -6.9005    -2.5604 H       
  60 H60           -2.6935    -6.5976    -1.2119 H       
  61 H61           -1.8681    -4.3326    -0.7169 H       
@<TRIPOS>BOND
   1    1    2 1
   2    1    6 1
   3    1    5 2
   4    2    3 1
   5    2    9 1
   6    3    4 2
   7    3   18 1
   8    4    5 1
   9    5   10 1
  10    6    7 1
  11    6   32 1
  12    6   33 1
  13    7    8 1
  14    7   22 1
  15    8    9 1
  16    8   34 1
  17    8   35 1
  18    9   36 1
  19    9   37 1
  20   10   11 2
  21   10   12 am
  22   12   13 1
  23   12   38 1
  24   13   14 1
  25   13   15 1
  26   13   39 1
  27   14   16 1
  28   14   17 1
  29   14   21 1
  30   15   20 2
  31   15   23 am
  32   16   40 1
  33   16   41 1
  34   16   42 1
  35   17   43 1
  36   17   44 1
  37   17   45 1
  38   18   24 am
  39   18   19 2
  40   21   46 1
  41   21   47 1
  42   21   48 1
  43   22   49 1
  44   22   50 1
  45   22   51 1
  46   23   27 1
  47   23   52 1
  48   24   26 1
  49   24   53 1
  50   25   26 ar
  51   25   28 ar
  52   25   54 1
  53   26   31 ar
  54   27   55 1
  55   27   56 1
  56   27   57 1
  57   28   29 ar
  58   28   58 1
  59   29   30 ar
  60   29   59 1
  61   30   31 ar
  62   30   60 1
  63   31   61 1

#	End of record

