#	Name: ASD01870596
#	Creating user name:	WinNT
#	Creation time:	15. 06. 2019 19:39

#	Modifying user name:	WinNT
#	Modification time:	15. 06. 2019 19:39

#	Program:	/corina/corina34_cracker 3.40 0067  02.08.2006

@<TRIPOS>MOLECULE
ASD01870596
  43   46    0    0    0
SMALL
NO_CHARGES


@<TRIPOS>ATOM
   1 C1            -0.0367     1.3981     0.0458 C.ar    
   2 C2            -0.0219     0.0120     0.0437 C.ar    
   3 C3             1.1770    -0.6759     0.0295 C.ar    
   4 C4             2.3811     0.0108     0.0173 C.ar    
   5 C5             2.3818     1.3963     0.0193 C.ar    
   6 C6             1.1591     2.0979     0.0337 C.ar    
   7 C7             3.4400     2.4283     0.0096 C.2     
   8 N8             2.8567     3.6405     0.0180 N.am    
   9 C9             1.5159     3.5323     0.0318 C.2     
  10 C10            3.5549     4.8574     0.0130 C.ar    
  11 C11            4.9432     4.8610    -0.0021 C.ar    
  12 C12            5.6305     6.0582    -0.0066 C.ar    
  13 C13            4.9329     7.2592     0.0035 C.ar    
  14 C14            3.5441     7.2553     0.0181 C.ar    
  15 C15            2.8573     6.0578     0.0173 C.ar    
  16 O16            0.7301     4.4583     0.0418 O.2     
  17 O17            4.6359     2.2171    -0.0037 O.2     
  18 N18            5.6295     8.4733    -0.0005 N.am    
  19 C19            5.1267     9.5364    -0.6588 C.2     
  20 C20            5.7946    10.8385    -0.5671 C.2     
  21 O21            4.1182     9.4157    -1.3295 O.2     
  22 C22            5.3936    11.9911    -1.1799 C.2     
  23 C23            6.3182    12.9832    -0.8182 C.2     
  24 C24            7.2315    12.4003    -0.0106 C.2     
  25 O25            6.9098    11.1092     0.1424 O.3     
  26 C26            4.1913    12.1642    -2.0719 C.3     
  27 C27           -1.3480     2.1408     0.0550 C.3     
  28 H28           -0.9535    -0.5343     0.0535 H       
  29 H29            1.1755    -1.7559     0.0283 H       
  30 H30            3.3148    -0.5320     0.0066 H       
  31 H31            5.4855     3.9270    -0.0099 H       
  32 H32            6.7104     6.0609    -0.0175 H       
  33 H33            3.0015     8.1891     0.0264 H       
  34 H34            1.7774     6.0547     0.0246 H       
  35 H35            6.4741     8.5494     0.4704 H       
  36 H36            6.3029    14.0179    -1.1274 H       
  37 H37            8.0790    12.8950     0.4404 H       
  38 H38            3.3277    12.4420    -1.4677 H       
  39 H39            4.3908    12.9481    -2.8025 H       
  40 H40            3.9859    11.2278    -2.5906 H       
  41 H41           -1.6578     2.3183     1.0848 H       
  42 H42           -1.2287     3.0950    -0.4582 H       
  43 H43           -2.1059     1.5462    -0.4551 H       
@<TRIPOS>BOND
   1    1    2 ar
   2    1    6 ar
   3    1   27 1
   4    2    3 ar
   5    2   28 1
   6    3    4 ar
   7    3   29 1
   8    4    5 ar
   9    4   30 1
  10    5    7 1
  11    5    6 ar
  12    6    9 1
  13    7    8 am
  14    7   17 2
  15    8    9 am
  16    8   10 1
  17    9   16 2
  18   10   11 ar
  19   10   15 ar
  20   11   12 ar
  21   11   31 1
  22   12   13 ar
  23   12   32 1
  24   13   14 ar
  25   13   18 1
  26   14   15 ar
  27   14   33 1
  28   15   34 1
  29   18   19 am
  30   18   35 1
  31   19   20 1
  32   19   21 2
  33   20   22 2
  34   20   25 1
  35   22   23 1
  36   22   26 1
  37   23   24 2
  38   23   36 1
  39   24   25 1
  40   24   37 1
  41   26   38 1
  42   26   39 1
  43   26   40 1
  44   27   41 1
  45   27   42 1
  46   27   43 1

#	End of record

