#	Name: ASD02560339
#	Creating user name:	WinNT
#	Creation time:	15. 06. 2019 20:25

#	Modifying user name:	WinNT
#	Modification time:	15. 06. 2019 20:25

#	Program:	/corina/corina34_cracker 3.40 0067  02.08.2006

@<TRIPOS>MOLECULE
ASD02560339
  42   44    0    0    0
SMALL
NO_CHARGES


@<TRIPOS>ATOM
   1 C1            -0.0083     1.4097     0.1367 C.2     
   2 C2             0.0074     0.0032     0.1007 C.2     
   3 C3             1.1788    -0.6643     0.0548 C.2     
   4 N4             2.3671     0.0156     0.0425 N.pl3   
   5 C5             2.3818     1.3907     0.0765 C.2     
   6 C6             1.1635     2.0988     0.1246 C.2     
   7 C7             3.6705    -0.3980     0.0001 C.2     
   8 C8             4.4435     0.7174     0.0089 C.2     
   9 N9             3.6442     1.7891     0.0553 N.2     
  10 C10            5.9498     0.7442    -0.0275 C.3     
  11 N11            4.1221    -1.7229    -0.0433 N.3     
  12 C12            3.0022    -2.6652     0.0823 C.3     
  13 C13            2.3229    -2.8342    -1.2782 C.3     
  14 C14            6.4164     1.5053    -1.2700 C.3     
  15 C15            6.4779     1.4431     1.2270 C.3     
  16 C16            3.5269    -4.0199     0.5621 C.3     
  17 C17            2.3605    -5.0013     0.6929 C.3     
  18 C18            1.6811    -5.1703    -0.6675 C.3     
  19 C19            1.1564    -3.8156    -1.1474 C.3     
  20 Cl20          -1.4884    -0.8777     0.1161 Cl      
  21 H21           -0.9484     1.9403     0.1693 H       
  22 H22            1.1793    -1.7440     0.0278 H       
  23 H23            1.1613     3.1785     0.1520 H       
  24 H24            6.3306    -0.2765    -0.0623 H       
  25 H25            4.6491    -1.8978    -0.8858 H       
  26 H26            2.2813    -2.2788     0.8028 H       
  27 H27            1.9490    -1.8690    -1.6200 H       
  28 H28            3.0437    -3.2205    -1.9988 H       
  29 H29            6.0356     2.5261    -1.2351 H       
  30 H30            7.5059     1.5247    -1.2963 H       
  31 H31            6.0402     1.0075    -2.1637 H       
  32 H32            6.1454     0.9008     2.1122 H       
  33 H33            7.5674     1.4625     1.2007 H       
  34 H34            6.0970     2.4638     1.2618 H       
  35 H35            4.2477    -4.4063    -0.1585 H       
  36 H36            4.0109    -3.8995     1.5313 H       
  37 H37            2.7343    -5.9665     1.0348 H       
  38 H38            1.6396    -4.6150     1.4135 H       
  39 H39            2.4020    -5.5567    -1.3881 H       
  40 H40            0.8501    -5.8695    -0.5743 H       
  41 H41            0.4356    -3.4292    -0.4268 H       
  42 H42            0.6724    -3.9360    -2.1166 H       
@<TRIPOS>BOND
   1    1    2 1
   2    1    6 2
   3    1   21 1
   4    2    3 2
   5    2   20 1
   6    3    4 1
   7    3   22 1
   8    4    5 1
   9    4    7 1
  10    5    6 1
  11    5    9 2
  12    6   23 1
  13    7    8 2
  14    7   11 1
  15    8    9 1
  16    8   10 1
  17   10   14 1
  18   10   15 1
  19   10   24 1
  20   11   12 1
  21   11   25 1
  22   12   16 1
  23   12   13 1
  24   12   26 1
  25   13   19 1
  26   13   27 1
  27   13   28 1
  28   14   29 1
  29   14   30 1
  30   14   31 1
  31   15   32 1
  32   15   33 1
  33   15   34 1
  34   16   17 1
  35   16   35 1
  36   16   36 1
  37   17   18 1
  38   17   37 1
  39   17   38 1
  40   18   19 1
  41   18   39 1
  42   18   40 1
  43   19   41 1
  44   19   42 1

#	End of record

