#	Name: ASD01910970
#	Creating user name:	WinNT
#	Creation time:	15. 06. 2019 19:56

#	Modifying user name:	WinNT
#	Modification time:	15. 06. 2019 19:56

#	Program:	/corina/corina34_cracker 3.40 0067  02.08.2006

@<TRIPOS>MOLECULE
ASD01910970
  54   57    0    0    0
SMALL
NO_CHARGES


@<TRIPOS>ATOM
   1 N1             0.1424     1.3738    -0.1997 N.3     
   2 C2             0.0810    -0.0919    -0.1232 C.3     
   3 C3            -1.3650    -0.5263     0.1387 C.3     
   4 N4            -2.2279     0.0797    -0.8868 N.am    
   5 C5            -2.1229     1.5285    -1.1170 C.3     
   6 C6            -0.6471     1.8820    -1.3294 C.3     
   7 C7            -3.0915    -0.6728    -1.5969 C.2     
   8 C8            -4.0350    -0.0292    -2.5325 C.ar    
   9 C9            -4.3090    -0.6233    -3.7685 C.ar    
  10 C10           -5.1887    -0.0270    -4.6457 C.ar    
  11 C11           -5.8092     1.1675    -4.3097 C.ar    
  12 C12           -5.5417     1.7740    -3.0712 C.ar    
  13 C13           -4.6574     1.1679    -2.1814 C.ar    
  14 C14           -6.1803     3.0072    -2.7218 C.1     
  15 O15           -3.0936    -1.8817    -1.4672 O.2     
  16 C16           -6.7039     4.0182    -2.4354 C.1     
  17 C17           -7.3425     5.2513    -2.0861 C.ar    
  18 N18           -7.0840     5.8192    -0.9119 N.ar    
  19 C19           -7.6513     6.9530    -0.5543 C.ar    
  20 C20           -8.5423     7.5974    -1.3926 C.ar    
  21 C21           -8.8416     7.0400    -2.6289 C.ar    
  22 C22           -8.2288     5.8526    -2.9842 C.ar    
  23 C23            1.4498     1.8111    -0.2733 C.ar    
  24 N24            2.4284     0.9152    -0.2666 N.ar    
  25 C25            3.6944     1.2865    -0.3352 C.ar    
  26 C26            3.9998     2.6488    -0.4161 C.ar    
  27 C27            2.9314     3.5721    -0.4206 C.ar    
  28 N28            1.6879     3.1120    -0.3538 N.ar    
  29 N29            3.1753     4.9281    -0.4987 N.pl3   
  30 C30            5.3584     3.0951    -0.4917 C.1     
  31 N31            6.4361     3.4492    -0.5517 N.1     
  32 O32           -6.6738     1.7500    -5.1771 O.3     
  33 C33           -6.8984     1.0784    -6.4183 C.3     
  34 H34            0.4245    -0.5200    -1.0649 H       
  35 H35            0.7184    -0.4407     0.6893 H       
  36 H36           -1.4369    -1.6124     0.0825 H       
  37 H37           -1.6762    -0.1865     1.1265 H       
  38 H38           -2.6959     1.8009    -2.0034 H       
  39 H39           -2.5070     2.0659    -0.2499 H       
  40 H40           -0.5377     2.9647    -1.3918 H       
  41 H41           -0.2934     1.4265    -2.2544 H       
  42 H42           -3.8289    -1.5528    -4.0368 H       
  43 H43           -5.3958    -0.4912    -5.5986 H       
  44 H44           -4.4472     1.6288    -1.2276 H       
  45 H45           -7.4175     7.3852     0.4074 H       
  46 H46           -9.0018     8.5262    -1.0884 H       
  47 H47           -9.5346     7.5257    -3.3000 H       
  48 H48           -8.4385     5.3918    -3.9382 H       
  49 H49            4.4826     0.5482    -0.3286 H       
  50 H50            4.0872     5.2546    -0.5512 H       
  51 H51            2.4348     5.5547    -0.5012 H       
  52 H52           -5.9562     0.9896    -6.9591 H       
  53 H53           -7.3019     0.0843    -6.2257 H       
  54 H54           -7.6085     1.6491    -7.0168 H       
@<TRIPOS>BOND
   1    1    2 1
   2    1   23 1
   3    1    6 1
   4    2    3 1
   5    2   34 1
   6    2   35 1
   7    3    4 1
   8    3   36 1
   9    3   37 1
  10    4    5 1
  11    4    7 am
  12    5    6 1
  13    5   38 1
  14    5   39 1
  15    6   40 1
  16    6   41 1
  17    7    8 1
  18    7   15 2
  19    8    9 ar
  20    8   13 ar
  21    9   10 ar
  22    9   42 1
  23   10   11 ar
  24   10   43 1
  25   11   12 ar
  26   11   32 1
  27   12   13 ar
  28   12   14 1
  29   13   44 1
  30   14   16 3
  31   16   17 1
  32   17   18 ar
  33   17   22 ar
  34   18   19 ar
  35   19   20 ar
  36   19   45 1
  37   20   21 ar
  38   20   46 1
  39   21   22 ar
  40   21   47 1
  41   22   48 1
  42   23   24 ar
  43   23   28 ar
  44   24   25 ar
  45   25   26 ar
  46   25   49 1
  47   26   27 ar
  48   26   30 1
  49   27   28 ar
  50   27   29 1
  51   29   50 1
  52   29   51 1
  53   30   31 3
  54   32   33 1
  55   33   52 1
  56   33   53 1
  57   33   54 1

#	End of record

