#	Name: ASD00311143
#	Creating user name:	WinNT
#	Creation time:	15. 06. 2019 18:34

#	Modifying user name:	WinNT
#	Modification time:	15. 06. 2019 18:34

#	Program:	/corina/corina34_cracker 3.40 0067  02.08.2006

@<TRIPOS>MOLECULE
ASD00311143
  50   54    0    0    0
SMALL
NO_CHARGES


@<TRIPOS>ATOM
   1 C1            -0.0167     1.3777     0.0096 C.2     
   2 C2             0.0021    -0.0041     0.0020 C.2     
   3 C3             1.2585    -0.6766    -0.0136 C.2     
   4 C4             2.4315     0.0673    -0.0208 C.2     
   5 C5             2.3576     1.4750    -0.0126 C.2     
   6 N6             1.1650     2.0903     0.0022 N.am    
   7 C7            -1.3434    -0.5753     0.0123 C.2     
   8 C8            -2.3231     0.3266     0.0268 C.2     
   9 S9            -1.6792     1.9565     0.0358 S.3     
  10 O10            3.3825     2.1371    -0.0184 O.2     
  11 C11            3.7475    -0.6122    -0.0366 C.ar    
  12 C12            4.5933    -0.4749    -1.1371 C.ar    
  13 C13            5.8183    -1.1099    -1.1456 C.ar    
  14 C14            6.2081    -1.8815    -0.0656 C.ar    
  15 C15            5.3734    -2.0219     1.0287 C.ar    
  16 C16            4.1485    -1.3872     1.0515 C.ar    
  17 O17            1.3083    -2.0292    -0.0209 O.3     
  18 Cl18          -4.0152    -0.0612     0.0415 Cl      
  19 C19           -1.5961    -2.0354     0.0065 C.ar    
  20 C20           -1.7280    -2.7206    -1.2059 C.ar    
  21 C21           -1.9640    -4.0846    -1.2034 C.ar    
  22 C22           -2.0695    -4.7682    -0.0057 C.ar    
  23 C23           -1.9396    -4.0939     1.1972 C.ar    
  24 C24           -1.6976    -2.7326     1.2085 C.ar    
  25 F25           -2.0445    -4.7691     2.3627 F       
  26 O26           -1.6252    -2.0488    -2.3833 O.3     
  27 C27           -1.7707    -2.8137    -3.5816 C.3     
  28 C28           -1.6276    -1.9070    -4.7767 C.ar    
  29 C29           -0.3823    -1.6948    -5.3382 C.ar    
  30 C30           -0.2510    -0.8631    -6.4345 C.ar    
  31 C31           -1.3650    -0.2439    -6.9696 C.ar    
  32 C32           -2.6104    -0.4568    -6.4088 C.ar    
  33 C33           -2.7423    -1.2919    -5.3152 C.ar    
  34 H34            1.1329     3.0597     0.0077 H       
  35 H35            4.2899     0.1270    -1.9810 H       
  36 H36            6.4739    -1.0046    -1.9974 H       
  37 H37            7.1679    -2.3766    -0.0769 H       
  38 H38            5.6831    -2.6259     1.8688 H       
  39 H39            3.4996    -1.4939     1.9083 H       
  40 H40            2.2056    -2.3896    -0.0315 H       
  41 H41           -2.0662    -4.6158    -2.1382 H       
  42 H42           -2.2544    -5.8322    -0.0084 H       
  43 H43           -1.5922    -2.2098     2.1476 H       
  44 H44           -1.0011    -3.5847    -3.6162 H       
  45 H45           -2.7550    -3.2818    -3.5965 H       
  46 H46            0.4881    -2.1786    -4.9200 H       
  47 H47            0.7220    -0.6968    -6.8726 H       
  48 H48           -1.2623     0.4064    -7.8257 H       
  49 H49           -3.4807     0.0273    -6.8267 H       
  50 H50           -3.7159    -1.4611    -4.8792 H       
@<TRIPOS>BOND
   1    1    2 2
   2    1    6 1
   3    1    9 1
   4    2    3 1
   5    2    7 1
   6    3    4 2
   7    3   17 1
   8    4    5 1
   9    4   11 1
  10    5    6 am
  11    5   10 2
  12    6   34 1
  13    7    8 2
  14    7   19 1
  15    8    9 1
  16    8   18 1
  17   11   12 ar
  18   11   16 ar
  19   12   13 ar
  20   12   35 1
  21   13   14 ar
  22   13   36 1
  23   14   15 ar
  24   14   37 1
  25   15   16 ar
  26   15   38 1
  27   16   39 1
  28   17   40 1
  29   19   20 ar
  30   19   24 ar
  31   20   21 ar
  32   20   26 1
  33   21   22 ar
  34   21   41 1
  35   22   23 ar
  36   22   42 1
  37   23   24 ar
  38   23   25 1
  39   24   43 1
  40   26   27 1
  41   27   28 1
  42   27   44 1
  43   27   45 1
  44   28   29 ar
  45   28   33 ar
  46   29   30 ar
  47   29   46 1
  48   30   31 ar
  49   30   47 1
  50   31   32 ar
  51   31   48 1
  52   32   33 ar
  53   32   49 1
  54   33   50 1

#	End of record

