#	Name: ASD02198557
#	Creating user name:	WinNT
#	Creation time:	15. 06. 2019 20:19

#	Modifying user name:	WinNT
#	Modification time:	15. 06. 2019 20:19

#	Program:	/corina/corina34_cracker 3.40 0067  02.08.2006

@<TRIPOS>MOLECULE
ASD02198557
  42   45    0    0    0
SMALL
NO_CHARGES


@<TRIPOS>ATOM
   1 C1             0.0072     1.5096     0.1334 C.2     
   2 C2             0.0745     0.1697    -0.0949 C.2     
   3 N3            -1.0521    -0.5605    -0.2651 N.pl3   
   4 N4            -2.2301    -0.0571    -0.2243 N.2     
   5 C5            -2.4378     1.2255    -0.0110 C.2     
   6 C6            -1.2793     2.1065     0.1922 C.2     
   7 C7            -0.9244    -1.9341    -0.4977 C.ar    
   8 C8            -1.3810    -3.8675    -1.8474 C.ar    
   9 C9            -0.6707    -4.6531    -0.9569 C.ar    
  10 C10           -0.0930    -4.0846     0.1633 C.ar    
  11 C11           -0.2176    -2.7286     0.3954 C.ar    
  12 C12           -3.8111     1.7682     0.0289 C.2     
  13 N13           -4.3733     2.4804     1.0507 N.pl3   
  14 N14           -5.6852     2.7985     0.6778 N.2     
  15 C15           -5.9155     2.3058    -0.5131 C.2     
  16 C16           -4.7642     1.6568    -0.9595 C.2     
  17 C17           -3.7495     2.8293     2.2553 C.ar    
  18 C18           -2.9557     1.9046     2.9211 C.ar    
  19 O19           -1.4174     3.3043     0.3942 O.2     
  20 C20           -3.9189     4.1024     2.7833 C.ar    
  21 C21           -3.3020     4.4435     3.9710 C.ar    
  22 C22           -2.5165     3.5187     4.6343 C.ar    
  23 C23           -2.3416     2.2518     4.1084 C.ar    
  24 C24           -1.5101    -2.5084    -1.6215 C.ar    
  25 F25           -2.2038    -1.7408    -2.4903 F       
  26 O26            1.1344     2.2509     0.3050 O.3     
  27 C27            2.3828     1.5591     0.2344 C.3     
  28 Br28          -2.1686    -4.6501    -3.3781 Br      
  29 H29            1.0378    -0.3163    -0.1411 H       
  30 H30           -0.5673    -5.7129    -1.1373 H       
  31 H31            0.4606    -4.7012     0.8559 H       
  32 H32            0.2347    -2.2864     1.2708 H       
  33 H33           -6.8421     2.3917    -1.0613 H       
  34 H34           -4.6440     1.1518    -1.9066 H       
  35 H35           -2.8191     0.9148     2.5110 H       
  36 H36           -4.5320     4.8252     2.2656 H       
  37 H37           -3.4331     5.4336     4.3820 H       
  38 H38           -2.0349     3.7880     5.5627 H       
  39 H39           -1.7277     1.5316     4.6290 H       
  40 H40            3.1988     2.2653     0.3879 H       
  41 H41            2.4168     0.7911     1.0072 H       
  42 H42            2.4851     1.0931    -0.7456 H       
@<TRIPOS>BOND
   1    1    2 2
   2    1   26 1
   3    1    6 1
   4    2    3 1
   5    2   29 1
   6    3    4 1
   7    3    7 1
   8    4    5 2
   9    5    6 1
  10    5   12 1
  11    6   19 2
  12    7   24 ar
  13    7   11 ar
  14    8    9 ar
  15    8   28 1
  16    8   24 ar
  17    9   10 ar
  18    9   30 1
  19   10   11 ar
  20   10   31 1
  21   11   32 1
  22   12   13 1
  23   12   16 2
  24   13   14 1
  25   13   17 1
  26   14   15 2
  27   15   16 1
  28   15   33 1
  29   16   34 1
  30   17   20 ar
  31   17   18 ar
  32   18   23 ar
  33   18   35 1
  34   20   21 ar
  35   20   36 1
  36   21   22 ar
  37   21   37 1
  38   22   23 ar
  39   22   38 1
  40   23   39 1
  41   24   25 1
  42   26   27 1
  43   27   40 1
  44   27   41 1
  45   27   42 1

#	End of record

