#	Name: ASD07000002
#	Creating user name:	WinNT
#	Creation time:	15. 06. 2019 21:08

#	Modifying user name:	WinNT
#	Modification time:	15. 06. 2019 21:08

#	Program:	/corina/corina34_cracker 3.40 0067  02.08.2006

@<TRIPOS>MOLECULE
ASD07000002
  37   39    0    0    0
SMALL
NO_CHARGES


@<TRIPOS>ATOM
   1 C1            -0.0145     1.3785    -0.0272 C.ar    
   2 C2             0.0037     0.0006    -0.0400 C.ar    
   3 C3             1.2045    -0.6939    -0.0528 C.ar    
   4 C4             2.4005    -0.0088    -0.0498 C.ar    
   5 C5             2.3935     1.3839    -0.0338 C.ar    
   6 C6             1.1806     2.0911    -0.0265 C.ar    
   7 O7             1.1714     3.4378    -0.0276 O.3     
   8 C8             3.6511     2.1606    -0.0154 C.2     
   9 C9             3.5121     3.5985     0.2971 C.2     
  10 C10            2.2579     4.1394     0.2762 C.2     
  11 C11            4.6885     4.4220     0.6213 C.2     
  12 N12            5.9164     3.8665     0.6364 N.am    
  13 O13            4.7324     1.6484    -0.2427 O.2     
  14 O14            4.5524     5.6036     0.8755 O.2     
  15 C15            7.0447     4.6693     0.8327 C.ar    
  16 C16            8.1361     4.1760     1.5364 C.ar    
  17 C17            7.0787     5.9593     0.3196 C.ar    
  18 C18            8.1948     6.7494     0.5149 C.ar    
  19 C19            9.2774     6.2571     1.2199 C.ar    
  20 C20            9.2487     4.9711     1.7281 C.ar    
  21 C21           10.4331     4.4367     2.4914 C.3     
  22 C22           10.4936     7.1217     1.4306 C.3     
  23 H23           -0.9571     1.9056    -0.0221 H       
  24 H24           -0.9282    -0.5453    -0.0398 H       
  25 H25            1.2022    -1.7738    -0.0647 H       
  26 H26            3.3362    -0.5480    -0.0594 H       
  27 H27            2.1443     5.1859     0.5177 H       
  28 H28            6.0176     2.9100     0.5111 H       
  29 H29            8.1142     3.1719     1.9335 H       
  30 H30            6.2336     6.3442    -0.2318 H       
  31 H31            8.2218     7.7527     0.1161 H       
  32 H32           11.1230     3.9532     1.7998 H       
  33 H33           10.9410     5.2587     2.9960 H       
  34 H34           10.0921     3.7119     3.2306 H       
  35 H35           10.3809     7.6883     2.3549 H       
  36 H36           11.3805     6.4915     1.4966 H       
  37 H37           10.5991     7.8108     0.5926 H       
@<TRIPOS>BOND
   1    1    2 ar
   2    1    6 ar
   3    1   23 1
   4    2    3 ar
   5    2   24 1
   6    3    4 ar
   7    3   25 1
   8    4    5 ar
   9    4   26 1
  10    5    6 ar
  11    5    8 1
  12    6    7 1
  13    7   10 1
  14    8    9 1
  15    8   13 2
  16    9   10 2
  17    9   11 1
  18   10   27 1
  19   11   12 am
  20   11   14 2
  21   12   15 1
  22   12   28 1
  23   15   17 ar
  24   15   16 ar
  25   16   20 ar
  26   16   29 1
  27   17   18 ar
  28   17   30 1
  29   18   19 ar
  30   18   31 1
  31   19   20 ar
  32   19   22 1
  33   20   21 1
  34   21   32 1
  35   21   33 1
  36   21   34 1
  37   22   35 1
  38   22   36 1
  39   22   37 1

#	End of record

