#	Name: ASD05730153
#	Creating user name:	WinNT
#	Creation time:	15. 06. 2019 21:02

#	Modifying user name:	WinNT
#	Modification time:	15. 06. 2019 21:02

#	Program:	/corina/corina34_cracker 3.40 0067  02.08.2006

@<TRIPOS>MOLECULE
ASD05730153
  81   87    0    0    0
SMALL
NO_CHARGES


@<TRIPOS>ATOM
   1 N1            -0.0118     1.3947     0.0612 N.3     
   2 C2             0.0057    -0.0044     0.0405 C.ar    
   3 C3            -1.0324    -0.7031    -0.5619 C.ar    
   4 C4            -1.0149    -2.0835    -0.5827 C.ar    
   5 C5             0.0408    -2.7733    -0.0013 C.ar    
   6 C6             1.0787    -2.0748     0.6015 C.ar    
   7 C7             1.0641    -0.6942     0.6173 C.ar    
   8 N8             0.0586    -4.1737    -0.0224 N.pl3   
   9 C9             1.2583    -4.8474    -0.1422 C.ar    
  10 N10            1.2605    -6.1684    -0.0467 N.ar    
  11 C11            2.3945    -6.8510    -0.1571 C.ar    
  12 C12            3.5946    -6.1409    -0.3778 C.ar    
  13 C13            3.5394    -4.7420    -0.4714 C.ar    
  14 N14            2.3672    -4.1469    -0.3544 N.ar    
  15 N15            2.4060    -8.2195    -0.0590 N.am    
  16 C16            3.5590    -8.9066    -0.1713 C.2     
  17 C17            4.8215    -8.2008    -0.4000 C.2     
  18 C18            4.8196    -6.8352    -0.5006 C.2     
  19 C19            1.1516    -8.9405     0.1706 C.3     
  20 O20            3.5516   -10.1214    -0.0818 O.2     
  21 C21            6.0895    -8.9575    -0.5220 C.ar    
  22 C22            1.1758     1.9262     0.7444 C.3     
  23 C23            0.5138    -9.2953    -1.1741 C.3     
  24 C24            6.6940    -9.4978     0.6124 C.ar    
  25 C25           -0.7313   -10.1561    -0.9394 C.3     
  26 C26            6.6801    -9.1371    -1.7727 C.ar    
  27 C27            7.8609    -9.8426    -1.8799 C.ar    
  28 C28            8.4588   -10.3719    -0.7500 C.ar    
  29 C29            7.8751   -10.2017     0.4924 C.ar    
  30 C30            6.0296    -8.5621    -3.0044 C.3     
  31 S31            9.9661   -11.2728    -0.8952 S.o2    
  32 C32           11.2838   -10.1145    -0.7318 C.2     
  33 O33           10.0364   -12.1233     0.2410 O.2     
  34 C34           -1.2438     1.8968     0.6854 C.3     
  35 C35           -1.2607     3.4257     0.6169 C.3     
  36 N36           -0.0732     3.9572     1.3002 N.3     
  37 C37            1.1589     3.4551     0.6760 C.3     
  38 C38           -1.4066   -10.4401    -2.2837 C.3     
  39 O39           -1.7343    -9.2039    -2.9212 O.3     
  40 C40           -0.6040    -8.3780    -3.2085 C.3     
  41 C41            0.1035    -8.0112    -1.9013 C.3     
  42 O42           10.0186   -11.7545    -2.2310 O.2     
  43 C43           11.8795    -9.7571     0.4098 C.2     
  44 N44           12.8432    -8.8694     0.2689 N.2     
  45 C45           13.0936    -8.4581    -0.9282 C.2     
  46 S46           12.0540    -9.2285    -2.0458 S.3     
  47 H47           -1.8537    -0.1666    -1.0138 H       
  48 H48           -1.8224    -2.6268    -1.0508 H       
  49 H49            1.8996    -2.6113     1.0540 H       
  50 H50            1.8713    -0.1510     1.0861 H       
  51 H51           -0.7717    -4.6704     0.0472 H       
  52 H52            4.4365    -4.1648    -0.6393 H       
  53 H53            5.7404    -6.2967    -0.6691 H       
  54 H54            1.3548    -9.8545     0.7287 H       
  55 H55            0.4695    -8.3104     0.7413 H       
  56 H56            1.1680     1.6087     1.7871 H       
  57 H57            2.0749     1.5502     0.2562 H       
  58 H58            1.2296    -9.8478    -1.7827 H       
  59 H59            6.2392    -9.3655     1.5829 H       
  60 H60           -0.4409   -11.0969    -0.4717 H       
  61 H61           -1.4249    -9.6237    -0.2886 H       
  62 H62            8.3192    -9.9824    -2.8478 H       
  63 H63            8.3466   -10.6168     1.3709 H       
  64 H64            6.4040    -7.5528    -3.1755 H       
  65 H65            6.2650    -9.1878    -3.8654 H       
  66 H66            4.9493    -8.5298    -2.8633 H       
  67 H67           -2.1087     1.4994     0.1542 H       
  68 H68           -1.2791     1.5790     1.7274 H       
  69 H69           -1.2529     3.7431    -0.4258 H       
  70 H70           -2.1599     3.8016     1.1051 H       
  71 H71           -0.0858     4.9660     1.3151 H       
  72 H72            2.0237     3.8525     1.2072 H       
  73 H73            1.1942     3.7729    -0.3661 H       
  74 H74           -0.7269   -11.0079    -2.9191 H       
  75 H75           -2.3169   -11.0165    -2.1186 H       
  76 H76            0.0861    -8.9188    -3.8560 H       
  77 H77           -0.9362    -7.4688    -3.7096 H       
  78 H78           -0.5732    -7.4353    -1.2700 H       
  79 H79            0.9910    -7.4179    -2.1216 H       
  80 H80           11.5944   -10.1625     1.3694 H       
  81 H81           13.8532    -7.7354    -1.1872 H       
@<TRIPOS>BOND
   1    1    2 1
   2    1   22 1
   3    1   34 1
   4    2    3 ar
   5    2    7 ar
   6    3    4 ar
   7    3   47 1
   8    4    5 ar
   9    4   48 1
  10    5    6 ar
  11    5    8 1
  12    6    7 ar
  13    6   49 1
  14    7   50 1
  15    8    9 1
  16    8   51 1
  17    9   10 ar
  18    9   14 ar
  19   10   11 ar
  20   11   12 ar
  21   11   15 1
  22   12   13 ar
  23   12   18 1
  24   13   14 ar
  25   13   52 1
  26   15   16 am
  27   15   19 1
  28   16   17 1
  29   16   20 2
  30   17   18 2
  31   17   21 1
  32   18   53 1
  33   19   23 1
  34   19   54 1
  35   19   55 1
  36   21   24 ar
  37   21   26 ar
  38   22   37 1
  39   22   56 1
  40   22   57 1
  41   23   25 1
  42   23   41 1
  43   23   58 1
  44   24   29 ar
  45   24   59 1
  46   25   38 1
  47   25   60 1
  48   25   61 1
  49   26   27 ar
  50   26   30 1
  51   27   28 ar
  52   27   62 1
  53   28   29 ar
  54   28   31 1
  55   29   63 1
  56   30   64 1
  57   30   65 1
  58   30   66 1
  59   31   32 1
  60   31   33 2
  61   31   42 2
  62   32   43 2
  63   32   46 1
  64   34   35 1
  65   34   67 1
  66   34   68 1
  67   35   36 1
  68   35   69 1
  69   35   70 1
  70   36   37 1
  71   36   71 1
  72   37   72 1
  73   37   73 1
  74   38   39 1
  75   38   74 1
  76   38   75 1
  77   39   40 1
  78   40   41 1
  79   40   76 1
  80   40   77 1
  81   41   78 1
  82   41   79 1
  83   43   44 1
  84   43   80 1
  85   44   45 2
  86   45   46 1
  87   45   81 1

#	End of record

