#	Name: ASD01152238
#	Creating user name:	WinNT
#	Creation time:	15. 06. 2019 19:05

#	Modifying user name:	WinNT
#	Modification time:	15. 06. 2019 19:05

#	Program:	/corina/corina34_cracker 3.40 0067  02.08.2006

@<TRIPOS>MOLECULE
ASD01152238
  35   37    0    0    0
SMALL
NO_CHARGES


@<TRIPOS>ATOM
   1 N1            -0.0169     1.3957     0.0097 N.2     
   2 N2             0.0021    -0.0041     0.0020 N.am    
   3 C3             1.1655    -0.6784    -0.0123 C.2     
   4 N4             2.3442    -0.0281    -0.0200 N.am    
   5 C5             2.3716     1.3207    -0.0130 C.2     
   6 C6             1.1062     2.0609     0.0026 C.2     
   7 O7             1.1526    -1.8943    -0.0179 O.2     
   8 O8             3.4335     1.9156    -0.0192 O.2     
   9 C9            -1.2065    -0.7115     0.0098 C.ar    
  10 C10           -2.1497    -0.4729     1.0080 C.ar    
  11 C11           -3.3434    -1.1760     1.0103 C.ar    
  12 C12           -3.5969    -2.1118     0.0246 C.ar    
  13 C13           -2.6618    -2.3490    -0.9660 C.ar    
  14 C14           -1.4710    -1.6478    -0.9794 C.ar    
  15 O15           -1.8986     0.4468     1.9769 O.3     
  16 Br16           1.1012     3.9518     0.0121 Br      
  17 C17            3.5981    -0.7856    -0.0356 C.3     
  18 C18            4.0147    -1.0382    -1.4616 C.ar    
  19 C19            4.8249    -0.1291    -2.1161 C.ar    
  20 C20            5.2073    -0.3602    -3.4240 C.ar    
  21 C21            4.7792    -1.5016    -4.0782 C.ar    
  22 C22            3.9684    -2.4111    -3.4227 C.ar    
  23 C23            3.5912    -2.1816    -2.1130 C.ar    
  24 Cl24           5.2587    -1.7923    -5.7212 Cl      
  25 H25           -4.0761    -0.9933     1.7824 H       
  26 H26           -4.5278    -2.6594     0.0285 H       
  27 H27           -2.8644    -3.0811    -1.7337 H       
  28 H28           -0.7446    -1.8318    -1.7572 H       
  29 H29           -2.1962     1.3404     1.7575 H       
  30 H30            4.3740    -0.2143     0.4739 H       
  31 H31            3.4536    -1.7378     0.4748 H       
  32 H32            5.1587     0.7620    -1.6054 H       
  33 H33            5.8400     0.3502    -3.9353 H       
  34 H34            3.6339    -3.3022    -3.9329 H       
  35 H35            2.9619    -2.8937    -1.5997 H       
@<TRIPOS>BOND
   1    1    2 1
   2    1    6 2
   3    2    3 am
   4    2    9 1
   5    3    4 am
   6    3    7 2
   7    4    5 am
   8    4   17 1
   9    5    6 1
  10    5    8 2
  11    6   16 1
  12    9   10 ar
  13    9   14 ar
  14   10   11 ar
  15   10   15 1
  16   11   12 ar
  17   11   25 1
  18   12   13 ar
  19   12   26 1
  20   13   14 ar
  21   13   27 1
  22   14   28 1
  23   15   29 1
  24   17   18 1
  25   17   30 1
  26   17   31 1
  27   18   19 ar
  28   18   23 ar
  29   19   20 ar
  30   19   32 1
  31   20   21 ar
  32   20   33 1
  33   21   22 ar
  34   21   24 1
  35   22   23 ar
  36   22   34 1
  37   23   35 1

#	End of record

