#	Name: ASD09116116
#	Creating user name:	WinNT
#	Creation time:	15. 06. 2019 21:20

#	Modifying user name:	WinNT
#	Modification time:	15. 06. 2019 21:20

#	Program:	/corina/corina34_cracker 3.40 0067  02.08.2006

@<TRIPOS>MOLECULE
ASD09116116
  36   37    0    0    0
SMALL
NO_CHARGES


@<TRIPOS>ATOM
   1 C1            -0.0184     1.5028     0.0103 C.2     
   2 C2             0.0021    -0.0041     0.0020 C.3     
   3 O3             1.0197     2.1211     0.0037 O.2     
   4 O4            -1.1898     2.1580     0.0194 O.3     
   5 C5             3.5842    -0.0039    -1.3334 C.ar    
   6 C6             4.3291    -1.1762    -1.2112 C.ar    
   7 C7             3.6107    -2.5121    -1.1234 C.3     
   8 C8             2.8670    -2.5954     0.2045 C.3     
   9 C9             1.4723    -1.9977     0.1013 C.3     
  10 C10            1.4513    -0.4944    -0.0145 C.3     
  11 C11            2.1136    -0.0643    -1.3097 C.2     
  12 C12            5.7039    -1.1266    -1.1839 C.ar    
  13 C13            6.3502     0.0939    -1.3002 C.ar    
  14 C14            5.6206     1.2610    -1.4439 C.ar    
  15 C15            4.2412     1.2234    -1.4617 C.ar    
  16 O16            1.4564     0.2194    -2.2884 O.2     
  17 C17           -1.1335     3.6089     0.0270 C.3     
  18 C18           -2.5551     4.1744     0.0369 C.3     
  19 H19           -0.4983    -0.3791     0.8948 H       
  20 H20           -0.5153    -0.3696    -0.8850 H       
  21 H21            2.8996    -2.5978    -1.9450 H       
  22 H22            4.3383    -3.3215    -1.1847 H       
  23 H23            2.7853    -3.6408     0.5021 H       
  24 H24            3.4314    -2.0535     0.9634 H       
  25 H25            0.9784    -2.4196    -0.7740 H       
  26 H26            0.9056    -2.2851     0.9869 H       
  27 H27            1.9900    -0.0592     0.8273 H       
  28 H28            6.2771    -2.0351    -1.0719 H       
  29 H29            7.4292     0.1345    -1.2782 H       
  30 H30            6.1334     2.2063    -1.5425 H       
  31 H31            3.6735     2.1352    -1.5744 H       
  32 H32           -0.6017     3.9472     0.9164 H       
  33 H33           -0.6102     3.9569    -0.8636 H       
  34 H34           -2.5128     5.2636     0.0426 H       
  35 H35           -3.0869     3.8361    -0.8525 H       
  36 H36           -3.0784     3.8265     0.9275 H       
@<TRIPOS>BOND
   1    1    2 1
   2    1    3 2
   3    1    4 1
   4    2   10 1
   5    2   19 1
   6    2   20 1
   7    4   17 1
   8    5    6 ar
   9    5   11 1
  10    5   15 ar
  11    6    7 1
  12    6   12 ar
  13    7    8 1
  14    7   21 1
  15    7   22 1
  16    8    9 1
  17    8   23 1
  18    8   24 1
  19    9   10 1
  20    9   25 1
  21    9   26 1
  22   10   11 1
  23   10   27 1
  24   11   16 2
  25   12   13 ar
  26   12   28 1
  27   13   14 ar
  28   13   29 1
  29   14   15 ar
  30   14   30 1
  31   15   31 1
  32   17   18 1
  33   17   32 1
  34   17   33 1
  35   18   34 1
  36   18   35 1
  37   18   36 1

#	End of record

