#	Name: ASD01916002
#	Creating user name:	WinNT
#	Creation time:	15. 06. 2019 20:06

#	Modifying user name:	WinNT
#	Modification time:	15. 06. 2019 20:06

#	Program:	/corina/corina34_cracker 3.40 0067  02.08.2006

@<TRIPOS>MOLECULE
ASD01916002
  42   43    0    0    0
SMALL
NO_CHARGES


@<TRIPOS>ATOM
   1 C1            -0.3170     1.9108    -0.9309 C.ar    
   2 C2            -0.1717     0.5225    -1.0496 C.ar    
   3 C3            -1.2835    -0.2751    -0.8377 C.ar    
   4 C4            -2.5031     0.3280    -0.5152 C.ar    
   5 C5            -3.6955    -0.5144    -0.2867 C.2     
   6 N6            -4.8413     0.0441     0.1509 N.am    
   7 O7            -3.6428    -1.7112    -0.4935 O.2     
   8 C8            -6.0550    -0.7683     0.2657 C.3     
   9 C9            -5.7441    -2.2101    -0.1412 C.3     
  10 C10           -6.5510    -0.7426     1.7129 C.3     
  11 C11           -7.1375    -0.2008    -0.6546 C.3     
  12 C12            0.8028     2.7785    -1.1403 C.1     
  13 C13            1.7208     3.4898    -1.3120 C.1     
  14 C14            2.8406     4.3574    -1.5214 C.ar    
  15 C15            2.6884     5.7411    -1.4014 C.ar    
  16 C16            5.1670     4.6642    -2.0418 C.ar    
  17 C17            3.7736     6.5716    -1.6050 C.ar    
  18 N18           -2.6036     1.6494    -0.4111 N.ar    
  19 C19           -1.5753     2.4393    -0.6100 C.ar    
  20 C20            4.0924     3.8236    -1.8412 C.ar    
  21 C21           -4.8732     1.4636     0.5119 C.3     
  22 F22           -1.1912    -1.6189    -0.9417 F       
  23 C23            5.0095     6.0342    -1.9278 C.ar    
  24 F24            3.6295     7.9099    -1.4897 F       
  25 H25            0.7835     0.0853    -1.3004 H       
  26 H26           -4.9728    -2.6144     0.5145 H       
  27 H27           -6.6471    -2.8145    -0.0558 H       
  28 H28           -5.3907    -2.2284    -1.1722 H       
  29 H29           -6.7726     0.2846     2.0028 H       
  30 H30           -7.4540    -1.3470     1.7983 H       
  31 H31           -5.7798    -1.1469     2.3685 H       
  32 H32           -6.7842    -0.2192    -1.6856 H       
  33 H33           -8.0406    -0.8053    -0.5692 H       
  34 H34           -7.3591     0.8263    -0.3647 H       
  35 H35            1.7252     6.1602    -1.1506 H       
  36 H36            6.1331     4.2523    -2.2936 H       
  37 H37           -1.6972     3.5082    -0.5157 H       
  38 H38            4.2177     2.7546    -1.9308 H       
  39 H39           -5.0351     2.0627    -0.3841 H       
  40 H40           -5.6838     1.6406     1.2188 H       
  41 H41           -3.9244     1.7434     0.9696 H       
  42 H42            5.8549     6.6874    -2.0861 H       
@<TRIPOS>BOND
   1    1    2 ar
   2    1   12 1
   3    1   19 ar
   4    2    3 ar
   5    2   25 1
   6    3    4 ar
   7    3   22 1
   8    4   18 ar
   9    4    5 1
  10    5    6 am
  11    5    7 2
  12    6    8 1
  13    6   21 1
  14    8    9 1
  15    8   10 1
  16    8   11 1
  17    9   26 1
  18    9   27 1
  19    9   28 1
  20   10   29 1
  21   10   30 1
  22   10   31 1
  23   11   32 1
  24   11   33 1
  25   11   34 1
  26   12   13 3
  27   13   14 1
  28   14   15 ar
  29   14   20 ar
  30   15   17 ar
  31   15   35 1
  32   16   23 ar
  33   16   20 ar
  34   16   36 1
  35   17   24 1
  36   17   23 ar
  37   18   19 ar
  38   19   37 1
  39   20   38 1
  40   21   39 1
  41   21   40 1
  42   21   41 1
  43   23   42 1

#	End of record

