#	Name: ASD01410175
#	Creating user name:	WinNT
#	Creation time:	15. 06. 2019 19:16

#	Modifying user name:	WinNT
#	Modification time:	15. 06. 2019 19:16

#	Program:	/corina/corina34_cracker 3.40 0067  02.08.2006

@<TRIPOS>MOLECULE
ASD01410175
  30   32    0    0    0
SMALL
NO_CHARGES


@<TRIPOS>ATOM
   1 C1            -0.0168     1.3854     0.0097 C.ar    
   2 C2             0.0021    -0.0041     0.0020 C.ar    
   3 C3            -1.1864    -0.7124     0.0096 C.ar    
   4 C4            -2.4036    -0.0207     0.0249 C.ar    
   5 C5            -2.4214     1.3844     0.0326 C.ar    
   6 C6            -1.2196     2.0762     0.0306 C.ar    
   7 C7            -3.8110    -0.4477     0.0355 C.2     
   8 C8            -4.5661     0.7576     0.0490 C.2     
   9 O9            -3.7059     1.8027     0.0467 O.3     
  10 O10           -4.2388    -1.5902     0.0330 O.2     
  11 C11           -5.9267     0.8454     0.0616 C.2     
  12 C12           -6.5529     2.1123     0.0742 C.2     
  13 O13            1.1534     2.0735     0.0022 O.3     
  14 O14           -1.1724    -2.0692     0.0017 O.3     
  15 C15           -7.9139     2.3476     0.0932 C.2     
  16 O16           -5.9281     3.3085     0.0758 O.3     
  17 C17           -6.8421     4.2891     0.0892 C.2     
  18 C18           -8.0778     3.7407     0.1001 C.2     
  19 C19           -6.5406     5.7656     0.0951 C.3     
  20 O20           -6.4332     6.2245     1.4442 O.3     
  21 H21            0.9446    -0.5311    -0.0102 H       
  22 H22           -1.2201     3.1562     0.0368 H       
  23 H23           -6.5258    -0.0531     0.0619 H       
  24 H24            1.4840     2.2776    -0.8833 H       
  25 H25           -1.1597    -2.4675     0.8827 H       
  26 H26           -8.6979     1.6049     0.1008 H       
  27 H27           -9.0160     4.2755     0.1118 H       
  28 H28           -5.6005     5.9466    -0.4261 H       
  29 H29           -7.3444     6.3026    -0.4084 H       
  30 H30           -6.2396     7.1685     1.5243 H       
@<TRIPOS>BOND
   1    1    2 ar
   2    1   13 1
   3    1    6 ar
   4    2    3 ar
   5    2   21 1
   6    3    4 ar
   7    3   14 1
   8    4    5 ar
   9    4    7 1
  10    5    6 ar
  11    5    9 1
  12    6   22 1
  13    7    8 1
  14    7   10 2
  15    8    9 1
  16    8   11 2
  17   11   12 1
  18   11   23 1
  19   12   16 1
  20   12   15 2
  21   13   24 1
  22   14   25 1
  23   15   18 1
  24   15   26 1
  25   16   17 1
  26   17   18 2
  27   17   19 1
  28   18   27 1
  29   19   20 1
  30   19   28 1
  31   19   29 1
  32   20   30 1

#	End of record

