#	Name: ASD01811555
#	Creating user name:	WinNT
#	Creation time:	15. 06. 2019 19:26

#	Modifying user name:	WinNT
#	Modification time:	15. 06. 2019 19:26

#	Program:	/corina/corina34_cracker 3.40 0067  02.08.2006

@<TRIPOS>MOLECULE
ASD01811555
  34   34    0    0    0
SMALL
NO_CHARGES


@<TRIPOS>ATOM
   1 N1             0.0760     1.5500     0.2885 N.am    
   2 C2            -0.0335     0.1062     0.0434 C.3     
   3 C3             0.8008    -0.6376     1.0941 C.3     
   4 C4             2.1756    -0.0081     1.1462 C.2     
   5 C5             2.2745     1.4880     1.3481 C.3     
   6 C6             1.4033     2.1785     0.2911 C.3     
   7 C7            -1.0294     2.2907     0.5031 C.2     
   8 O8            -2.1294     1.7866     0.3927 O.2     
   9 O9            -0.9147     3.5893     0.8397 O.3     
  10 O10            3.1698    -0.6836     1.0298 O.2     
  11 C11           -1.4979    -0.3231     0.1534 C.3     
  12 Br12          -0.0634    -0.4867     2.8535 Br      
  13 C13           -2.1473     4.3257     1.0556 C.3     
  14 C14           -2.9379     3.6746     2.1922 C.3     
  15 C15           -1.8184     5.7730     1.4269 C.3     
  16 C16           -2.9845     4.3053    -0.2249 C.3     
  17 H17            0.3433    -0.1249    -0.9529 H       
  18 H18            0.8884    -1.6880     0.8166 H       
  19 H19            1.9177     1.7482     2.3447 H       
  20 H20            3.3108     1.8060     1.2342 H       
  21 H21            1.8626     2.0664    -0.6910 H       
  22 H22            1.3059     3.2370     0.5326 H       
  23 H23           -2.0730     0.1381    -0.6494 H       
  24 H24           -1.5656    -1.4080     0.0720 H       
  25 H25           -1.8983    -0.0054     1.1161 H       
  26 H26           -2.3415     3.6891     3.1045 H       
  27 H27           -3.8633     4.2274     2.3543 H       
  28 H28           -3.1723     2.6435     1.9277 H       
  29 H29           -1.2551     6.2368     0.6172 H       
  30 H30           -2.7437     6.3258     1.5890 H       
  31 H31           -1.2220     5.7875     2.3392 H       
  32 H32           -3.2188     3.2742    -0.4894 H       
  33 H33           -3.9098     4.8581    -0.0628 H       
  34 H34           -2.4212     4.7691    -1.0347 H       
@<TRIPOS>BOND
   1    1    2 1
   2    1    6 1
   3    1    7 am
   4    2    3 1
   5    2   11 1
   6    2   17 1
   7    3    4 1
   8    3   12 1
   9    3   18 1
  10    4    5 1
  11    4   10 2
  12    5    6 1
  13    5   19 1
  14    5   20 1
  15    6   21 1
  16    6   22 1
  17    7    8 2
  18    7    9 1
  19    9   13 1
  20   11   23 1
  21   11   24 1
  22   11   25 1
  23   13   14 1
  24   13   16 1
  25   13   15 1
  26   14   26 1
  27   14   27 1
  28   14   28 1
  29   15   29 1
  30   15   30 1
  31   15   31 1
  32   16   32 1
  33   16   33 1
  34   16   34 1

#	End of record

