#	Name: ASD03731413
#	Creating user name:	WinNT
#	Creation time:	15. 06. 2019 20:45

#	Modifying user name:	WinNT
#	Modification time:	15. 06. 2019 20:45

#	Program:	/corina/corina34_cracker 3.40 0067  02.08.2006

@<TRIPOS>MOLECULE
ASD03731413
  63   67    0    0    0
SMALL
NO_CHARGES


@<TRIPOS>ATOM
   1 O1            -0.1397     1.7400    -1.0186 O.3     
   2 C2            -0.2181     0.3237    -1.2658 C.3     
   3 O3             1.1163    -0.0265    -1.6773 O.3     
   4 C4             1.9345     0.8932    -1.0861 C.ar    
   5 C5             1.1619     1.9796    -0.6823 C.ar    
   6 C6             3.2985     0.8906    -0.8555 C.ar    
   7 C7             3.9084     1.9693    -0.2223 C.ar    
   8 C8             3.1275     3.0525     0.1691 C.ar    
   9 C9             1.7663     3.0553    -0.0538 C.ar    
  10 O10            5.2172     2.1576     0.1118 O.3     
  11 C11            4.0642     4.0547     0.7890 C.3     
  12 C12            5.4494     3.5590     0.3519 C.3     
  13 N13            3.5417     6.1899     1.4151 N.am    
  14 C14            3.7948     5.4536     0.3146 C.2     
  15 C15            3.9347     4.1091     2.2823 C.ar    
  16 C16            4.0636     3.1719     3.2831 C.ar    
  17 C17            3.8790     3.5392     4.6041 C.ar    
  18 C18            3.5649     4.8492     4.9167 C.ar    
  19 C19            3.4339     5.7914     3.9179 C.ar    
  20 C20            3.6182     5.4308     2.5854 C.ar    
  21 O21            3.8036     5.8446    -0.8334 O.2     
  22 C22            3.2242     7.6198     1.3872 C.3     
  23 C23            1.7102     7.8038     1.2652 C.3     
  24 C24            1.3787     9.2972     1.2360 C.3     
  25 N25           -0.0750     9.4738     1.1189 N.3     
  26 C26           -0.7631     8.9865     2.3218 C.3     
  27 C27           -2.2523     8.8072     2.0201 C.3     
  28 O28           -2.4208     7.7680     1.0538 O.3     
  29 C29           -3.7707     7.5915     0.6195 C.3     
  30 C30           -0.4148    10.8775     0.8503 C.3     
  31 C31           -0.1122    11.2043    -0.6134 C.3     
  32 O32           -0.9775    10.4447    -1.4598 O.3     
  33 C33           -0.7046    10.5944    -2.8545 C.3     
  34 H34           -0.4903    -0.2095    -0.3550 H       
  35 H35           -0.9321     0.1130    -2.0620 H       
  36 H36            3.8938     0.0457    -1.1686 H       
  37 H37            1.1705     3.8989     0.2621 H       
  38 H38            6.1800     3.6995     1.1484 H       
  39 H39            5.7696     4.0605    -0.5615 H       
  40 H40            4.3085     2.1494     3.0365 H       
  41 H41            3.9797     2.8045     5.3893 H       
  42 H42            3.4212     5.1359     5.9480 H       
  43 H43            3.1876     6.8123     4.1701 H       
  44 H44            3.5741     8.0877     2.3073 H       
  45 H45            3.7167     8.0847     0.5331 H       
  46 H46            1.3603     7.3359     0.3451 H       
  47 H47            1.2178     7.3389     2.1193 H       
  48 H48            1.7286     9.7651     2.1562 H       
  49 H49            1.8711     9.7620     0.3819 H       
  50 H50           -0.3356     8.0300     2.6226 H       
  51 H51           -0.6403     9.7091     3.1286 H       
  52 H52           -2.7791     8.5403     2.9363 H       
  53 H53           -2.6579     9.7390     1.6260 H       
  54 H54           -3.8284     6.7308    -0.0468 H       
  55 H55           -4.4120     7.4246     1.4849 H       
  56 H56           -4.1013     8.4844     0.0890 H       
  57 H57           -1.4746    11.0388     1.0470 H       
  58 H58            0.1775    11.5249     1.4970 H       
  59 H59           -0.2740    12.2679    -0.7892 H       
  60 H60            0.9251    10.9531    -0.8349 H       
  61 H61           -0.7328    11.6515    -3.1188 H       
  62 H62            0.2831    10.1906    -3.0768 H       
  63 H63           -1.4559    10.0553    -3.4316 H       
@<TRIPOS>BOND
   1    1    2 1
   2    1    5 1
   3    2    3 1
   4    2   34 1
   5    2   35 1
   6    3    4 1
   7    4    5 ar
   8    4    6 ar
   9    5    9 ar
  10    6    7 ar
  11    6   36 1
  12    7    8 ar
  13    7   10 1
  14    8    9 ar
  15    8   11 1
  16    9   37 1
  17   10   12 1
  18   11   12 1
  19   11   14 1
  20   11   15 1
  21   12   38 1
  22   12   39 1
  23   13   14 am
  24   13   20 1
  25   13   22 1
  26   14   21 2
  27   15   16 ar
  28   15   20 ar
  29   16   17 ar
  30   16   40 1
  31   17   18 ar
  32   17   41 1
  33   18   19 ar
  34   18   42 1
  35   19   20 ar
  36   19   43 1
  37   22   23 1
  38   22   44 1
  39   22   45 1
  40   23   24 1
  41   23   46 1
  42   23   47 1
  43   24   25 1
  44   24   48 1
  45   24   49 1
  46   25   26 1
  47   25   30 1
  48   26   27 1
  49   26   50 1
  50   26   51 1
  51   27   28 1
  52   27   52 1
  53   27   53 1
  54   28   29 1
  55   29   54 1
  56   29   55 1
  57   29   56 1
  58   30   31 1
  59   30   57 1
  60   30   58 1
  61   31   32 1
  62   31   59 1
  63   31   60 1
  64   32   33 1
  65   33   61 1
  66   33   62 1
  67   33   63 1

#	End of record

