#	Name: ASD00451012
#	Creating user name:	WinNT
#	Creation time:	15. 06. 2019 18:36

#	Modifying user name:	WinNT
#	Modification time:	15. 06. 2019 18:36

#	Program:	/corina/corina34_cracker 3.40 0067  02.08.2006

@<TRIPOS>MOLECULE
ASD00451012
  45   48    0    0    0
SMALL
NO_CHARGES


@<TRIPOS>ATOM
   1 C1            -0.0777     1.4514     0.4603 C.ar    
   2 C2            -0.0288     0.0934     0.7435 C.ar    
   3 N3             1.1100     2.1745     0.2881 N.am    
   4 C4            -1.3041     2.0922     0.3421 C.ar    
   5 C5            -1.1997    -0.6202     0.9126 C.ar    
   6 C6             1.1900     3.4506     0.7142 C.2     
   7 C7            -2.4754     1.3769     0.5066 C.ar    
   8 C8            -2.4246     0.0193     0.7996 C.ar    
   9 O9             0.2074     4.0014     1.1720 O.2     
  10 N10            2.3591     4.1162     0.6330 N.am    
  11 O11           -3.5767    -0.6849     0.9615 O.3     
  12 C12            2.4175     5.4726     0.9742 C.ar    
  13 C13           -4.1880    -1.1714    -0.1492 C.ar    
  14 C14            3.5631     5.9934     1.5608 C.ar    
  15 C15            1.3318     6.3008     0.7214 C.ar    
  16 C16           -5.3172    -1.9803    -0.0488 C.ar    
  17 C17           -3.7067    -0.8706    -1.4214 C.ar    
  18 C18            3.6181     7.3321     1.8966 C.ar    
  19 C19            1.3919     7.6384     1.0590 C.ar    
  20 N20           -6.0577    -2.4701     1.0252 N.am    
  21 C21           -5.9188    -2.4614    -1.2119 C.ar    
  22 C22           -4.3554    -1.3835    -2.5267 C.ar    
  23 C23            2.5327     8.1538     1.6492 C.ar    
  24 C24           -7.0655    -3.2165     0.5340 C.2     
  25 N25           -7.0028    -3.2321    -0.8104 N.am    
  26 N26           -5.4208    -2.1518    -2.3995 N.ar    
  27 Cl27           2.6049     9.8358     2.0729 Cl      
  28 O28           -7.9012    -3.7943     1.2038 O.2     
  29 H29            1.8748     1.7566    -0.1379 H       
  30 H30            3.1601     3.6553     0.3381 H       
  31 H31           -5.8783    -2.3028     1.9637 H       
  32 H32           -7.6154    -3.6984    -1.4004 H       
  33 F33           -3.6690     1.9992     0.3919 F       
  34 C34            4.8612     7.8981     2.5333 C.3     
  35 F35            5.8127     6.8833     2.6816 F       
  36 F36            5.3821     8.9105     1.7202 F       
  37 F37            4.5429     8.4261     3.7891 F       
  38 H38            0.9249    -0.4057     0.8314 H       
  39 H39           -1.3426     3.1488     0.1222 H       
  40 H40           -1.1608    -1.6768     1.1325 H       
  41 H41            4.4103     5.3523     1.7547 H       
  42 H42            0.4413     5.8991     0.2608 H       
  43 H43           -2.8360    -0.2430    -1.5417 H       
  44 H44            0.5478     8.2829     0.8625 H       
  45 H45           -3.9843    -1.1514    -3.5140 H       
@<TRIPOS>BOND
   1    1    2 ar
   2    1    3 1
   3    1    4 ar
   4    2    5 ar
   5    2   38 1
   6    3   29 1
   7    3    6 am
   8    4    7 ar
   9    4   39 1
  10    5    8 ar
  11    5   40 1
  12    6    9 2
  13    6   10 am
  14    7   33 1
  15    7    8 ar
  16    8   11 1
  17   10   12 1
  18   10   30 1
  19   11   13 1
  20   12   14 ar
  21   12   15 ar
  22   13   16 ar
  23   13   17 ar
  24   14   18 ar
  25   14   41 1
  26   15   19 ar
  27   15   42 1
  28   16   20 1
  29   16   21 ar
  30   17   22 ar
  31   17   43 1
  32   18   23 ar
  33   18   34 1
  34   19   23 ar
  35   19   44 1
  36   20   31 1
  37   20   24 am
  38   21   26 ar
  39   21   25 1
  40   22   26 ar
  41   22   45 1
  42   23   27 1
  43   24   25 am
  44   24   28 2
  45   25   32 1
  46   34   35 1
  47   34   36 1
  48   34   37 1

#	End of record

