#	Name: ASD07301354
#	Creating user name:	WinNT
#	Creation time:	15. 06. 2019 21:11

#	Modifying user name:	WinNT
#	Modification time:	15. 06. 2019 21:11

#	Program:	/corina/corina34_cracker 3.40 0067  02.08.2006

@<TRIPOS>MOLECULE
ASD07301354
  37   38    0    0    0
SMALL
NO_CHARGES


@<TRIPOS>ATOM
   1 C1            -0.0169     1.4660     0.0591 C.2     
   2 C2             0.0021    -0.0040     0.0009 C.2     
   3 C3             1.2717    -0.6340    -0.0640 C.2     
   4 C4             2.3707     0.1575    -0.0679 C.2     
   5 N5             2.2550     1.5070    -0.0114 N.pl3   
   6 N6             1.1281     2.1149     0.0482 N.2     
   7 C7            -1.2982     2.2006     0.1225 C.2     
   8 O8            -2.3509     1.5891     0.1268 O.2     
   9 N9            -1.3009     3.5461     0.1753 N.2     
  10 C10            3.4243     2.2748    -0.0184 C.ar    
  11 C11            3.3480     3.6587    -0.1151 C.ar    
  12 C12            4.5041     4.4136    -0.1213 C.ar    
  13 C13            5.7372     3.7935    -0.0318 C.ar    
  14 C14            5.8168     2.4164     0.0640 C.ar    
  15 C15            4.6641     1.6557     0.0770 C.ar    
  16 C16            4.4223     5.9147    -0.2260 C.3     
  17 F17            4.3459     6.4682     1.0565 F       
  18 F18            5.5622     6.3996    -0.8761 F       
  19 F19            3.2827     6.2698    -0.9558 F       
  20 O20           -1.0314    -0.6546     0.0087 O.2     
  21 C21           -2.4378     4.1980     0.2315 C.2     
  22 N22           -2.4405     5.5474     0.2845 N.pl3   
  23 C23           -1.1737     6.2833     0.2792 C.3     
  24 C24           -3.7103     6.2755     0.3473 C.3     
  25 H25            1.3590    -1.7095    -0.1085 H       
  26 H26            3.3515    -0.2920    -0.1163 H       
  27 H27            2.3854     4.1434    -0.1856 H       
  28 H28            6.6400     4.3863    -0.0373 H       
  29 H29            6.7813     1.9354     0.1329 H       
  30 H30            4.7268     0.5805     0.1564 H       
  31 H31           -3.3716     3.6555     0.2354 H       
  32 H32           -0.6258     6.0568    -0.6354 H       
  33 H33           -1.3750     7.3535     0.3266 H       
  34 H34           -0.5779     5.9871     1.1425 H       
  35 H35           -3.9975     6.4158     1.3893 H       
  36 H36           -3.5957     7.2477    -0.1321 H       
  37 H37           -4.4823     5.7046    -0.1687 H       
@<TRIPOS>BOND
   1    1    2 1
   2    1    6 2
   3    1    7 1
   4    2    3 1
   5    2   20 2
   6    3    4 2
   7    3   25 1
   8    4    5 1
   9    4   26 1
  10    5    6 1
  11    5   10 1
  12    7    8 2
  13    7    9 1
  14    9   21 2
  15   10   11 ar
  16   10   15 ar
  17   11   12 ar
  18   11   27 1
  19   12   13 ar
  20   12   16 1
  21   13   14 ar
  22   13   28 1
  23   14   15 ar
  24   14   29 1
  25   15   30 1
  26   16   17 1
  27   16   18 1
  28   16   19 1
  29   21   22 1
  30   21   31 1
  31   22   23 1
  32   22   24 1
  33   23   32 1
  34   23   33 1
  35   23   34 1
  36   24   35 1
  37   24   36 1
  38   24   37 1

#	End of record

