#	Name: ASD08170074
#	Creating user name:	WinNT
#	Creation time:	15. 06. 2019 21:17

#	Modifying user name:	WinNT
#	Modification time:	15. 06. 2019 21:17

#	Program:	/corina/corina34_cracker 3.40 0067  02.08.2006

@<TRIPOS>MOLECULE
ASD08170074
  83   86    0    0    0
SMALL
NO_CHARGES


@<TRIPOS>ATOM
   1 C1            -0.0473     2.7111    -0.8828 C.ar    
   2 C2            -0.2400     1.3380    -0.8629 C.ar    
   3 C3             0.8516     0.4867    -0.7388 C.ar    
   4 C4             2.1325     1.0159    -0.6352 C.ar    
   5 C5             2.3167     2.3901    -0.6559 C.ar    
   6 C6             1.2284     3.2334    -0.7795 C.ar    
   7 O7            -1.4954     0.8251    -0.9642 O.3     
   8 C8            -2.5698     1.7591    -1.0884 C.3     
   9 O9             0.6666    -0.8614    -0.7185 O.3     
  10 C10            0.6950    -1.5392    -1.9761 C.3     
  11 O11            3.2038     0.1871    -0.5132 O.3     
  12 C12            4.4904     0.8006    -0.4114 C.3     
  13 C13            1.4332     4.7262    -0.8021 C.3     
  14 C14            1.3708     5.2632     0.6046 C.2     
  15 N15            1.5283     6.5826     0.8299 N.am    
  16 O16            1.1790     4.5080     1.5340 O.2     
  17 C17            1.4708     7.0782     2.1281 C.2     
  18 S18            1.6437     8.7221     2.5780 S.3     
  19 N19            1.2714     6.3720     3.1999 N.2     
  20 N20            1.2469     6.9798     4.3061 N.2     
  21 C21            1.4230     8.2624     4.2666 C.2     
  22 C22            1.4330     9.1951     5.4503 C.3     
  23 C23            2.8603     9.3240     5.9861 C.3     
  24 S24            2.8723    10.4467     7.4109 S.3     
  25 C25            4.6197    10.4703     7.8971 C.3     
  26 C26            4.8000    11.3889     9.1073 C.3     
  27 C27            6.2517    11.4085     9.5112 C.2     
  28 S28            6.9935    10.3399    10.6246 S.3     
  29 N29            7.1471    12.2323     9.0703 N.2     
  30 N30            8.3167    12.0914     9.5284 N.2     
  31 C31            8.4895    11.1378    10.3861 C.2     
  32 C32            9.7910    10.7857    11.0592 C.3     
  33 C33            9.9176    11.5617    12.3449 C.2     
  34 N34           11.0087    11.4070    13.1207 N.am    
  35 O35            9.0375    12.3255    12.6814 O.2     
  36 C36           11.1728    12.1988    14.2646 C.ar    
  37 C37           10.0677    12.5572    15.0245 C.ar    
  38 C38           12.4409    12.6198    14.6408 C.ar    
  39 C39           12.6043    13.4029    15.7727 C.ar    
  40 C40           11.4978    13.7669    16.5309 C.ar    
  41 C41           10.2291    13.3409    16.1562 C.ar    
  42 O42            9.1462    13.6927    16.9000 O.3     
  43 C43            7.8730    13.2192    16.4564 C.3     
  44 O44           11.6574    14.5358    17.6432 O.3     
  45 C45           11.5951    15.9525    17.4670 C.3     
  46 O46           13.8468    13.8145    16.1415 O.3     
  47 C47           14.9383    13.4027    15.3161 C.3     
  48 H48           -0.8946     3.3731    -0.9836 H       
  49 H49            3.3117     2.8022    -0.5755 H       
  50 H50           -3.5140     1.2194    -1.1604 H       
  51 H51           -2.5888     2.4095    -0.2139 H       
  52 H52           -2.4260     2.3610    -1.9858 H       
  53 H53            0.5350    -2.6057    -1.8178 H       
  54 H54           -0.0921    -1.1453    -2.6191 H       
  55 H55            1.6638    -1.3837    -2.4509 H       
  56 H56            5.2546     0.0289    -0.3193 H       
  57 H57            4.6808     1.3958    -1.3044 H       
  58 H58            4.5171     1.4451     0.4673 H       
  59 H59            2.4078     4.9528    -1.2346 H       
  60 H60            0.6519     5.1911    -1.4034 H       
  61 H61            1.6818     7.1866     0.0866 H       
  62 H62            1.0703    10.1760     5.1430 H       
  63 H63            0.7860     8.7971     6.2320 H       
  64 H64            3.2229     8.3431     6.2934 H       
  65 H65            3.5073     9.7220     5.2044 H       
  66 H66            4.9384     9.4607     8.1566 H       
  67 H67            5.2227    10.8397     7.0676 H       
  68 H68            4.4813    12.3984     8.8478 H       
  69 H69            4.1970    11.0195     9.9368 H       
  70 H70            9.8106     9.7177    11.2760 H       
  71 H71           10.6212    11.0379    10.3994 H       
  72 H72           11.6804    10.7473    12.8871 H       
  73 H73            9.0820    12.2255    14.7336 H       
  74 H74           13.3006    12.3368    14.0514 H       
  75 H75            7.0975    13.5706    17.1370 H       
  76 H76            7.6744    13.5965    15.4533 H       
  77 H77            7.8760    12.1293    16.4407 H       
  78 H78           11.7372    16.4449    18.4290 H       
  79 H79           12.3788    16.2678    16.7781 H       
  80 H80           10.6217    16.2255    17.0594 H       
  81 H81           14.9854    12.3140    15.2925 H       
  82 H82           14.7922    13.7821    14.3047 H       
  83 H83           15.8697    13.7980    15.7214 H       
@<TRIPOS>BOND
   1    1    2 ar
   2    1    6 ar
   3    1   48 1
   4    2    3 ar
   5    2    7 1
   6    3    4 ar
   7    3    9 1
   8    4    5 ar
   9    4   11 1
  10    5    6 ar
  11    5   49 1
  12    6   13 1
  13    7    8 1
  14    8   50 1
  15    8   51 1
  16    8   52 1
  17    9   10 1
  18   10   53 1
  19   10   54 1
  20   10   55 1
  21   11   12 1
  22   12   56 1
  23   12   57 1
  24   12   58 1
  25   13   14 1
  26   13   59 1
  27   13   60 1
  28   14   15 am
  29   14   16 2
  30   15   17 1
  31   15   61 1
  32   17   19 2
  33   17   18 1
  34   18   21 1
  35   19   20 1
  36   20   21 2
  37   21   22 1
  38   22   23 1
  39   22   62 1
  40   22   63 1
  41   23   24 1
  42   23   64 1
  43   23   65 1
  44   24   25 1
  45   25   26 1
  46   25   66 1
  47   25   67 1
  48   26   27 1
  49   26   68 1
  50   26   69 1
  51   27   29 2
  52   27   28 1
  53   28   31 1
  54   29   30 1
  55   30   31 2
  56   31   32 1
  57   32   33 1
  58   32   70 1
  59   32   71 1
  60   33   34 am
  61   33   35 2
  62   34   36 1
  63   34   72 1
  64   36   38 ar
  65   36   37 ar
  66   37   41 ar
  67   37   73 1
  68   38   39 ar
  69   38   74 1
  70   39   40 ar
  71   39   46 1
  72   40   41 ar
  73   40   44 1
  74   41   42 1
  75   42   43 1
  76   43   75 1
  77   43   76 1
  78   43   77 1
  79   44   45 1
  80   45   78 1
  81   45   79 1
  82   45   80 1
  83   46   47 1
  84   47   81 1
  85   47   82 1
  86   47   83 1

#	End of record

