#	Name: ASD01913146
#	Creating user name:	WinNT
#	Creation time:	15. 06. 2019 20:01

#	Modifying user name:	WinNT
#	Modification time:	15. 06. 2019 20:01

#	Program:	/corina/corina34_cracker 3.40 0067  02.08.2006

@<TRIPOS>MOLECULE
ASD01913146
  55   57    0    0    0
SMALL
NO_CHARGES


@<TRIPOS>ATOM
   1 C1             0.0214     1.1428     0.4728 C.ar    
   2 C2             0.0015    -0.2411     0.5107 C.ar    
   3 C3            -1.2038    -0.9160     0.4940 C.ar    
   4 C4            -2.3945    -0.2065     0.4393 C.ar    
   5 C5            -2.3731     1.1799     0.4014 C.ar    
   6 C6            -1.1665     1.8523     0.4236 C.ar    
   7 O7            -3.5812    -0.8694     0.4223 O.3     
   8 C8            -4.7675    -0.0746     0.3654 C.3     
   9 C9            -5.9940    -0.9892     0.3542 C.3     
  10 C10           -7.2450    -0.1510     0.2942 C.2     
  11 N11           -8.4543    -0.7457     0.2747 N.am    
  12 C12           -9.6877     0.0534     0.2163 C.3     
  13 C13          -10.5579    -0.4774    -0.9279 C.3     
  14 N14          -10.7613    -1.9219    -0.7547 N.3     
  15 C15           -9.4896    -2.6527    -0.8366 C.3     
  16 C16           -8.5754    -2.2112     0.3052 C.3     
  17 O17           -7.1636     1.0587     0.2634 O.2     
  18 C18          -11.6784    -2.4112    -1.6807 C.ar    
  19 C19          -11.2658    -3.2877    -2.6744 C.ar    
  20 C20          -12.1774    -3.7719    -3.5922 C.ar    
  21 C21          -13.5064    -3.3880    -3.5294 C.ar    
  22 C22          -13.9342    -2.5178    -2.5488 C.ar    
  23 C23          -13.0257    -2.0250    -1.6104 C.ar    
  24 C24          -13.4765    -1.0949    -0.5593 C.2     
  25 F25            1.2008     1.8015     0.4897 F       
  26 C26          -15.3821    -2.1044    -2.4865 C.3     
  27 F27          -16.0681    -2.6421    -3.5807 F       
  28 F28          -15.9518    -2.5787    -1.3000 F       
  29 F29          -15.4704    -0.7086    -2.5208 F       
  30 N30          -13.2737    -1.3793     0.6871 N.2     
  31 O31          -12.5414    -2.5392     1.0385 O.3     
  32 C32          -12.4905    -2.7907     2.4443 C.3     
  33 H33            0.9287    -0.7933     0.5529 H       
  34 H34           -1.2190    -1.9955     0.5231 H       
  35 H35           -3.2994     1.7335     0.3584 H       
  36 H36           -1.1496     2.9318     0.3945 H       
  37 H37           -4.8093     0.5786     1.2370 H       
  38 H38           -4.7567     0.5299    -0.5415 H       
  39 H39           -5.9522    -1.6424    -0.5173 H       
  40 H40           -6.0048    -1.5936     1.2612 H       
  41 H41          -10.2274    -0.0368     1.1590 H       
  42 H42           -9.4385     1.0985     0.0324 H       
  43 H43          -11.5227     0.0297    -0.9165 H       
  44 H44          -10.0601    -0.2917    -1.8797 H       
  45 H45           -9.6796    -3.7232    -0.7590 H       
  46 H46           -9.0067    -2.4367    -1.7896 H       
  47 H47           -7.5916    -2.6641     0.1826 H       
  48 H48           -9.0063    -2.5173     1.2585 H       
  49 H49          -10.2309    -3.5912    -2.7304 H       
  50 H50          -11.8516    -4.4538    -4.3637 H       
  51 H51          -14.2112    -3.7717    -4.2522 H       
  52 H52          -13.9761    -0.1762    -0.8291 H       
  53 H53          -11.9121    -3.6956     2.6308 H       
  54 H54          -12.0178    -1.9472     2.9474 H       
  55 H55          -13.5027    -2.9212     2.8269 H       
@<TRIPOS>BOND
   1    1    2 ar
   2    1   25 1
   3    1    6 ar
   4    2    3 ar
   5    2   33 1
   6    3    4 ar
   7    3   34 1
   8    4    5 ar
   9    4    7 1
  10    5    6 ar
  11    5   35 1
  12    6   36 1
  13    7    8 1
  14    8    9 1
  15    8   37 1
  16    8   38 1
  17    9   10 1
  18    9   39 1
  19    9   40 1
  20   10   11 am
  21   10   17 2
  22   11   12 1
  23   11   16 1
  24   12   13 1
  25   12   41 1
  26   12   42 1
  27   13   14 1
  28   13   43 1
  29   13   44 1
  30   14   15 1
  31   14   18 1
  32   15   16 1
  33   15   45 1
  34   15   46 1
  35   16   47 1
  36   16   48 1
  37   18   19 ar
  38   18   23 ar
  39   19   20 ar
  40   19   49 1
  41   20   21 ar
  42   20   50 1
  43   21   22 ar
  44   21   51 1
  45   22   23 ar
  46   22   26 1
  47   23   24 1
  48   24   30 2
  49   24   52 1
  50   26   27 1
  51   26   28 1
  52   26   29 1
  53   30   31 1
  54   31   32 1
  55   32   53 1
  56   32   54 1
  57   32   55 1

#	End of record

