#	Name: ASD09720056
#	Creating user name:	WinNT
#	Creation time:	15. 06. 2019 21:22

#	Modifying user name:	WinNT
#	Modification time:	15. 06. 2019 21:22

#	Program:	/corina/corina34_cracker 3.40 0067  02.08.2006

@<TRIPOS>MOLECULE
ASD09720056
  61   62    0    0    0
SMALL
NO_CHARGES


@<TRIPOS>ATOM
   1 C1             0.1363     1.6311    -0.4138 C.ar    
   2 C2             0.5484     0.3300    -0.9751 C.2     
   3 N3             0.4714    -0.7400    -0.2519 N.2     
   4 C4             1.0589     0.2477    -2.3906 C.3     
   5 O5             0.1060    -0.6473     1.1130 O.3     
   6 S6             1.4807    -1.4726    -2.7822 S.3     
   7 C7             2.0485    -1.3723    -4.4471 C.ar    
   8 C8             2.4705    -2.5189    -5.1094 C.ar    
   9 C9             2.9150    -2.4365    -6.4141 C.ar    
  10 C10            2.9409    -1.2148    -7.0617 C.ar    
  11 C11            2.5222    -0.0715    -6.4057 C.ar    
  12 C12            2.0702    -0.1473    -5.1031 C.ar    
  13 C13            0.7803     2.8043    -0.8216 C.ar    
  14 C14            0.4002     4.0214    -0.3008 C.ar    
  15 C15           -0.6251     4.0935     0.6325 C.ar    
  16 C16           -1.2786     2.9230     1.0487 C.ar    
  17 C17           -0.8974     1.6917     0.5175 C.ar    
  18 C18            1.1003     5.2797    -0.7454 C.3     
  19 C19            2.2553     4.9173    -1.6810 C.3     
  20 C20            0.1090     6.1810    -1.4843 C.3     
  21 C21            1.6473     6.0183     0.4778 C.3     
  22 C22           -2.3678     2.9961     2.0397 C.2     
  23 O23           -3.0457     1.8821     2.3791 O.3     
  24 O24           -2.6541     4.0608     2.5503 O.2     
  25 C25           -4.1052     2.0287     3.3611 C.3     
  26 C26           -5.1578     3.0059     2.8337 C.3     
  27 C27           -4.7555     0.6676     3.6168 C.3     
  28 C28           -3.5186     2.5671     4.6676 C.3     
  29 O29           -0.9948     5.2940     1.1421 O.3     
  30 C30           -2.2137     5.8583     0.6543 C.3     
  31 H31            0.2871     0.5976    -3.0761 H       
  32 H32            1.9465     0.8719    -2.4936 H       
  33 H33            0.0754    -1.4986     1.5707 H       
  34 H34            2.4512    -3.4732    -4.6041 H       
  35 H35            3.2430    -3.3272    -6.9294 H       
  36 H36            3.2894    -1.1532    -8.0821 H       
  37 H37            2.5441     0.8809    -6.9144 H       
  38 H38            1.7434     0.7458    -4.5914 H       
  39 H39            1.5786     2.7553    -1.5473 H       
  40 H40           -1.3961     0.7873     0.8334 H       
  41 H41            1.8656     4.3911    -2.5524 H       
  42 H42            2.7617     5.8274    -2.0026 H       
  43 H43            2.9615     4.2752    -1.1546 H       
  44 H44           -0.6214     6.5742    -0.7772 H       
  45 H45            0.6463     7.0077    -1.9490 H       
  46 H46           -0.4040     5.6032    -2.2531 H       
  47 H47            2.3535     5.3763     1.0042 H       
  48 H48            2.1537     6.9284     0.1562 H       
  49 H49            0.8244     6.2766     1.1443 H       
  50 H50           -5.5756     2.6223     1.9030 H       
  51 H51           -5.9531     3.1159     3.5709 H       
  52 H52           -4.6945     3.9755     2.6516 H       
  53 H53           -4.0056    -0.0285     3.9925 H       
  54 H54           -5.5508     0.7777     4.3540 H       
  55 H55           -5.1734     0.2840     2.6860 H       
  56 H56           -3.0553     3.5368     4.4855 H       
  57 H57           -4.3140     2.6772     5.4048 H       
  58 H58           -2.7687     1.8710     5.0434 H       
  59 H59           -2.2017     5.8621    -0.4356 H       
  60 H60           -3.0561     5.2629     1.0063 H       
  61 H61           -2.3130     6.8802     1.0202 H       
@<TRIPOS>BOND
   1    1    2 1
   2    1   13 ar
   3    1   17 ar
   4    2    3 2
   5    2    4 1
   6    3    5 1
   7    4    6 1
   8    4   31 1
   9    4   32 1
  10    5   33 1
  11    6    7 1
  12    7    8 ar
  13    7   12 ar
  14    8    9 ar
  15    8   34 1
  16    9   10 ar
  17    9   35 1
  18   10   11 ar
  19   10   36 1
  20   11   12 ar
  21   11   37 1
  22   12   38 1
  23   13   14 ar
  24   13   39 1
  25   14   15 ar
  26   14   18 1
  27   15   16 ar
  28   15   29 1
  29   16   17 ar
  30   16   22 1
  31   17   40 1
  32   18   19 1
  33   18   20 1
  34   18   21 1
  35   19   41 1
  36   19   42 1
  37   19   43 1
  38   20   44 1
  39   20   45 1
  40   20   46 1
  41   21   47 1
  42   21   48 1
  43   21   49 1
  44   22   23 1
  45   22   24 2
  46   23   25 1
  47   25   26 1
  48   25   27 1
  49   25   28 1
  50   26   50 1
  51   26   51 1
  52   26   52 1
  53   27   53 1
  54   27   54 1
  55   27   55 1
  56   28   56 1
  57   28   57 1
  58   28   58 1
  59   29   30 1
  60   30   59 1
  61   30   60 1
  62   30   61 1

#	End of record

