#	Name: ASD01890452
#	Creating user name:	WinNT
#	Creation time:	15. 06. 2019 19:51

#	Modifying user name:	WinNT
#	Modification time:	15. 06. 2019 19:51

#	Program:	/corina/corina34_cracker 3.40 0067  02.08.2006

@<TRIPOS>MOLECULE
ASD01890452
  40   42    0    0    0
SMALL
NO_CHARGES


@<TRIPOS>ATOM
   1 C1            -0.8634    -0.2181    -1.0816 C.2     
   2 C2            -0.0695     0.1286     0.1515 C.3     
   3 C3             1.2898    -0.5715     0.0964 C.3     
   4 C4             2.1534    -0.1015     1.2687 C.3     
   5 O5            -0.3534    -0.8631    -1.9669 O.2     
   6 O6            -2.1388     0.1850    -1.1940 O.3     
   7 C7             1.0908    -2.0627     0.1853 C.ar    
   8 C8             1.5229    -2.8798    -0.8427 C.ar    
   9 C9             1.3406    -4.2475    -0.7618 C.ar    
  10 C10            0.7257    -4.7987     0.3482 C.ar    
  11 C11            0.2935    -3.9804     1.3767 C.ar    
  12 C12            0.4814    -2.6134     1.2972 C.ar    
  13 Cl13           0.4959    -6.5164     0.4503 Cl      
  14 C14            2.4657     1.3639     1.1068 C.2     
  15 N15            3.0289     1.8947     0.0610 N.2     
  16 C16            3.1622     3.2336     0.2443 C.ar    
  17 C17            2.6316     3.5282     1.5118 C.ar    
  18 N18            2.1943     2.3249     2.0304 N.pl3   
  19 C19            3.6865     4.2652    -0.5386 C.ar    
  20 C20            3.6783     5.5572    -0.0616 C.ar    
  21 C21            3.1528     5.8425     1.1915 C.ar    
  22 C22            2.6313     4.8359     1.9760 C.ar    
  23 C23            2.0627     5.1550     3.3346 C.3     
  24 Cl24           4.3304     6.8387    -1.0344 Cl      
  25 H25            0.0791     1.2075     0.1966 H       
  26 H26           -0.6122    -0.2008     1.0375 H       
  27 H27            1.7869    -0.3266    -0.8422 H       
  28 H28            1.6137    -0.2570     2.2029 H       
  29 H29            3.0826    -0.6712     1.2868 H       
  30 H30           -2.6074    -0.0614    -2.0032 H       
  31 H31            2.0026    -2.4494    -1.7093 H       
  32 H32            1.6779    -4.8858    -1.5651 H       
  33 H33           -0.1866    -4.4101     2.2434 H       
  34 H34            0.1481    -1.9749     2.1019 H       
  35 H35            1.7735     2.1901     2.8939 H       
  36 H36            4.0972     4.0502    -1.5140 H       
  37 H37            3.1526     6.8598     1.5541 H       
  38 H38            2.8505     5.0822     4.0844 H       
  39 H39            1.6574     6.1668     3.3304 H       
  40 H40            1.2689     4.4466     3.5718 H       
@<TRIPOS>BOND
   1    1    2 1
   2    1    5 2
   3    1    6 1
   4    2    3 1
   5    2   25 1
   6    2   26 1
   7    3    4 1
   8    3    7 1
   9    3   27 1
  10    4   14 1
  11    4   28 1
  12    4   29 1
  13    6   30 1
  14    7    8 ar
  15    7   12 ar
  16    8    9 ar
  17    8   31 1
  18    9   10 ar
  19    9   32 1
  20   10   11 ar
  21   10   13 1
  22   11   12 ar
  23   11   33 1
  24   12   34 1
  25   14   15 2
  26   14   18 1
  27   15   16 1
  28   16   17 ar
  29   16   19 ar
  30   17   18 1
  31   17   22 ar
  32   18   35 1
  33   19   20 ar
  34   19   36 1
  35   20   21 ar
  36   20   24 1
  37   21   22 ar
  38   21   37 1
  39   22   23 1
  40   23   38 1
  41   23   39 1
  42   23   40 1

#	End of record

