#	Name: ASD01120257
#	Creating user name:	WinNT
#	Creation time:	15. 06. 2019 18:59

#	Modifying user name:	WinNT
#	Modification time:	15. 06. 2019 18:59

#	Program:	/corina/corina34_cracker 3.40 0067  02.08.2006

@<TRIPOS>MOLECULE
ASD01120257
  59   60    0    0    0
SMALL
NO_CHARGES


@<TRIPOS>ATOM
   1 C1            -0.0167     1.3791     0.0096 C.ar    
   2 C2             0.0021    -0.0041     0.0020 C.ar    
   3 C3            -1.1857    -0.7112     0.0100 C.ar    
   4 C4            -2.3919    -0.0365     0.0257 C.ar    
   5 C5            -2.4113     1.3460     0.0333 C.ar    
   6 C6            -1.2245     2.0540     0.0306 C.ar    
   7 S7            -3.9495     2.2052     0.0532 S.o2    
   8 N8            -4.3617     2.4358     1.6404 N.am    
   9 C9            -3.6007     3.2226     2.4268 C.2     
  10 N10           -3.9362     3.4102     3.7186 N.am    
  11 O11           -3.6957     3.4949    -0.4869 O.2     
  12 O12           -4.9146     1.3128    -0.4865 O.2     
  13 O13           -2.6116     3.7631     1.9709 O.2     
  14 C14           -1.8307    12.0605    14.8479 C.ar    
  15 C15           -2.9584    12.7821    15.1962 C.ar    
  16 C16           -3.9937    12.1629    15.8711 C.ar    
  17 C17           -3.9023    10.8230    16.1980 C.ar    
  18 C18           -2.7755    10.1013    15.8502 C.ar    
  19 C19           -1.7421    10.7179    15.1708 C.ar    
  20 S20           -2.6599     8.3933    16.2673 S.o2    
  21 N21           -3.2989     7.5356    15.0031 N.am    
  22 C22           -2.6964     7.5622    13.7978 C.2     
  23 N23           -3.2164     6.8642    12.7688 N.am    
  24 O24           -1.2739     8.0820    16.3036 O.2     
  25 O25           -3.5313     8.1900    17.3712 O.2     
  26 O26           -1.6837     8.2160    13.6387 O.2     
  27 Cl27          -0.5304    12.8374    13.9997 Cl      
  28 Cl28           1.4746     2.2678     0.0002 Cl      
  29 C29           -2.5615     6.8932    11.4587 C.3     
  30 C30           -3.3485     6.0241    10.4757 C.3     
  31 C31           -2.6645     6.0544     9.1075 C.3     
  32 C32           -3.7059     4.3089     5.9815 C.3     
  33 C33           -3.1091     4.2655     4.5734 C.3     
  34 O34           -3.3996     5.2427     8.1894 O.3     
  35 C35           -2.8421     5.2021     6.8742 C.3     
  36 H36            0.9445    -0.5314    -0.0105 H       
  37 H37           -1.1712    -1.7911     0.0037 H       
  38 H38           -3.3197    -0.5894     0.0316 H       
  39 H39           -1.2398     3.1339     0.0365 H       
  40 H40           -5.1507     2.0046     2.0041 H       
  41 H41           -4.7253     2.9790     4.0823 H       
  42 H42           -3.0297    13.8291    14.9411 H       
  43 H43           -4.8740    12.7262    16.1434 H       
  44 H44           -4.7113    10.3397    16.7257 H       
  45 H45           -0.8619    10.1541    14.8992 H       
  46 H46           -4.1068     7.0140    15.1300 H       
  47 H47           -4.0243     6.3426    12.8957 H       
  48 H48           -2.5290     7.9189    11.0913 H       
  49 H49           -1.5460     6.5082    11.5515 H       
  50 H50           -3.3810     4.9984    10.8431 H       
  51 H51           -4.3640     6.4091    10.3829 H       
  52 H52           -2.6320     7.0801     8.7401 H       
  53 H53           -1.6490     5.6694     9.2003 H       
  54 H54           -4.7178     4.7116     5.9350 H       
  55 H55           -3.7347     3.3009     6.3952 H       
  56 H56           -2.0973     3.8628     4.6199 H       
  57 H57           -3.0803     5.2735     4.1597 H       
  58 H58           -1.8303     4.7994     6.9208 H       
  59 H59           -2.8133     6.2101     6.4606 H       
@<TRIPOS>BOND
   1    1    2 ar
   2    1   28 1
   3    1    6 ar
   4    2    3 ar
   5    2   36 1
   6    3    4 ar
   7    3   37 1
   8    4    5 ar
   9    4   38 1
  10    5    6 ar
  11    5    7 1
  12    6   39 1
  13    7    8 am
  14    7   11 2
  15    7   12 2
  16    8    9 am
  17    8   40 1
  18    9   10 am
  19    9   13 2
  20   10   33 1
  21   10   41 1
  22   14   15 ar
  23   14   27 1
  24   14   19 ar
  25   15   16 ar
  26   15   42 1
  27   16   17 ar
  28   16   43 1
  29   17   18 ar
  30   17   44 1
  31   18   19 ar
  32   18   20 1
  33   19   45 1
  34   20   21 am
  35   20   24 2
  36   20   25 2
  37   21   22 am
  38   21   46 1
  39   22   23 am
  40   22   26 2
  41   23   29 1
  42   23   47 1
  43   29   30 1
  44   29   48 1
  45   29   49 1
  46   30   31 1
  47   30   50 1
  48   30   51 1
  49   31   34 1
  50   31   52 1
  51   31   53 1
  52   32   33 1
  53   32   35 1
  54   32   54 1
  55   32   55 1
  56   33   56 1
  57   33   57 1
  58   34   35 1
  59   35   58 1
  60   35   59 1

#	End of record

