#	Name: ASD01420105
#	Creating user name:	WinNT
#	Creation time:	15. 06. 2019 19:20

#	Modifying user name:	WinNT
#	Modification time:	15. 06. 2019 19:20

#	Program:	/corina/corina34_cracker 3.40 0067  02.08.2006

@<TRIPOS>MOLECULE
ASD01420105
  44   46    0    0    0
SMALL
NO_CHARGES


@<TRIPOS>ATOM
   1 C1            -0.0144     1.2120     0.0087 C.2     
   2 O2             0.3001     0.3311    -0.7686 O.2     
   3 C3             0.6627     2.7159     1.9064 C.3     
   4 N4             0.8504     1.6089     0.9632 N.am    
   5 C5             2.1588     1.0160     1.2577 C.3     
   6 C6             2.7646     1.7876     2.4027 C.ar    
   7 C7             3.9732     1.6423     3.0621 C.ar    
   8 C8             4.3028     2.4924     4.0999 C.ar    
   9 C9             3.4247     3.4901     4.4807 C.ar    
  10 C10            2.2187     3.6359     3.8228 C.ar    
  11 C11            1.8877     2.7840     2.7829 C.ar    
  12 C12            5.6185     2.3320     4.8170 C.3     
  13 C13           -1.3382     1.8494    -0.0969 C.ar    
  14 C14           -2.4902     1.0611    -0.2411 C.ar    
  15 C15           -3.7301     1.6681    -0.3392 C.ar    
  16 C16           -3.8316     3.0510    -0.2952 C.ar    
  17 C17           -2.6903     3.8339    -0.1522 C.ar    
  18 C18           -1.4526     3.2420    -0.0480 C.ar    
  19 C19           -2.8108     5.3353    -0.1056 C.3     
  20 C20           -2.2585     5.8502     1.2252 C.3     
  21 C21           -2.0137     5.9471    -1.2594 C.3     
  22 O22           -5.0491     3.6426    -0.3926 O.3     
  23 O23           -2.3888    -0.2910    -0.2848 O.3     
  24 H24            0.5473     3.6516     1.3594 H       
  25 H25           -0.2202     2.5337     2.5189 H       
  26 H26            2.0354    -0.0294     1.5409 H       
  27 H27            2.8030     1.0886     0.3814 H       
  28 H28            4.6593     0.8630     2.7648 H       
  29 H29            3.6813     4.1550     5.2922 H       
  30 H30            1.5328     4.4151     4.1206 H       
  31 H31            6.3782     2.9370     4.3222 H       
  32 H32            5.5107     2.6587     5.8513 H       
  33 H33            5.9182     1.2842     4.7963 H       
  34 H34           -4.6191     1.0649    -0.4503 H       
  35 H35           -0.5695     3.8530     0.0674 H       
  36 H36           -3.8593     5.6187    -0.1978 H       
  37 H37           -1.2101     5.5668     1.3174 H       
  38 H38           -2.3457     6.9362     1.2589 H       
  39 H39           -2.8264     5.4144     2.0472 H       
  40 H40           -0.9653     5.6637    -1.1672 H       
  41 H41           -2.4072     5.5803    -2.2074 H       
  42 H42           -2.1009     7.0330    -1.2256 H       
  43 H43           -5.4889     3.7798     0.4577 H       
  44 H44           -2.4456    -0.7178     0.5811 H       
@<TRIPOS>BOND
   1    1    2 2
   2    1    4 am
   3    1   13 1
   4    3    4 1
   5    3   11 1
   6    3   24 1
   7    3   25 1
   8    4    5 1
   9    5    6 1
  10    5   26 1
  11    5   27 1
  12    6    7 ar
  13    6   11 ar
  14    7    8 ar
  15    7   28 1
  16    8    9 ar
  17    8   12 1
  18    9   10 ar
  19    9   29 1
  20   10   11 ar
  21   10   30 1
  22   12   31 1
  23   12   32 1
  24   12   33 1
  25   13   14 ar
  26   13   18 ar
  27   14   15 ar
  28   14   23 1
  29   15   16 ar
  30   15   34 1
  31   16   17 ar
  32   16   22 1
  33   17   18 ar
  34   17   19 1
  35   18   35 1
  36   19   20 1
  37   19   21 1
  38   19   36 1
  39   20   37 1
  40   20   38 1
  41   20   39 1
  42   21   40 1
  43   21   41 1
  44   21   42 1
  45   22   43 1
  46   23   44 1

#	End of record

