#	Name: ASD04880317
#	Creating user name:	WinNT
#	Creation time:	15. 06. 2019 20:53

#	Modifying user name:	WinNT
#	Modification time:	15. 06. 2019 20:53

#	Program:	/corina/corina34_cracker 3.40 0067  02.08.2006

@<TRIPOS>MOLECULE
ASD04880317
  50   53    0    0    0
SMALL
NO_CHARGES


@<TRIPOS>ATOM
   1 C1            -0.0055     1.3699     0.3044 C.ar    
   2 C2             0.0099    -0.0227     0.2704 C.ar    
   3 C3            -1.1790    -0.7263     0.2215 C.ar    
   4 C4            -2.3945    -0.0373     0.2068 C.ar    
   5 C5            -2.4022     1.3595     0.2415 C.ar    
   6 C6            -1.2123     2.0542     0.2955 C.ar    
   7 C7            -3.6655    -0.7822     0.1543 C.2     
   8 O8             1.1648     2.0599     0.3519 O.3     
   9 C9             1.0763     3.4858     0.3848 C.3     
  10 O10            1.1948    -0.6901     0.2849 O.3     
  11 C11            1.1359    -2.1174     0.2481 C.3     
  12 N12           -3.7743    -2.0657     0.1193 N.2     
  13 N13           -5.0891    -2.5245     0.0732 N.am    
  14 C14           -5.9975    -1.3668     0.0783 C.3     
  15 C15           -5.0426    -0.1581     0.1397 C.3     
  16 C16           -5.4673    -3.8174     0.0309 C.2     
  17 C17           -4.4508    -4.8796    -0.0954 C.ar    
  18 O18           -6.6463    -4.1087     0.0970 O.2     
  19 C19           -3.1125    -4.5455    -0.3158 C.ar    
  20 C20           -2.1646    -5.5389    -0.4331 C.ar    
  21 C21           -2.5347    -6.8731    -0.3336 C.ar    
  22 C22           -3.8704    -7.2137    -0.1133 C.ar    
  23 C23           -4.8238    -6.2225     0.0108 C.ar    
  24 C24           -5.2856     0.6536     1.4137 C.3     
  25 C25           -5.2115     0.7227    -1.0999 C.3     
  26 O26           -1.8014    -8.0200    -0.4135 O.3     
  27 C27           -2.6270    -9.0468     0.1665 C.3     
  28 O28           -3.9688    -8.5743    -0.0556 O.3     
  29 H29           -1.1683    -1.8059     0.1945 H       
  30 H30           -3.3401     1.8949     0.2299 H       
  31 H31           -1.2196     3.1339     0.3223 H       
  32 H32            0.5180     3.7949     1.2684 H       
  33 H33            2.0792     3.9113     0.4215 H       
  34 H34            0.5644     3.8388    -0.5104 H       
  35 H35            0.5845    -2.4808     1.1153 H       
  36 H36            0.6309    -2.4369    -0.6635 H       
  37 H37            2.1473    -2.5234     0.2645 H       
  38 H38           -6.5937    -1.3431    -0.8339 H       
  39 H39           -6.6409    -1.3879     0.9579 H       
  40 H40           -2.8207    -3.5087    -0.3946 H       
  41 H41           -1.1304    -5.2785    -0.6035 H       
  42 H42           -5.8575    -6.4848     0.1812 H       
  43 H43           -5.1133     0.0221     2.2852 H       
  44 H44           -4.6024     1.5026     1.4394 H       
  45 H45           -6.3141     1.0144     1.4240 H       
  46 H46           -6.2381     1.0853    -1.1509 H       
  47 H47           -4.5293     1.5707    -1.0387 H       
  48 H48           -4.9872     0.1397    -1.9932 H       
  49 H49           -2.4674    -9.9984    -0.3405 H       
  50 H50           -2.4264    -9.1421     1.2337 H       
@<TRIPOS>BOND
   1    1    2 ar
   2    1    8 1
   3    1    6 ar
   4    2    3 ar
   5    2   10 1
   6    3    4 ar
   7    3   29 1
   8    4    5 ar
   9    4    7 1
  10    5    6 ar
  11    5   30 1
  12    6   31 1
  13    7   12 2
  14    7   15 1
  15    8    9 1
  16    9   32 1
  17    9   33 1
  18    9   34 1
  19   10   11 1
  20   11   35 1
  21   11   36 1
  22   11   37 1
  23   12   13 1
  24   13   14 1
  25   13   16 am
  26   14   15 1
  27   14   38 1
  28   14   39 1
  29   15   24 1
  30   15   25 1
  31   16   17 1
  32   16   18 2
  33   17   19 ar
  34   17   23 ar
  35   19   20 ar
  36   19   40 1
  37   20   21 ar
  38   20   41 1
  39   21   22 ar
  40   21   26 1
  41   22   23 ar
  42   22   28 1
  43   23   42 1
  44   24   43 1
  45   24   44 1
  46   24   45 1
  47   25   46 1
  48   25   47 1
  49   25   48 1
  50   26   27 1
  51   27   28 1
  52   27   49 1
  53   27   50 1

#	End of record

