#	Name: ASD04550040
#	Creating user name:	WinNT
#	Creation time:	15. 06. 2019 20:49

#	Modifying user name:	WinNT
#	Modification time:	15. 06. 2019 20:49

#	Program:	/corina/corina34_cracker 3.40 0067  02.08.2006

@<TRIPOS>MOLECULE
ASD04550040
  34   35    0    0    0
SMALL
NO_CHARGES


@<TRIPOS>ATOM
   1 C1            -0.3096     1.4679     0.4857 C.ar    
   2 C2            -0.1088     0.1498     0.1020 C.ar    
   3 C3             1.1719    -0.2987    -0.1870 C.ar    
   4 C4             2.2437     0.5677    -0.0921 C.ar    
   5 C5             2.0410     1.8807     0.2909 C.ar    
   6 C6             0.7655     2.3303     0.5791 C.ar    
   7 C7             3.2121     2.8235     0.3941 C.3     
   8 C8             3.0073     3.9979    -0.5650 C.3     
   9 O9            -1.1649    -0.7007     0.0099 O.3     
  10 C10           -1.9609    -0.5728    -1.0696 C.2     
  11 C11           -3.1903    -1.3839    -1.1809 C.ar    
  12 O12           -1.6675     0.2097    -1.9513 O.2     
  13 C13           -4.0175    -1.2539    -2.2983 C.ar    
  14 C14           -5.1639    -2.0148    -2.3960 C.ar    
  15 C15           -5.4948    -2.9054    -1.3901 C.ar    
  16 C16           -4.6798    -3.0390    -0.2799 C.ar    
  17 C17           -3.5275    -2.2885    -0.1720 C.ar    
  18 C18            3.3181     3.3404     1.8057 C.2     
  19 O19            2.5241     2.9801     2.6422 O.2     
  20 O20            4.2945     4.2010     2.1338 O.3     
  21 H21           -1.3061     1.8206     0.7069 H       
  22 H22            1.3308    -1.3243    -0.4856 H       
  23 H23            3.2408     0.2191    -0.3170 H       
  24 H24            0.6098     3.3563     0.8781 H       
  25 H25            4.1283     2.2950     0.1309 H       
  26 H26            3.8544     4.6799    -0.4904 H       
  27 H27            2.9307     3.6241    -1.5860 H       
  28 H28            2.0911     4.5265    -0.3018 H       
  29 H29           -3.7606    -0.5589    -3.0840 H       
  30 H30           -5.8049    -1.9150    -3.2595 H       
  31 H31           -6.3935    -3.4988    -1.4717 H       
  32 H32           -4.9444    -3.7355     0.5020 H       
  33 H33           -2.8923    -2.3937     0.6951 H       
  34 H34            4.3220     4.5047     3.0514 H       
@<TRIPOS>BOND
   1    1    2 ar
   2    1    6 ar
   3    1   21 1
   4    2    3 ar
   5    2    9 1
   6    3    4 ar
   7    3   22 1
   8    4    5 ar
   9    4   23 1
  10    5    6 ar
  11    5    7 1
  12    6   24 1
  13    7    8 1
  14    7   18 1
  15    7   25 1
  16    8   26 1
  17    8   27 1
  18    8   28 1
  19    9   10 1
  20   10   11 1
  21   10   12 2
  22   11   13 ar
  23   11   17 ar
  24   13   14 ar
  25   13   29 1
  26   14   15 ar
  27   14   30 1
  28   15   16 ar
  29   15   31 1
  30   16   17 ar
  31   16   32 1
  32   17   33 1
  33   18   19 2
  34   18   20 1
  35   20   34 1

#	End of record

