#	Name: ASD02500277
#	Creating user name:	WinNT
#	Creation time:	15. 06. 2019 20:22

#	Modifying user name:	WinNT
#	Modification time:	15. 06. 2019 20:22

#	Program:	/corina/corina34_cracker 3.40 0067  02.08.2006

@<TRIPOS>MOLECULE
ASD02500277
  63   67    0    0    0
SMALL
NO_CHARGES


@<TRIPOS>ATOM
   1 N1            -3.2724     5.6971    -0.3150 N.ar    
   2 C2            -4.3567     6.3717    -0.6108 C.ar    
   3 C3            -5.5297     6.2353     0.1287 C.ar    
   4 C4            -5.5690     5.3804     1.1930 C.ar    
   5 C5            -4.4028     4.6573     1.5075 C.ar    
   6 C6            -4.3673     3.7606     2.5872 C.ar    
   7 C7            -3.2197     3.0801     2.8593 C.ar    
   8 C8            -2.0790     3.2621     2.0805 C.ar    
   9 C9            -2.0781     4.1233     1.0265 C.ar    
  10 C10           -3.2437     4.8440     0.7139 C.ar    
  11 S11           -0.6212     4.3348     0.0584 S.o2    
  12 O12           -0.3946     5.7351    -0.0250 O.2     
  13 O13            0.3383     3.4214     0.5726 O.2     
  14 N14           -0.9750     3.8261    -1.4773 N.am    
  15 C15           -1.2140     2.4765    -1.7263 C.ar    
  16 C16           -0.8527     1.9197    -2.9549 C.ar    
  17 C17           -1.0891     0.5829    -3.2023 C.ar    
  18 C18           -1.6904    -0.2114    -2.2208 C.ar    
  19 C19           -2.0497     0.3512    -0.9934 C.ar    
  20 C20           -1.8064     1.6850    -0.7492 C.ar    
  21 O21           -0.2685     2.6949    -3.9077 O.3     
  22 C22            0.0747     2.0592    -5.1406 C.3     
  23 C23           -1.9454    -1.6409    -2.4811 C.2     
  24 O24           -2.3739    -1.9950    -3.5626 O.2     
  25 N25           -1.7035    -2.5545    -1.5202 N.am    
  26 C26           -1.8657    -3.9892    -1.7943 C.3     
  27 C27           -0.5521    -4.7045    -1.4551 C.3     
  28 N28           -0.1209    -4.2839    -0.1146 N.am    
  29 C29            0.0413    -2.8492     0.1595 C.3     
  30 C30           -1.2669    -2.1342    -0.1813 C.3     
  31 C31            0.1210    -5.1975     0.8463 C.2     
  32 C32            0.6642    -4.7689     2.1554 C.ar    
  33 C33            1.8242    -3.9919     2.2327 C.ar    
  34 C34            2.2961    -3.6143     3.4748 C.ar    
  35 N35            1.6694    -3.9761     4.5766 N.ar    
  36 C36            0.5736    -4.7077     4.5502 C.ar    
  37 C37            0.0278    -5.1254     3.3500 C.ar    
  38 O38           -0.1066    -6.3729     0.6383 O.2     
  39 Cl39          -1.4205    -6.0822     3.3257 Cl      
  40 H40           -4.3402     7.0515    -1.4499 H       
  41 H41           -6.4069     6.8054    -0.1393 H       
  42 H42           -6.4696     5.2626     1.7773 H       
  43 H43           -5.2451     3.6117     3.1986 H       
  44 H44           -3.1933     2.3905     3.6900 H       
  45 H45           -1.1807     2.7111     2.3170 H       
  46 H46           -1.0159     4.4679    -2.2035 H       
  47 H47           -0.8106     0.1509    -4.1521 H       
  48 H48           -2.5144    -0.2606    -0.2345 H       
  49 H49           -2.0806     2.1175     0.2016 H       
  50 H50            0.7795     1.2503    -4.9485 H       
  51 H51           -0.8254     1.6546    -5.6036 H       
  52 H52            0.5316     2.7879    -5.8102 H       
  53 H53           -2.6704    -4.3907    -1.1784 H       
  54 H54           -2.1005    -4.1360    -2.8486 H       
  55 H55           -0.7092    -5.7831    -1.4672 H       
  56 H56            0.2104    -4.4352    -2.1860 H       
  57 H57            0.2760    -2.7024     1.2138 H       
  58 H58            0.8460    -2.4477    -0.4564 H       
  59 H59           -1.1064    -1.0561    -0.1706 H       
  60 H60           -2.0281    -2.4005     0.5520 H       
  61 H61            2.3436    -3.6918     1.3347 H       
  62 H62            3.1916    -3.0145     3.5442 H       
  63 H63            0.0932    -4.9812     5.4780 H       
@<TRIPOS>BOND
   1    1    2 ar
   2    1   10 ar
   3    2    3 ar
   4    2   40 1
   5    3    4 ar
   6    3   41 1
   7    4    5 ar
   8    4   42 1
   9    5    6 ar
  10    5   10 ar
  11    6    7 ar
  12    6   43 1
  13    7    8 ar
  14    7   44 1
  15    8    9 ar
  16    8   45 1
  17    9   10 ar
  18    9   11 1
  19   11   12 2
  20   11   13 2
  21   11   14 am
  22   14   15 1
  23   14   46 1
  24   15   16 ar
  25   15   20 ar
  26   16   17 ar
  27   16   21 1
  28   17   18 ar
  29   17   47 1
  30   18   19 ar
  31   18   23 1
  32   19   20 ar
  33   19   48 1
  34   20   49 1
  35   21   22 1
  36   22   50 1
  37   22   51 1
  38   22   52 1
  39   23   24 2
  40   23   25 am
  41   25   26 1
  42   25   30 1
  43   26   27 1
  44   26   53 1
  45   26   54 1
  46   27   28 1
  47   27   55 1
  48   27   56 1
  49   28   29 1
  50   28   31 am
  51   29   30 1
  52   29   57 1
  53   29   58 1
  54   30   59 1
  55   30   60 1
  56   31   32 1
  57   31   38 2
  58   32   33 ar
  59   32   37 ar
  60   33   34 ar
  61   33   61 1
  62   34   35 ar
  63   34   62 1
  64   35   36 ar
  65   36   37 ar
  66   36   63 1
  67   37   39 1

#	End of record

