#	Name: ASD02562093
#	Creating user name:	WinNT
#	Creation time:	15. 06. 2019 20:25

#	Modifying user name:	WinNT
#	Modification time:	15. 06. 2019 20:25

#	Program:	/corina/corina34_cracker 3.40 0067  02.08.2006

@<TRIPOS>MOLECULE
ASD02562093
  49   52    0    0    0
SMALL
NO_CHARGES


@<TRIPOS>ATOM
   1 C1             0.1011     1.8425    -0.7963 C.ar    
   2 N2             0.5333     0.9059    -1.6248 N.ar    
   3 C3            -0.1976     0.5407    -2.6732 C.ar    
   4 C4            -1.4382     1.1623    -2.8925 C.ar    
   5 C5            -1.8569     2.1524    -1.9866 C.ar    
   6 N6            -1.0659     2.4518    -0.9626 N.ar    
   7 N7            -3.0707     2.7978    -2.1552 N.pl3   
   8 N8             0.8923     2.1955     0.2862 N.pl3   
   9 C9            -3.5238     3.6931    -1.1886 C.ar    
  10 C10            2.0940     1.5288     0.5178 C.ar    
  11 C11            3.3022     2.2029     0.3649 C.ar    
  12 C12           -3.2223     3.4777     0.1528 C.ar    
  13 C13           -3.6680     4.3605     1.1104 C.ar    
  14 C14           -4.4243     5.4745     0.7340 C.ar    
  15 C15           -4.7252     5.6877    -0.6145 C.ar    
  16 C16           -4.2718     4.8037    -1.5674 C.ar    
  17 C17            2.0825     0.1925     0.9069 C.ar    
  18 C18            3.2668    -0.4695     1.1371 C.ar    
  19 C19            4.4844     0.2029     0.9789 C.ar    
  20 C20            4.4912     1.5484     0.5925 C.ar    
  21 C21            3.3083     3.6513    -0.0512 C.3     
  22 C22            0.7711    -0.5304     1.0769 C.3     
  23 C23           -4.8900     6.3947     1.7275 C.1     
  24 N24           -5.2594     7.1247     2.5156 N.1     
  25 C25            5.7518    -0.5000     1.2241 C.2     
  26 C26            6.9249     0.1504     1.0710 C.2     
  27 C27            8.1597    -0.5344     1.3099 C.1     
  28 N28            9.1392    -1.0776     1.4994 N.1     
  29 N29           -0.0441    -0.3675    -3.6900 N.pl3   
  30 C30           -1.1525    -0.2863    -4.4813 C.2     
  31 N31           -1.9687     0.6115    -4.0117 N.2     
  32 H32           -3.6053     2.6264    -2.9462 H       
  33 H33            0.6094     2.9065     0.8823 H       
  34 H34           -2.6384     2.6168     0.4430 H       
  35 H35           -3.4340     4.1926     2.1513 H       
  36 H36           -5.3095     6.5471    -0.9086 H       
  37 H37           -4.5037     4.9681    -2.6093 H       
  38 H38            3.2569    -1.5062     1.4397 H       
  39 H39            5.4283     2.0709     0.4693 H       
  40 H40            3.2765     4.2842     0.8357 H       
  41 H41            4.2159     3.8632    -0.6164 H       
  42 H42            2.4369     3.8542    -0.6737 H       
  43 H43            0.5321    -1.0698     0.1604 H       
  44 H44            0.8498    -1.2361     1.9038 H       
  45 H45           -0.0170     0.1920     1.2894 H       
  46 H46            5.7446    -1.5367     1.5268 H       
  47 H47            6.9321     1.1871     0.7684 H       
  48 H48            0.7136    -0.9585    -3.8223 H       
  49 H49           -1.3265    -0.8794    -5.3670 H       
@<TRIPOS>BOND
   1    1    2 ar
   2    1    8 1
   3    1    6 ar
   4    2    3 ar
   5    3    4 ar
   6    3   29 1
   7    4    5 ar
   8    4   31 1
   9    5    6 ar
  10    5    7 1
  11    7    9 1
  12    7   32 1
  13    8   10 1
  14    8   33 1
  15    9   12 ar
  16    9   16 ar
  17   10   11 ar
  18   10   17 ar
  19   11   21 1
  20   11   20 ar
  21   12   13 ar
  22   12   34 1
  23   13   14 ar
  24   13   35 1
  25   14   15 ar
  26   14   23 1
  27   15   16 ar
  28   15   36 1
  29   16   37 1
  30   17   18 ar
  31   17   22 1
  32   18   19 ar
  33   18   38 1
  34   19   20 ar
  35   19   25 1
  36   20   39 1
  37   21   40 1
  38   21   41 1
  39   21   42 1
  40   22   43 1
  41   22   44 1
  42   22   45 1
  43   23   24 3
  44   25   26 2
  45   25   46 1
  46   26   27 1
  47   26   47 1
  48   27   28 3
  49   29   30 1
  50   29   48 1
  51   30   31 2
  52   30   49 1

#	End of record

