#	Name: ASD01911076
#	Creating user name:	WinNT
#	Creation time:	15. 06. 2019 19:57

#	Modifying user name:	WinNT
#	Modification time:	15. 06. 2019 19:57

#	Program:	/corina/corina34_cracker 3.40 0067  02.08.2006

@<TRIPOS>MOLECULE
ASD01911076
  47   50    0    0    0
SMALL
NO_CHARGES


@<TRIPOS>ATOM
   1 C1             0.9934     1.1657     0.8072 C.ar    
   2 C2             0.5599    -0.0946     0.4321 C.ar    
   3 C3            -0.7761    -0.3101     0.1517 C.ar    
   4 C4            -1.6795     0.7320     0.2457 C.ar    
   5 C5            -1.2478     1.9908     0.6202 C.ar    
   6 C6             0.0867     2.2074     0.9066 C.ar    
   7 F7             2.2992     1.3776     1.0815 F       
   8 C8            -3.1360     0.4958    -0.0607 C.3     
   9 C9            -3.8554     0.0913     1.2002 C.2     
  10 N10           -4.4490     0.9191     2.0784 N.2     
  11 C11           -4.9440     0.1450     3.0140 C.2     
  12 O12           -4.6395    -1.1125     2.6792 O.3     
  13 N13           -4.0211    -1.1218     1.6357 N.2     
  14 C14           -5.7094     0.5886     4.2340 C.3     
  15 C15           -7.1060    -0.0369     4.2162 C.3     
  16 C16           -7.8956     0.4391     5.4377 C.3     
  17 C17           -7.1786    -0.0152     6.7130 C.3     
  18 N18           -5.7893     0.4608     6.6695 N.am    
  19 C19           -4.9676     0.1360     5.4956 C.3     
  20 C20           -5.2783     1.1818     7.6871 C.2     
  21 O21           -4.1082     1.5112     7.6713 O.2     
  22 C22           -6.1401     1.5718     8.8218 C.ar    
  23 C23           -6.9167     0.6121     9.4737 C.ar    
  24 C24           -7.7194     0.9802    10.5327 C.ar    
  25 C25           -7.7570     2.3006    10.9514 C.ar    
  26 C26           -6.9869     3.2603    10.3073 C.ar    
  27 C27           -6.1762     2.9009     9.2498 C.ar    
  28 F28           -8.5456     2.6556    11.9892 F       
  29 F29           -7.0275     4.5461    10.7199 F       
  30 H30            1.2656    -0.9088     0.3582 H       
  31 H31           -1.1144    -1.2930    -0.1413 H       
  32 H32           -1.9545     2.8043     0.6930 H       
  33 H33            0.4237     3.1908     1.1995 H       
  34 H34           -3.5779     1.4116    -0.4533 H       
  35 H35           -3.2272    -0.2983    -0.8018 H       
  36 H36           -5.7973     1.6751     4.2332 H       
  37 H37           -7.6270     0.2639     3.3073 H       
  38 H38           -7.0178    -1.1230     4.2415 H       
  39 H39           -7.9629     1.5269     5.4261 H       
  40 H40           -8.8980     0.0118     5.4121 H       
  41 H41           -7.6815     0.4044     7.5842 H       
  42 H42           -7.1902    -1.1037     6.7707 H       
  43 H43           -4.7989    -0.9401     5.4541 H       
  44 H44           -4.0117     0.6554     5.5636 H       
  45 H45           -6.8891    -0.4175     9.1486 H       
  46 H46           -8.3205     0.2379    11.0367 H       
  47 H47           -5.5774     3.6471     8.7489 H       
@<TRIPOS>BOND
   1    1    2 ar
   2    1    7 1
   3    1    6 ar
   4    2    3 ar
   5    2   30 1
   6    3    4 ar
   7    3   31 1
   8    4    5 ar
   9    4    8 1
  10    5    6 ar
  11    5   32 1
  12    6   33 1
  13    8    9 1
  14    8   34 1
  15    8   35 1
  16    9   10 1
  17    9   13 2
  18   10   11 2
  19   11   12 1
  20   11   14 1
  21   12   13 1
  22   14   15 1
  23   14   19 1
  24   14   36 1
  25   15   16 1
  26   15   37 1
  27   15   38 1
  28   16   17 1
  29   16   39 1
  30   16   40 1
  31   17   18 1
  32   17   41 1
  33   17   42 1
  34   18   19 1
  35   18   20 am
  36   19   43 1
  37   19   44 1
  38   20   21 2
  39   20   22 1
  40   22   23 ar
  41   22   27 ar
  42   23   24 ar
  43   23   45 1
  44   24   25 ar
  45   24   46 1
  46   25   26 ar
  47   25   28 1
  48   26   27 ar
  49   26   29 1
  50   27   47 1

#	End of record

