#	Name: ASD07930554
#	Creating user name:	WinNT
#	Creation time:	15. 06. 2019 21:12

#	Modifying user name:	WinNT
#	Modification time:	15. 06. 2019 21:12

#	Program:	/corina/corina34_cracker 3.40 0067  02.08.2006

@<TRIPOS>MOLECULE
ASD07930554
  44   46    0    0    0
SMALL
NO_CHARGES


@<TRIPOS>ATOM
   1 C1            -0.0343     1.4581     0.0424 C.3     
   2 N2             0.7953    -0.4134    -2.1302 N.2     
   3 N3            -0.8904    -1.7835    -1.2685 N.pl3   
   4 C4            -0.9150    -2.8271    -0.2382 C.3     
   5 C5            -1.2300    -2.1885     1.1215 C.3     
   6 S6             0.0062    -0.8913     1.4434 S.o2    
   7 N7            -0.0140    -0.0067     0.0315 N.am    
   8 C8            -0.0113    -0.7260    -1.1552 C.2     
   9 C9             0.4500    -3.5154    -0.1755 C.3     
  10 C10           -1.9765    -3.8423    -0.5755 C.ar    
  11 C11           -2.8068    -3.6380    -1.6597 C.ar    
  12 C12           -3.7847    -4.5743    -1.9703 C.ar    
  13 C13           -3.9250    -5.7139    -1.1895 C.ar    
  14 C14           -3.0923    -5.9142    -0.1058 C.ar    
  15 C15           -2.1147    -4.9822     0.1989 C.ar    
  16 O16           -0.4576     0.0117     2.4378 O.2     
  17 O17            1.3140    -1.4440     1.5003 O.2     
  18 F18           -1.3012    -5.1801     1.2592 F       
  19 N19           -4.6274    -4.3692    -3.0682 N.am    
  20 C20           -5.0470    -5.4195    -3.8012 C.2     
  21 O21           -4.6175    -6.5322    -3.5696 O.2     
  22 C22           -6.0334    -5.2169    -4.8909 C.ar    
  23 N23           -6.4344    -6.2613    -5.6010 N.ar    
  24 C24           -7.3737    -3.7799    -6.0866 C.ar    
  25 N25           -6.4948    -3.9971    -5.1254 N.ar    
  26 C26           -7.3112    -6.1183    -6.5778 C.ar    
  27 C27           -7.8138    -4.8516    -6.8564 C.ar    
  28 F28           -8.7126    -4.6673    -7.8481 F       
  29 H29            0.9883     1.8356     0.0393 H       
  30 H30           -0.5582     1.8209    -0.8419 H       
  31 H31           -0.5479     1.8077     0.9380 H       
  32 H32            1.4071     0.3331    -2.0331 H       
  33 H33           -1.4883    -1.8387    -2.0303 H       
  34 H34           -2.2270    -1.7484     1.0987 H       
  35 H35           -1.1799    -2.9460     1.9037 H       
  36 H36            1.2165    -2.7805     0.0704 H       
  37 H37            0.4311    -4.2908     0.5903 H       
  38 H38            0.6749    -3.9652    -1.1426 H       
  39 H39           -2.6962    -2.7508    -2.2655 H       
  40 H40           -4.6849    -6.4430    -1.4290 H       
  41 H41           -3.2011    -6.8004     0.5018 H       
  42 H42           -4.9097    -3.4710    -3.3018 H       
  43 H43           -7.7458    -2.7833    -6.2727 H       
  44 H44           -7.6337    -6.9736    -7.1531 H       
@<TRIPOS>BOND
   1    1    7 1
   2    1   29 1
   3    1   30 1
   4    1   31 1
   5    2    8 2
   6    2   32 1
   7    3    4 1
   8    3    8 1
   9    3   33 1
  10    4    5 1
  11    4    9 1
  12    4   10 1
  13    5    6 1
  14    5   34 1
  15    5   35 1
  16    6    7 am
  17    6   16 2
  18    6   17 2
  19    7    8 1
  20    9   36 1
  21    9   37 1
  22    9   38 1
  23   10   11 ar
  24   10   15 ar
  25   11   12 ar
  26   11   39 1
  27   12   13 ar
  28   12   19 1
  29   13   14 ar
  30   13   40 1
  31   14   15 ar
  32   14   41 1
  33   15   18 1
  34   19   20 am
  35   19   42 1
  36   20   21 2
  37   20   22 1
  38   22   23 ar
  39   22   25 ar
  40   23   26 ar
  41   24   25 ar
  42   24   27 ar
  43   24   43 1
  44   26   27 ar
  45   26   44 1
  46   27   28 1

#	End of record

