#	Name: ASD01913029
#	Creating user name:	WinNT
#	Creation time:	15. 06. 2019 20:00

#	Modifying user name:	WinNT
#	Modification time:	15. 06. 2019 20:00

#	Program:	/corina/corina34_cracker 3.40 0067  02.08.2006

@<TRIPOS>MOLECULE
ASD01913029
  62   66    0    0    0
SMALL
NO_CHARGES


@<TRIPOS>ATOM
   1 C1            -0.0232     1.4430     0.4072 C.ar    
   2 C2            -0.0002    -0.0183     0.1760 C.2     
   3 N3            -1.0847    -0.8265     0.0080 N.pl3   
   4 C4             1.1123    -0.8063     0.0856 C.2     
   5 C5             0.6907    -2.1176    -0.1356 C.2     
   6 N6            -0.6173    -2.1332    -0.1824 N.2     
   7 C7             1.5909    -3.3152    -0.2981 C.3     
   8 C8             2.0400    -3.4215    -1.7568 C.3     
   9 C9             2.8174    -3.1573     0.6029 C.3     
  10 C10            3.7313    -4.3733     0.4379 C.3     
  11 C11            4.1804    -4.4796    -1.0208 C.3     
  12 C12            2.9539    -4.6375    -1.9218 C.3     
  13 C13           -2.4875    -0.4045     0.0241 C.3     
  14 C14           -2.9466    -0.1332    -1.3854 C.2     
  15 N15           -4.2116     0.2704    -1.6161 N.am    
  16 O16           -2.1778    -0.2781    -2.3121 O.2     
  17 C17           -4.6802     0.5406    -2.9839 C.3     
  18 C18           -5.9838    -0.2316    -3.2133 C.3     
  19 N19           -6.9414     0.1039    -2.1509 N.3     
  20 C20           -6.4448    -0.3163    -0.8338 C.3     
  21 C21           -5.1619     0.4466    -0.5075 C.3     
  22 C22           -8.1841    -0.4469    -2.4113 C.ar    
  23 N23           -9.1736    -0.2448    -1.5538 N.ar    
  24 C24          -10.3734    -0.7570    -1.7728 C.ar    
  25 C25          -10.5879    -1.5123    -2.9150 C.ar    
  26 C26           -9.5308    -1.7040    -3.7908 C.ar    
  27 N27           -8.3574    -1.1593    -3.5149 N.ar    
  28 C28            1.0637     2.0728     1.0141 C.ar    
  29 C29            1.0373     3.4353     1.2275 C.ar    
  30 C30           -0.0663     4.1784     0.8400 C.ar    
  31 C31           -1.1486     3.5576     0.2372 C.ar    
  32 C32           -1.1294     2.1966     0.0138 C.ar    
  33 F33           -0.0873     5.5127     1.0512 F       
  34 H34            2.1362    -0.4732     0.1700 H       
  35 H35            1.0483    -4.2182    -0.0182 H       
  36 H36            1.1662    -3.5340    -2.3987 H       
  37 H37            2.5826    -2.5186    -2.0367 H       
  38 H38            3.3600    -2.2544     0.3230 H       
  39 H39            2.4975    -3.0816     1.6421 H       
  40 H40            4.6051    -4.2608     1.0798 H       
  41 H41            3.1887    -5.2762     0.7178 H       
  42 H42            4.7229    -3.5766    -1.3007 H       
  43 H43            4.8314    -5.3458    -1.1384 H       
  44 H44            2.4113    -5.5404    -1.6419 H       
  45 H45            3.2738    -4.7132    -2.9610 H       
  46 H46           -3.0995    -1.1942     0.4599 H       
  47 H47           -2.5871     0.5029     0.6196 H       
  48 H48           -4.8613     1.6087    -3.1046 H       
  49 H49           -3.9282     0.2106    -3.7005 H       
  50 H50           -6.4035     0.0426    -4.1811 H       
  51 H51           -5.7804    -1.3023    -3.1948 H       
  52 H52           -7.1988    -0.1035    -0.0760 H       
  53 H53           -6.2350    -1.3858    -0.8484 H       
  54 H54           -4.7285     0.0570     0.4137 H       
  55 H55           -5.3861     1.5068    -0.3902 H       
  56 H56          -11.1760    -0.5891    -1.0699 H       
  57 H57          -11.5575    -1.9424    -3.1180 H       
  58 H58           -9.6647    -2.2876    -4.6896 H       
  59 H59            1.9241     1.4945     1.3168 H       
  60 H60            1.8781     3.9238     1.6976 H       
  61 H61           -2.0065     4.1411    -0.0626 H       
  62 H62           -1.9733     1.7137    -0.4565 H       
@<TRIPOS>BOND
   1    1    2 1
   2    1   28 ar
   3    1   32 ar
   4    2    3 1
   5    2    4 2
   6    3   13 1
   7    3    6 1
   8    4    5 1
   9    4   34 1
  10    5    6 2
  11    5    7 1
  12    7    8 1
  13    7    9 1
  14    7   35 1
  15    8   12 1
  16    8   36 1
  17    8   37 1
  18    9   10 1
  19    9   38 1
  20    9   39 1
  21   10   11 1
  22   10   40 1
  23   10   41 1
  24   11   12 1
  25   11   42 1
  26   11   43 1
  27   12   44 1
  28   12   45 1
  29   13   14 1
  30   13   46 1
  31   13   47 1
  32   14   15 am
  33   14   16 2
  34   15   17 1
  35   15   21 1
  36   17   18 1
  37   17   48 1
  38   17   49 1
  39   18   19 1
  40   18   50 1
  41   18   51 1
  42   19   20 1
  43   19   22 1
  44   20   21 1
  45   20   52 1
  46   20   53 1
  47   21   54 1
  48   21   55 1
  49   22   23 ar
  50   22   27 ar
  51   23   24 ar
  52   24   25 ar
  53   24   56 1
  54   25   26 ar
  55   25   57 1
  56   26   27 ar
  57   26   58 1
  58   28   29 ar
  59   28   59 1
  60   29   30 ar
  61   29   60 1
  62   30   31 ar
  63   30   33 1
  64   31   32 ar
  65   31   61 1
  66   32   62 1

#	End of record

