#	Name: ASD01510032
#	Creating user name:	WinNT
#	Creation time:	15. 06. 2019 19:21

#	Modifying user name:	WinNT
#	Modification time:	15. 06. 2019 19:21

#	Program:	/corina/corina34_cracker 3.40 0067  02.08.2006

@<TRIPOS>MOLECULE
ASD01510032
  47   48    0    0    0
SMALL
NO_CHARGES


@<TRIPOS>ATOM
   1 C1             0.2826     1.9713    -0.5539 C.3     
   2 C2             0.4081     0.4479    -0.4891 C.3     
   3 O3             0.9638    -0.0368    -1.7131 O.3     
   4 C4             1.1423    -1.3771    -1.8202 C.ar    
   5 N5             0.8079    -2.1841    -0.8187 N.ar    
   6 C6             0.9782    -3.4897    -0.9145 C.ar    
   7 F7             0.6249    -4.2750     0.1264 F       
   8 N8             1.4832    -4.0504    -1.9976 N.ar    
   9 C9             1.8428    -3.3132    -3.0432 C.ar    
  10 C10            1.6742    -1.9295    -2.9856 C.ar    
  11 S11            2.1337    -0.9053    -4.3437 S.3     
  12 C12            0.6194    -0.8941    -5.2445 C.ar    
  13 N13            0.5465    -0.2081    -6.3760 N.ar    
  14 C14           -0.5798    -0.1775    -7.0823 C.ar    
  15 N15           -0.6477     0.5446    -8.2692 N.am    
  16 C16            0.3966     1.3030    -8.6574 C.2     
  17 O17            1.3573     1.4307    -7.9284 O.2     
  18 C18            0.3704     1.9923    -9.9972 C.3     
  19 C19           -1.6894    -0.8776    -6.6186 C.ar    
  20 C20           -1.5752    -1.5865    -5.4265 C.ar    
  21 N21           -0.4156    -1.5762    -4.7758 N.ar    
  22 N22           -2.6583    -2.3008    -4.9249 N.am    
  23 C23           -2.5098    -3.0664    -3.8256 C.2     
  24 O24           -1.4589    -3.0611    -3.2205 O.2     
  25 C25           -3.6498    -3.9289    -3.3485 C.3     
  26 O26            2.3613    -3.8978    -4.1518 O.3     
  27 C27            2.4961    -5.3202    -4.1324 C.3     
  28 C28            3.0937    -5.7941    -5.4588 C.3     
  29 H29            1.2686     2.4110    -0.7046 H       
  30 H30           -0.3688     2.2473    -1.3831 H       
  31 H31           -0.1413     2.3411     0.3797 H       
  32 H32            1.0595     0.1719     0.3402 H       
  33 H33           -0.5778     0.0082    -0.3384 H       
  34 H34           -1.4468     0.5023    -8.8176 H       
  35 H35           -0.4795     2.6735   -10.0389 H       
  36 H36            1.2939     2.5549   -10.1345 H       
  37 H37            0.2780     1.2472   -10.7874 H       
  38 H38           -2.6176    -0.8708    -7.1707 H       
  39 H39           -3.5205    -2.2479    -5.3662 H       
  40 H40           -4.5041    -3.8024    -4.0135 H       
  41 H41           -3.3399    -4.9739    -3.3498 H       
  42 H42           -3.9298    -3.6342    -2.3371 H       
  43 H43            3.1531    -5.6118    -3.3131 H       
  44 H44            1.5160    -5.7762    -3.9920 H       
  45 H45            2.4366    -5.5025    -6.2781 H       
  46 H46            4.0738    -5.3381    -5.5992 H       
  47 H47            3.1965    -6.8791    -5.4440 H       
@<TRIPOS>BOND
   1    1    2 1
   2    1   29 1
   3    1   30 1
   4    1   31 1
   5    2    3 1
   6    2   32 1
   7    2   33 1
   8    3    4 1
   9    4    5 ar
  10    4   10 ar
  11    5    6 ar
  12    6    7 1
  13    6    8 ar
  14    8    9 ar
  15    9   10 ar
  16    9   26 1
  17   10   11 1
  18   11   12 1
  19   12   13 ar
  20   12   21 ar
  21   13   14 ar
  22   14   15 1
  23   14   19 ar
  24   15   16 am
  25   15   34 1
  26   16   17 2
  27   16   18 1
  28   18   35 1
  29   18   36 1
  30   18   37 1
  31   19   20 ar
  32   19   38 1
  33   20   21 ar
  34   20   22 1
  35   22   23 am
  36   22   39 1
  37   23   24 2
  38   23   25 1
  39   25   40 1
  40   25   41 1
  41   25   42 1
  42   26   27 1
  43   27   28 1
  44   27   43 1
  45   27   44 1
  46   28   45 1
  47   28   46 1
  48   28   47 1

#	End of record

