#	Name: ASD03730860
#	Creating user name:	WinNT
#	Creation time:	15. 06. 2019 20:44

#	Modifying user name:	WinNT
#	Modification time:	15. 06. 2019 20:44

#	Program:	/corina/corina34_cracker 3.40 0067  02.08.2006

@<TRIPOS>MOLECULE
ASD03730860
  77   84    0    0    0
SMALL
NO_CHARGES


@<TRIPOS>ATOM
   1 C1             0.5655     1.3980    -0.1597 C.2     
   2 C2             0.3733    -0.0664    -0.0916 C.ar    
   3 C3             1.4692    -0.9233    -0.2070 C.ar    
   4 C4             1.2831    -2.2885    -0.1420 C.ar    
   5 C5             0.0134    -2.8091     0.0366 C.ar    
   6 C6            -1.0768    -1.9654     0.1517 C.ar    
   7 C7            -0.9037    -0.5977     0.0942 C.ar    
   8 O8             1.6876     1.8616    -0.2178 O.2     
   9 N9            -0.5037     2.2185    -0.1630 N.am    
  10 C10            2.8525    -0.3582    -0.4025 C.3     
  11 O11            2.5606    -7.2756    -2.3404 O.3     
  12 C12            3.1596    -8.5647    -2.5693 C.3     
  13 O13            4.4411    -8.2493    -3.1449 O.3     
  14 C14            4.7627    -7.0117    -2.6656 C.ar    
  15 C15            3.6058    -6.4131    -2.1719 C.ar    
  16 C16            5.9689    -6.3368    -2.6087 C.ar    
  17 C17            6.0368    -5.0589    -2.0620 C.ar    
  18 C18            4.8729    -4.4681    -1.5796 C.ar    
  19 C19            3.6698    -5.1407    -1.6293 C.ar    
  20 O20            7.1130    -4.2376    -1.8962 O.3     
  21 C21            5.2593    -3.0993    -1.0865 C.3     
  22 C22            6.6534    -2.8875    -1.6923 C.3     
  23 N23            3.8296    -1.4498    -0.4087 N.am    
  24 C24            4.2899    -2.0413    -1.5290 C.2     
  25 C25            5.2814    -3.0172     0.4110 C.ar    
  26 C26            5.9591    -3.7065     1.3917 C.ar    
  27 C27            5.7624    -3.3890     2.7238 C.ar    
  28 C28            4.8831    -2.3784     3.0679 C.ar    
  29 C29            4.2012    -1.6857     2.0893 C.ar    
  30 C30            4.3933    -1.9983     0.7458 C.ar    
  31 O31            3.9819    -1.7716    -2.6707 O.2     
  32 N32           -1.1575     6.2633     0.8188 N.3     
  33 C33           -1.3850     5.8803    -0.5805 C.3     
  34 C34           -1.5664     4.3635    -0.6725 C.3     
  35 C35           -0.3127     3.6706    -0.1315 C.3     
  36 C36           -0.0709     4.1238     1.3109 C.3     
  37 C37            0.0672     5.6475     1.3455 C.3     
  38 C38           -1.1167     7.7245     0.9647 C.3     
  39 C39           -1.1291     8.0838     2.4282 C.ar    
  40 C40            0.0617     8.2133     3.1181 C.ar    
  41 C41            0.0504     8.5428     4.4606 C.ar    
  42 C42           -1.1518     8.7432     5.1130 C.ar    
  43 C43           -2.3425     8.6145     4.4228 C.ar    
  44 C44           -2.3310     8.2893     3.0793 C.ar    
  45 H45            2.1301    -2.9527    -0.2312 H       
  46 H46           -0.1270    -3.8788     0.0861 H       
  47 H47           -2.0651    -2.3780     0.2910 H       
  48 H48           -1.7551     0.0600     0.1883 H       
  49 H49           -1.3997     1.8475    -0.1863 H       
  50 H50            2.8965     0.1741    -1.3527 H       
  51 H51            3.0820     0.3303     0.4107 H       
  52 H52            3.2839    -9.1017    -1.6289 H       
  53 H53            2.5591    -9.1475    -3.2678 H       
  54 H54            6.8640    -6.8048    -2.9912 H       
  55 H55            2.7753    -4.6737    -1.2443 H       
  56 H56            7.3026    -2.3589    -0.9942 H       
  57 H57            6.5866    -2.3539    -2.6404 H       
  58 H58            6.6451    -4.4954     1.1207 H       
  59 H59            6.2944    -3.9288     3.4932 H       
  60 H60            4.7294    -2.1306     4.1078 H       
  61 H61            3.5158    -0.8982     2.3659 H       
  62 H62           -2.2817     6.3765    -0.9516 H       
  63 H63           -0.5280     6.1808    -1.1832 H       
  64 H64           -2.4316     4.0639    -0.0810 H       
  65 H65           -1.7197     4.0778    -1.7132 H       
  66 H66            0.5459     3.9386    -0.7473 H       
  67 H67           -0.9125     3.8204     1.9336 H       
  68 H68            0.8443     3.6668     1.6873 H       
  69 H69            0.9174     5.9491     0.7337 H       
  70 H70            0.2252     5.9747     2.3731 H       
  71 H71           -0.2077     8.1105     0.5035 H       
  72 H72           -1.9866     8.1629     0.4756 H       
  73 H73            1.0009     8.0567     2.6085 H       
  74 H74            0.9807     8.6433     4.9998 H       
  75 H75           -1.1606     8.9999     6.1620 H       
  76 H76           -3.2818     8.7708     4.9325 H       
  77 H77           -3.2612     8.1924     2.5391 H       
@<TRIPOS>BOND
   1    1    2 1
   2    1    8 2
   3    1    9 am
   4    2    3 ar
   5    2    7 ar
   6    3    4 ar
   7    3   10 1
   8    4    5 ar
   9    4   45 1
  10    5    6 ar
  11    5   46 1
  12    6    7 ar
  13    6   47 1
  14    7   48 1
  15    9   35 1
  16    9   49 1
  17   10   23 1
  18   10   50 1
  19   10   51 1
  20   11   12 1
  21   11   15 1
  22   12   13 1
  23   12   52 1
  24   12   53 1
  25   13   14 1
  26   14   15 ar
  27   14   16 ar
  28   15   19 ar
  29   16   17 ar
  30   16   54 1
  31   17   18 ar
  32   17   20 1
  33   18   19 ar
  34   18   21 1
  35   19   55 1
  36   20   22 1
  37   21   22 1
  38   21   24 1
  39   21   25 1
  40   22   56 1
  41   22   57 1
  42   23   24 am
  43   23   30 1
  44   24   31 2
  45   25   26 ar
  46   25   30 ar
  47   26   27 ar
  48   26   58 1
  49   27   28 ar
  50   27   59 1
  51   28   29 ar
  52   28   60 1
  53   29   30 ar
  54   29   61 1
  55   32   33 1
  56   32   37 1
  57   32   38 1
  58   33   34 1
  59   33   62 1
  60   33   63 1
  61   34   35 1
  62   34   64 1
  63   34   65 1
  64   35   36 1
  65   35   66 1
  66   36   37 1
  67   36   67 1
  68   36   68 1
  69   37   69 1
  70   37   70 1
  71   38   39 1
  72   38   71 1
  73   38   72 1
  74   39   40 ar
  75   39   44 ar
  76   40   41 ar
  77   40   73 1
  78   41   42 ar
  79   41   74 1
  80   42   43 ar
  81   42   75 1
  82   43   44 ar
  83   43   76 1
  84   44   77 1

#	End of record

