#	Name: ASD09116510
#	Creating user name:	WinNT
#	Creation time:	15. 06. 2019 21:21

#	Modifying user name:	WinNT
#	Modification time:	15. 06. 2019 21:21

#	Program:	/corina/corina34_cracker 3.40 0067  02.08.2006

@<TRIPOS>MOLECULE
ASD09116510
  85   92    0    0    0
SMALL
NO_CHARGES


@<TRIPOS>ATOM
   1 N1             0.1494     1.4030     0.4965 N.2     
   2 N2             0.1045     0.0009     0.4349 N.pl3   
   3 C3             1.4131     1.7419     0.5871 C.2     
   4 N4             2.1630     0.6335     0.5858 N.2     
   5 C5             1.3878    -0.4258     0.4945 C.2     
   6 N6             1.8092    -1.7415     0.4655 N.pl3   
   7 C7            -1.0381    -0.7958     0.3329 C.ar    
   8 N8             1.8975     3.0472     0.6711 N.pl3   
   9 C9             3.2661     3.2754     0.8595 C.ar    
  10 C10            3.8588     4.4155     0.3328 C.ar    
  11 C11            4.0294     2.3644     1.5779 C.ar    
  12 C12            5.3805     2.5902     1.7640 C.ar    
  13 C13            5.9740     3.7295     1.2317 C.ar    
  14 C14            5.2088     4.6414     0.5182 C.ar    
  15 N15           -0.9449    -2.0038    -0.1999 N.ar    
  16 C16           -2.0028    -2.7944    -0.3183 C.ar    
  17 C17           -3.2508    -2.3850     0.1382 C.ar    
  18 C18           -3.3916    -1.1153     0.6966 C.ar    
  19 C19           -2.2535    -0.3109     0.7971 C.ar    
  20 C20           -4.7111    -0.6342     1.1757 C.ar    
  21 C21           -1.8938    -4.1234    -0.9682 C.ar    
  22 C22           -2.8070    -4.4662    -1.9646 C.ar    
  23 C23           -3.8447    -3.4642    -2.3921 C.3     
  24 C24           -4.9755    -3.3716    -1.3710 C.3     
  25 C25           -4.4197    -3.3252     0.0487 C.3     
  26 C26           -0.9014    -5.0231    -0.5937 C.ar    
  27 C27           -0.8375    -6.2617    -1.2014 C.ar    
  28 C28           -1.7576    -6.6056    -2.1757 C.ar    
  29 C29           -2.7412    -5.7099    -2.5565 C.ar    
  30 C30           -5.4160    -1.3628     2.1316 C.ar    
  31 C31           -5.2470     0.5507     0.6754 C.ar    
  32 C32           -6.4747     0.9935     1.1244 C.ar    
  33 C33           -7.1726     0.2636     2.0696 C.ar    
  34 C34           -6.6429    -0.9107     2.5735 C.ar    
  35 F35            6.1237     1.7048     2.4631 F       
  36 N36            7.3435     3.9595     1.4203 N.3     
  37 C37            8.0461     4.0379     0.1332 C.3     
  38 C38            9.5530     4.1433     0.3787 C.3     
  39 C39            9.8425     5.3920     1.2163 C.3     
  40 C40            9.0610     5.3080     2.5304 C.3     
  41 C41            7.5684     5.1688     2.2225 C.3     
  42 N42           11.2810     5.4670     1.5046 N.3     
  43 C43           12.0595     5.6482     0.2656 C.3     
  44 C44           12.8964     6.9336     0.4354 C.3     
  45 C45           12.9762     7.0977     1.9760 C.3     
  46 C46           11.5806     6.5907     2.4174 C.3     
  47 H47            2.7555    -1.9489     0.5141 H       
  48 H48            1.1587    -2.4577     0.3964 H       
  49 H49            1.2862     3.7970     0.5991 H       
  50 H50            3.2640     5.1258    -0.2222 H       
  51 H51            3.5675     1.4799     1.9912 H       
  52 H52            5.6699     5.5261     0.1044 H       
  53 H53           -2.3200     0.6793     1.2231 H       
  54 H54           -3.3755    -2.4858    -2.4953 H       
  55 H55           -4.2568    -3.7652    -3.3552 H       
  56 H56           -5.5556    -2.4682    -1.5589 H       
  57 H57           -5.6241    -4.2415    -1.4741 H       
  58 H58           -4.0982    -4.3250     0.3403 H       
  59 H59           -5.2024    -2.9892     0.7288 H       
  60 H60           -0.1844    -4.7544     0.1679 H       
  61 H61           -0.0674    -6.9630    -0.9158 H       
  62 H62           -1.7079    -7.5786    -2.6415 H       
  63 H63           -3.4571    -5.9849    -3.3171 H       
  64 H64           -5.0034    -2.2797     2.5257 H       
  65 H65           -4.7026     1.1217    -0.0621 H       
  66 H66           -6.8910     1.9118     0.7373 H       
  67 H67           -8.1328     0.6139     2.4185 H       
  68 H68           -7.1921    -1.4767     3.3114 H       
  69 H69            7.8351     3.1421    -0.4508 H       
  70 H70            7.7049     4.9167    -0.4139 H       
  71 H71            9.8973     3.2583     0.9137 H       
  72 H72           10.0730     4.2172    -0.5764 H       
  73 H73            9.5338     6.2801     0.6650 H       
  74 H74            9.3976     4.4413     3.0992 H       
  75 H75            9.2296     6.2140     3.1125 H       
  76 H76            7.2294     6.0423     1.6656 H       
  77 H77            7.0105     5.0944     3.1559 H       
  78 H78           12.7189     4.7937     0.1137 H       
  79 H79           11.3849     5.7545    -0.5840 H       
  80 H80           13.8914     6.8047     0.0095 H       
  81 H81           12.3897     7.7859    -0.0172 H       
  82 H82           13.7677     6.4760     2.3944 H       
  83 H83           13.1166     8.1432     2.2506 H       
  84 H84           10.8371     7.3798     2.3046 H       
  85 H85           11.6123     6.2428     3.4499 H       
@<TRIPOS>BOND
   1    1    2 1
   2    1    3 2
   3    2    7 1
   4    2    5 1
   5    3    4 1
   6    3    8 1
   7    4    5 2
   8    5    6 1
   9    6   47 1
  10    6   48 1
  11    7   15 ar
  12    7   19 ar
  13    8    9 1
  14    8   49 1
  15    9   10 ar
  16    9   11 ar
  17   10   14 ar
  18   10   50 1
  19   11   12 ar
  20   11   51 1
  21   12   13 ar
  22   12   35 1
  23   13   14 ar
  24   13   36 1
  25   14   52 1
  26   15   16 ar
  27   16   17 ar
  28   16   21 1
  29   17   18 ar
  30   17   25 1
  31   18   19 ar
  32   18   20 1
  33   19   53 1
  34   20   30 ar
  35   20   31 ar
  36   21   22 ar
  37   21   26 ar
  38   22   23 1
  39   22   29 ar
  40   23   24 1
  41   23   54 1
  42   23   55 1
  43   24   25 1
  44   24   56 1
  45   24   57 1
  46   25   58 1
  47   25   59 1
  48   26   27 ar
  49   26   60 1
  50   27   28 ar
  51   27   61 1
  52   28   29 ar
  53   28   62 1
  54   29   63 1
  55   30   34 ar
  56   30   64 1
  57   31   32 ar
  58   31   65 1
  59   32   33 ar
  60   32   66 1
  61   33   34 ar
  62   33   67 1
  63   34   68 1
  64   36   37 1
  65   36   41 1
  66   37   38 1
  67   37   69 1
  68   37   70 1
  69   38   39 1
  70   38   71 1
  71   38   72 1
  72   39   40 1
  73   39   42 1
  74   39   73 1
  75   40   41 1
  76   40   74 1
  77   40   75 1
  78   41   76 1
  79   41   77 1
  80   42   43 1
  81   42   46 1
  82   43   44 1
  83   43   78 1
  84   43   79 1
  85   44   45 1
  86   44   80 1
  87   44   81 1
  88   45   46 1
  89   45   82 1
  90   45   83 1
  91   46   84 1
  92   46   85 1

#	End of record

