#	Name: ASD06590070
#	Creating user name:	WinNT
#	Creation time:	15. 06. 2019 21:06

#	Modifying user name:	WinNT
#	Modification time:	15. 06. 2019 21:06

#	Program:	/corina/corina34_cracker 3.40 0067  02.08.2006

@<TRIPOS>MOLECULE
ASD06590070
 315  315    0    0    0
SMALL
NO_CHARGES


@<TRIPOS>ATOM
   1 C1             2.3263    -5.7707     6.1766 C.2     
   2 O2             2.8741    -5.9249     5.1056 O.2     
   3 N3             4.5407    -5.2656     7.0313 N.am    
   4 C4             3.1130    -5.2691     7.3600 C.3     
   5 C5             2.6655    -3.8472     7.7044 C.3     
   6 C6             3.4505    -3.3452     8.9179 C.3     
   7 O7             2.9107    -2.9875     6.5896 O.3     
   8 C8            -1.0264    -5.5457     5.0885 C.2     
   9 O9            -1.2285    -4.7255     5.9588 O.2     
  10 N10            1.0127    -6.0425     6.3069 N.am    
  11 C11            0.2173    -6.3958     5.1285 C.3     
  12 C12           -0.1764    -7.8724     5.2029 C.3     
  13 C13            1.0644    -8.7263     5.1528 C.2     
  14 O14            2.1582    -8.2044     5.1068 O.2     
  15 N15            0.9585   -10.0698     5.1592 N.am    
  16 C16           -4.1966    -5.5870     3.2688 C.2     
  17 O17           -3.9736    -6.6803     2.7935 O.2     
  18 N18           -1.9141    -5.6969     4.0858 N.am    
  19 C19           -3.1232    -4.8706     4.0469 C.3     
  20 C20           -2.8070    -3.5357     3.3694 C.3     
  21 C21           -7.6916    -4.8593     2.3048 C.2     
  22 O22           -7.7050    -3.7781     2.8541 O.2     
  23 N23           -5.4044    -5.0129     3.1012 N.am    
  24 C24           -6.4479    -5.7094     2.3448 C.3     
  25 C25          -11.2032    -5.3564     1.4193 C.2     
  26 O26          -11.0658    -6.5572     1.3186 O.2     
  27 N27           -8.7890    -5.3006     1.6587 N.am    
  28 C28           -9.9980    -4.4742     1.6199 C.3     
  29 C29           -9.8975    -3.4773     0.4636 C.3     
  30 C30           -8.7490    -2.5020     0.7294 C.3     
  31 C31           -8.6485    -1.5052    -0.4269 C.3     
  32 N32           -7.5487    -0.5713    -0.1724 N.pl3   
  33 C33           -7.2657     0.4213    -1.0805 C.2     
  34 N34           -6.2873     1.2522    -0.8540 N.2     
  35 N35           -8.0148     0.5376    -2.2274 N.pl3   
  36 C36          -14.7126    -4.8692     0.5192 C.2     
  37 O37          -14.5399    -3.6984     0.2539 O.2     
  38 N38          -12.4338    -4.8109     1.3517 N.am    
  39 C39          -13.6055    -5.6685     1.1566 C.3     
  40 C40          -14.0769    -6.2035     2.5103 C.3     
  41 C41          -17.7827    -3.9549     0.5138 C.2     
  42 O42          -17.5459    -4.0310     1.7009 O.2     
  43 N43          -15.8946    -5.4553     0.2439 N.am    
  44 C44          -16.9319    -4.7106    -0.4742 C.3     
  45 C45          -17.8089    -5.6870    -1.2605 C.3     
  46 C46          -16.9815    -6.3596    -2.3255 C.2     
  47 O47          -15.8389    -6.0133    -2.5114 O.2     
  48 O48          -17.5138    -7.3434    -3.0675 O.3     
  49 C49          -20.9963    -2.2140     0.4436 C.2     
  50 O50          -21.1978    -2.4511    -0.7287 O.2     
  51 N51          -18.8068    -3.1946     0.0783 N.am    
  52 C52          -19.6339    -2.4601     1.0388 C.3     
  53 C53          -18.9700    -1.1205     1.3640 C.3     
  54 C54          -17.5911    -1.3705     1.9781 C.3     
  55 O55          -18.8260    -0.3567     0.1649 O.3     
  56 C56          -24.0911    -0.5326     1.4225 C.2     
  57 O57          -23.5468     0.0630     2.3279 O.2     
  58 N58          -21.9910    -1.7306     1.2139 N.am    
  59 C59          -23.3441    -1.6017     0.6675 C.3     
  60 C60          -24.0805    -2.9353     0.8093 C.3     
  61 C61          -23.3930    -3.9923    -0.0573 C.3     
  62 C62          -24.1294    -5.3259     0.0845 C.3     
  63 N63          -23.4710    -6.3379    -0.7453 N.pl3   
  64 C64          -23.9591    -7.6227    -0.7792 C.2     
  65 N65          -25.0076    -7.9404    -0.0730 N.2     
  66 N66          -23.3413    -8.5725    -1.5579 N.pl3   
  67 C67          -27.5717     0.5418     1.7293 C.2     
  68 O68          -27.9807    -0.4165     1.1087 O.2     
  69 N69          -25.3641    -0.2385     1.0916 N.am    
  70 C70          -26.0902     0.8008     1.8256 C.3     
  71 C71          -25.7714     2.1696     1.2209 C.3     
  72 C72          -24.2894     2.4869     1.4300 C.3     
  73 C73          -23.9753     3.8351     0.8344 C.2     
  74 O74          -24.8507     4.4788     0.2956 O.2     
  75 N75          -22.7217     4.3255     0.9003 N.am    
  76 C76          -30.6315     2.4181     2.4222 C.2     
  77 O77          -30.0225     3.4496     2.6120 O.2     
  78 N78          -28.4421     1.3752     2.3329 N.am    
  79 C79          -29.8823     1.1234     2.2393 C.3     
  80 C80          -30.2991     0.1346     3.3298 C.3     
  81 C81          -29.6340    -1.2190     3.0722 C.3     
  82 C82          -30.0445    -2.1930     4.1463 C.2     
  83 O83          -30.7952    -1.8394     5.0309 O.2     
  84 N84          -29.5775    -3.4571     4.1240 N.am    
  85 C85          -34.0945     3.3979     3.0633 C.2     
  86 O86          -34.4410     2.2523     3.2595 O.2     
  87 N87          -31.9784     2.4298     2.3748 N.am    
  88 C88          -32.7067     3.6884     2.5526 C.3     
  89 C89          -32.7994     4.4179     1.2109 C.3     
  90 C90          -31.4181     4.8170     0.7596 C.ar    
  91 C91          -30.6718     3.9553    -0.0228 C.ar    
  92 C92          -29.4051     4.3186    -0.4374 C.ar    
  93 C93          -28.8821     5.5494    -0.0684 C.ar    
  94 O94          -27.6364     5.9093    -0.4753 O.3     
  95 C95          -29.6331     6.4125     0.7164 C.ar    
  96 C96          -30.9013     6.0466     1.1240 C.ar    
  97 C97          -37.2223     5.2569     3.4154 C.2     
  98 O98          -36.7951     6.2036     2.7892 O.2     
  99 N99          -34.9505     4.4111     3.3021 N.am    
 100 C100         -36.2996     4.1287     3.7986 C.3     
 101 C101         -36.2644     3.9937     5.3222 C.3     
 102 C102         -35.4275     2.7720     5.7068 C.3     
 103 C103         -35.3924     2.6370     7.2304 C.3     
 104 N104         -34.5911     1.4672     7.5987 N.pl3   
 105 C105         -34.4163     1.1430     8.9233 C.2     
 106 N106         -33.7034     0.1022     9.2509 N.2     
 107 N107         -34.9935     1.9167     9.9023 N.pl3   
 108 C108         -40.5754     6.3638     4.3612 C.2     
 109 O109         -40.6434     5.5643     5.2707 O.2     
 110 N110         -38.5222     5.2138     3.7686 N.am    
 111 C111         -39.4192     6.3106     3.3960 C.3     
 112 C112         -39.9479     6.0782     1.9792 C.3     
 113 C113         -38.7879     6.1483     0.9841 C.3     
 114 C114         -39.3166     5.9159    -0.4327 C.3     
 115 C115         -38.1565     5.9860    -1.4278 C.3     
 116 N116         -38.6641     5.7629    -2.7882 N.3     
 117 C117         -43.8412     8.0017     4.4828 C.2     
 118 O118         -43.7543     8.3842     3.3351 O.2     
 119 N119         -41.5338     7.2998     4.2137 N.am    
 120 C120         -42.6577     7.3516     5.1519 C.3     
 121 C121         -42.2570     8.1663     6.3834 C.3     
 122 C122         -41.1374     7.4410     7.1326 C.3     
 123 C123         -40.6511     8.3132     8.2918 C.3     
 124 C124         -41.6665     6.1139     7.6800 C.3     
 125 C125         -46.0363    10.2876     4.6378 C.2     
 126 O126         -45.0935    10.7767     5.2138 O.2     
 127 N127         -44.9961     8.1581     5.1597 N.am    
 128 C128         -46.1466     8.7902     4.5091 C.3     
 129 C129         -47.4367     8.3143     5.1799 C.3     
 130 C130         -47.5955     6.8073     4.9686 C.3     
 131 C131         -48.8014     6.3049     5.7650 C.3     
 132 C132         -47.8114     6.5208     3.4813 C.3     
 133 O133         -46.9856    11.0781     4.1125 O.3     
 134 C134           5.4587    -5.3532     8.0141 C.2     
 135 O135           5.1030    -5.4349     9.1707 O.2     
 136 C136          23.1041    -6.0865    14.2824 C.3     
 137 C137          21.6131    -6.0902    14.6257 C.3     
 138 C138          20.7931    -5.9812    13.3386 C.3     
 139 C139          19.3022    -5.9849    13.6820 C.3     
 140 C140          18.4822    -5.8760    12.3949 C.3     
 141 C141          16.9912    -5.8797    12.7382 C.3     
 142 C142          16.1712    -5.7707    11.4511 C.3     
 143 C143          14.6802    -5.7744    11.7944 C.3     
 144 C144          13.8602    -5.6654    10.5073 C.3     
 145 C145          12.3692    -5.6691    10.8506 C.3     
 146 C146          11.5492    -5.5601     9.5635 C.3     
 147 C147          10.0583    -5.5638     9.9068 C.3     
 148 C148           9.2383    -5.4548     8.6197 C.3     
 149 C149           7.7473    -5.4585     8.9631 C.3     
 150 C150           6.9273    -5.3495     7.6760 C.3     
 151 H151           4.8252    -5.2002     6.1062 H       
 152 H152           2.9388    -5.9221     8.2152 H       
 153 H153           1.6003    -3.8475     7.9355 H       
 154 H154           4.5030    -3.2440     8.6532 H       
 155 H155           3.0592    -2.3764     9.2284 H       
 156 H156           3.3486    -4.0576     9.7366 H       
 157 H157           2.4438    -3.2462     5.7832 H       
 158 H158           0.5939    -6.0042     7.1810 H       
 159 H159           0.8056    -6.2216     4.2275 H       
 160 H160          -0.7091    -8.0599     6.1352 H       
 161 H161          -0.8216    -8.1193     4.3598 H       
 162 H162           0.0837   -10.4873     5.1960 H       
 163 H163           1.7572   -10.6194     5.1270 H       
 164 H164          -1.7525    -6.3530     3.3897 H       
 165 H165          -3.4716    -4.6884     5.0636 H       
 166 H166          -3.7066    -2.9208     3.3405 H       
 167 H167          -2.0306    -3.0175     3.9322 H       
 168 H168          -2.4586    -3.7178     2.3527 H       
 169 H169          -5.5827    -4.1385     3.4813 H       
 170 H170          -6.6731    -6.6604     2.8275 H       
 171 H171          -6.0995    -5.8915     1.3281 H       
 172 H172          -8.7783    -6.1653     1.2194 H       
 173 H173         -10.0975    -3.9314     2.5599 H       
 174 H174          -9.7092    -4.0159    -0.4651 H       
 175 H175         -10.8324    -2.9233     0.3792 H       
 176 H176          -8.9373    -1.9634     1.6582 H       
 177 H177          -7.8141    -3.0560     0.8138 H       
 178 H178          -8.4602    -2.0438    -1.3556 H       
 179 H179          -9.5834    -0.9512    -0.5113 H       
 180 H180          -7.0202    -0.6534     0.6369 H       
 181 H181          -6.0876     1.9525    -1.4947 H       
 182 H182          -8.7429    -0.0807    -2.3960 H       
 183 H183          -7.8151     1.2380    -2.8682 H       
 184 H184         -12.5438    -3.8506     1.4322 H       
 185 H185         -13.3405    -6.5037     0.5082 H       
 186 H186         -14.3419    -5.3684     3.1587 H       
 187 H187         -14.9487    -6.8416     2.3652 H       
 188 H188         -13.2762    -6.7817     2.9714 H       
 189 H189         -16.0584    -6.3703     0.5211 H       
 190 H190         -16.4635    -4.0073    -1.1628 H       
 191 H191         -18.2113    -6.4403    -0.5833 H       
 192 H192         -18.6296    -5.1428    -1.7278 H       
 193 H193         -16.9444    -7.7446    -3.7382 H       
 194 H194         -18.9962    -3.1338    -0.8711 H       
 195 H195         -19.7369    -3.0458     1.9523 H       
 196 H196         -19.5891    -0.5707     2.0729 H       
 197 H197         -16.9395    -1.8284     1.2339 H       
 198 H198         -17.1613    -0.4233     2.3038 H       
 199 H199         -17.6902    -2.0380     2.8341 H       
 200 H200         -19.6623    -0.1603    -0.2791 H       
 201 H201         -21.8109    -1.4679     2.1301 H       
 202 H202         -23.2860    -1.3290    -0.3863 H       
 203 H203         -24.0613    -3.2519     1.8521 H       
 204 H204         -25.1143    -2.8158     0.4849 H       
 205 H205         -23.4122    -3.6757    -1.1002 H       
 206 H206         -22.3592    -4.1117     0.2671 H       
 207 H207         -24.1101    -5.6424     1.1273 H       
 208 H208         -25.1631    -5.2064    -0.2399 H       
 209 H209         -22.6908    -6.1015    -1.2709 H       
 210 H210         -25.3519    -8.8469    -0.0969 H       
 211 H211         -22.5610    -8.3360    -2.0835 H       
 212 H212         -23.6856    -9.4790    -1.5818 H       
 213 H213         -25.7994    -0.7149     0.3675 H       
 214 H214         -25.7861     0.7863     2.8722 H       
 215 H215         -25.9930     2.1559     0.1537 H       
 216 H216         -26.3786     2.9325     1.7082 H       
 217 H217         -24.0678     2.5006     2.4972 H       
 218 H218         -23.6822     1.7240     0.9427 H       
 219 H219         -22.0216     3.8107     1.3312 H       
 220 H220         -22.5196     5.1933     0.5169 H       
 221 H221         -28.1150     2.1417     2.8293 H       
 222 H222         -30.1150     0.7042     1.2604 H       
 223 H223         -29.9865     0.5136     4.3028 H       
 224 H224         -31.3825     0.0153     3.3173 H       
 225 H225         -29.9466    -1.5981     2.0992 H       
 226 H226         -28.5506    -1.0997     3.0847 H       
 227 H227         -28.9771    -3.7399     3.4166 H       
 228 H228         -29.8417    -4.0840     4.8154 H       
 229 H229         -32.4655     1.6048     2.2229 H       
 230 H230         -32.1789     4.3153     3.2713 H       
 231 H231         -33.2476     3.7576     0.4685 H       
 232 H232         -33.4164     5.3094     1.3239 H       
 233 H233         -31.0794     2.9972    -0.3098 H       
 234 H234         -28.8223     3.6448    -1.0480 H       
 235 H235         -27.6189     6.3775    -1.3212 H       
 236 H236         -29.2280     7.3710     1.0053 H       
 237 H237         -31.4881     6.7199     1.7313 H       
 238 H238         -34.6734     5.3274     3.1452 H       
 239 H239         -36.6610     3.1987     3.3597 H       
 240 H240         -35.8202     4.8896     5.7562 H       
 241 H241         -37.2797     3.8722     5.6997 H       
 242 H242         -35.8717     1.8762     5.2728 H       
 243 H243         -34.4123     2.8936     5.3293 H       
 244 H244         -34.9482     3.5329     7.6644 H       
 245 H245         -36.4076     2.5154     7.6080 H       
 246 H246         -34.1838     0.9213     6.9080 H       
 247 H247         -33.5800    -0.1265    10.1854 H       
 248 H248         -35.5240     2.6912     9.6584 H       
 249 H249         -34.8702     1.6879    10.8368 H       
 250 H250         -38.8639     4.4566     4.2694 H       
 251 H251         -38.8737     7.2536     3.4302 H       
 252 H252         -40.4162     5.0955     1.9228 H       
 253 H253         -40.6828     6.8453     1.7352 H       
 254 H254         -38.3196     7.1310     1.0406 H       
 255 H255         -38.0530     5.3811     1.2281 H       
 256 H256         -39.7848     4.9332    -0.4892 H       
 257 H257         -40.0514     6.6831    -0.6767 H       
 258 H258         -37.6883     6.9687    -1.3714 H       
 259 H259         -37.4217     5.2188    -1.1839 H       
 260 H260         -39.3935     6.4223    -3.0146 H       
 261 H261         -37.9164     5.8044    -3.4644 H       
 262 H262         -41.4794     7.9392     3.4863 H       
 263 H263         -42.9235     6.3393     5.4567 H       
 264 H264         -41.9067     9.1498     6.0701 H       
 265 H265         -43.1194     8.2800     7.0402 H       
 266 H266         -40.3093     7.2484     6.4505 H       
 267 H267         -41.4792     8.5058     8.9738 H       
 268 H268         -39.8535     7.7965     8.8255 H       
 269 H269         -40.2742     9.2587     7.9018 H       
 270 H270         -42.4946     6.3065     8.3620 H       
 271 H271         -42.0129     5.4925     6.8541 H       
 272 H272         -40.8689     5.5971     8.2137 H       
 273 H273         -45.0656     7.8522     6.0775 H       
 274 H274         -46.1632     8.5164     3.4542 H       
 275 H275         -47.3916     8.5287     6.2477 H       
 276 H276         -48.2879     8.8345     4.7406 H       
 277 H277         -46.6957     6.2957     5.3103 H       
 278 H278         -48.9674     5.2500     5.5464 H       
 279 H279         -48.6103     6.4293     6.8309 H       
 280 H280         -49.6857     6.8774     5.4852 H       
 281 H281         -46.9523     6.8787     2.9139 H       
 282 H282         -47.9245     5.4472     3.3307 H       
 283 H283         -48.7112     7.0324     3.1396 H       
 284 H284         -46.8714    12.0322     4.2203 H       
 285 H285          23.6883    -6.1642    15.1994 H       
 286 H286          23.3299    -6.9338    13.6349 H       
 287 H287          23.3563    -5.1590    13.7684 H       
 288 H288          21.3609    -7.0177    15.1398 H       
 289 H289          21.3873    -5.2430    15.2733 H       
 290 H290          21.0453    -5.0537    12.8246 H       
 291 H291          21.0190    -6.8285    12.6911 H       
 292 H292          19.0500    -6.9125    14.1960 H       
 293 H293          19.0763    -5.1377    14.3295 H       
 294 H294          18.7343    -4.9484    11.8808 H       
 295 H295          18.7080    -6.7232    11.7473 H       
 296 H296          16.7390    -6.8072    13.2522 H       
 297 H297          16.7653    -5.0324    13.3857 H       
 298 H298          16.4234    -4.8432    10.9371 H       
 299 H299          16.3970    -6.6179    10.8036 H       
 300 H300          14.4280    -6.7019    12.3084 H       
 301 H301          14.4544    -4.9271    12.4419 H       
 302 H302          14.1124    -4.7379     9.9933 H       
 303 H303          14.0861    -6.5126     9.8598 H       
 304 H304          12.1171    -6.5966    11.3646 H       
 305 H305          12.1434    -4.8218    11.4981 H       
 306 H306          11.8014    -4.6326     9.0495 H       
 307 H307          11.7751    -6.4073     8.9160 H       
 308 H308           9.8061    -6.4913    10.4209 H       
 309 H309           9.8324    -4.7166    10.5544 H       
 310 H310           9.4905    -4.5273     8.1057 H       
 311 H311           9.4641    -6.3020     7.9722 H       
 312 H312           7.4951    -6.3860     9.4771 H       
 313 H313           7.5215    -4.6113     9.6106 H       
 314 H314           7.1531    -6.1968     7.0284 H       
 315 H315           7.1795    -4.4220     7.1619 H       
@<TRIPOS>BOND
   1    1    2 2
   2    1    4 1
   3    1   10 am
   4    3  134 am
   5    3    4 1
   6    3  151 1
   7    4    5 1
   8    4  152 1
   9    5    6 1
  10    5    7 1
  11    5  153 1
  12    6  154 1
  13    6  155 1
  14    6  156 1
  15    7  157 1
  16    8    9 2
  17    8   11 1
  18    8   18 am
  19   10   11 1
  20   10  158 1
  21   11   12 1
  22   11  159 1
  23   12   13 1
  24   12  160 1
  25   12  161 1
  26   13   14 2
  27   13   15 am
  28   15  162 1
  29   15  163 1
  30   16   17 2
  31   16   19 1
  32   16   23 am
  33   18   19 1
  34   18  164 1
  35   19   20 1
  36   19  165 1
  37   20  166 1
  38   20  167 1
  39   20  168 1
  40   21   22 2
  41   21   24 1
  42   21   27 am
  43   23   24 1
  44   23  169 1
  45   24  170 1
  46   24  171 1
  47   25   26 2
  48   25   28 1
  49   25   38 am
  50   27   28 1
  51   27  172 1
  52   28   29 1
  53   28  173 1
  54   29   30 1
  55   29  174 1
  56   29  175 1
  57   30   31 1
  58   30  176 1
  59   30  177 1
  60   31   32 1
  61   31  178 1
  62   31  179 1
  63   32   33 1
  64   32  180 1
  65   33   34 2
  66   33   35 1
  67   34  181 1
  68   35  182 1
  69   35  183 1
  70   36   37 2
  71   36   39 1
  72   36   43 am
  73   38   39 1
  74   38  184 1
  75   39   40 1
  76   39  185 1
  77   40  186 1
  78   40  187 1
  79   40  188 1
  80   41   42 2
  81   41   44 1
  82   41   51 am
  83   43   44 1
  84   43  189 1
  85   44   45 1
  86   44  190 1
  87   45   46 1
  88   45  191 1
  89   45  192 1
  90   46   47 2
  91   46   48 1
  92   48  193 1
  93   49   50 2
  94   49   52 1
  95   49   58 am
  96   51   52 1
  97   51  194 1
  98   52   53 1
  99   52  195 1
 100   53   54 1
 101   53   55 1
 102   53  196 1
 103   54  197 1
 104   54  198 1
 105   54  199 1
 106   55  200 1
 107   56   57 2
 108   56   59 1
 109   56   69 am
 110   58   59 1
 111   58  201 1
 112   59   60 1
 113   59  202 1
 114   60   61 1
 115   60  203 1
 116   60  204 1
 117   61   62 1
 118   61  205 1
 119   61  206 1
 120   62   63 1
 121   62  207 1
 122   62  208 1
 123   63   64 1
 124   63  209 1
 125   64   65 2
 126   64   66 1
 127   65  210 1
 128   66  211 1
 129   66  212 1
 130   67   68 2
 131   67   70 1
 132   67   78 am
 133   69   70 1
 134   69  213 1
 135   70   71 1
 136   70  214 1
 137   71   72 1
 138   71  215 1
 139   71  216 1
 140   72   73 1
 141   72  217 1
 142   72  218 1
 143   73   74 2
 144   73   75 am
 145   75  219 1
 146   75  220 1
 147   76   77 2
 148   76   79 1
 149   76   87 am
 150   78   79 1
 151   78  221 1
 152   79   80 1
 153   79  222 1
 154   80   81 1
 155   80  223 1
 156   80  224 1
 157   81   82 1
 158   81  225 1
 159   81  226 1
 160   82   83 2
 161   82   84 am
 162   84  227 1
 163   84  228 1
 164   85   86 2
 165   85   88 1
 166   85   99 am
 167   87   88 1
 168   87  229 1
 169   88   89 1
 170   88  230 1
 171   89   90 1
 172   89  231 1
 173   89  232 1
 174   90   91 ar
 175   90   96 ar
 176   91   92 ar
 177   91  233 1
 178   92   93 ar
 179   92  234 1
 180   93   94 1
 181   93   95 ar
 182   94  235 1
 183   95   96 ar
 184   95  236 1
 185   96  237 1
 186   97   98 2
 187   97  100 1
 188   97  110 am
 189   99  100 1
 190   99  238 1
 191  100  101 1
 192  100  239 1
 193  101  102 1
 194  101  240 1
 195  101  241 1
 196  102  103 1
 197  102  242 1
 198  102  243 1
 199  103  104 1
 200  103  244 1
 201  103  245 1
 202  104  105 1
 203  104  246 1
 204  105  106 2
 205  105  107 1
 206  106  247 1
 207  107  248 1
 208  107  249 1
 209  108  109 2
 210  108  111 1
 211  108  119 am
 212  110  111 1
 213  110  250 1
 214  111  112 1
 215  111  251 1
 216  112  113 1
 217  112  252 1
 218  112  253 1
 219  113  114 1
 220  113  254 1
 221  113  255 1
 222  114  115 1
 223  114  256 1
 224  114  257 1
 225  115  116 1
 226  115  258 1
 227  115  259 1
 228  116  260 1
 229  116  261 1
 230  117  118 2
 231  117  120 1
 232  117  127 am
 233  119  120 1
 234  119  262 1
 235  120  121 1
 236  120  263 1
 237  121  122 1
 238  121  264 1
 239  121  265 1
 240  122  123 1
 241  122  124 1
 242  122  266 1
 243  123  267 1
 244  123  268 1
 245  123  269 1
 246  124  270 1
 247  124  271 1
 248  124  272 1
 249  125  126 2
 250  125  128 1
 251  125  133 1
 252  127  128 1
 253  127  273 1
 254  128  129 1
 255  128  274 1
 256  129  130 1
 257  129  275 1
 258  129  276 1
 259  130  131 1
 260  130  132 1
 261  130  277 1
 262  131  278 1
 263  131  279 1
 264  131  280 1
 265  132  281 1
 266  132  282 1
 267  132  283 1
 268  133  284 1
 269  134  135 2
 270  134  150 1
 271  136  137 1
 272  136  285 1
 273  136  286 1
 274  136  287 1
 275  137  138 1
 276  137  288 1
 277  137  289 1
 278  138  139 1
 279  138  290 1
 280  138  291 1
 281  139  140 1
 282  139  292 1
 283  139  293 1
 284  140  141 1
 285  140  294 1
 286  140  295 1
 287  141  142 1
 288  141  296 1
 289  141  297 1
 290  142  143 1
 291  142  298 1
 292  142  299 1
 293  143  144 1
 294  143  300 1
 295  143  301 1
 296  144  145 1
 297  144  302 1
 298  144  303 1
 299  145  146 1
 300  145  304 1
 301  145  305 1
 302  146  147 1
 303  146  306 1
 304  146  307 1
 305  147  148 1
 306  147  308 1
 307  147  309 1
 308  148  149 1
 309  148  310 1
 310  148  311 1
 311  149  150 1
 312  149  312 1
 313  149  313 1
 314  150  314 1
 315  150  315 1

#	End of record

