#	Name: ASD02562043
#	Creating user name:	WinNT
#	Creation time:	15. 06. 2019 20:25

#	Modifying user name:	WinNT
#	Modification time:	15. 06. 2019 20:25

#	Program:	/corina/corina34_cracker 3.40 0067  02.08.2006

@<TRIPOS>MOLECULE
ASD02562043
  43   46    0    0    0
SMALL
NO_CHARGES


@<TRIPOS>ATOM
   1 C1             0.1364     1.3884     1.1091 C.2     
   2 C2             0.1576    -0.0179     1.0963 C.2     
   3 C3             1.2857    -0.6792     0.7694 C.2     
   4 N4             2.4262     0.0058     0.4459 N.pl3   
   5 C5             2.4358     1.3820     0.4497 C.2     
   6 C6             1.2598     2.0840     0.7901 C.2     
   7 C7             3.6781    -0.4089     0.0847 C.2     
   8 C8             4.4299     0.7281    -0.1255 C.2     
   9 N9             3.6439     1.7958     0.1051 N.2     
  10 N10            4.1117    -1.7283    -0.0455 N.3     
  11 C11            5.8537     0.7670    -0.5334 C.ar    
  12 C12            2.9882    -2.6665     0.0801 C.3     
  13 C13            3.3284    -3.9696    -0.6458 C.3     
  14 C14            2.1583    -4.9467    -0.5149 C.3     
  15 C15            1.9012    -5.2392     0.9647 C.3     
  16 C16            1.5610    -3.9360     1.6906 C.3     
  17 C17            2.7311    -2.9590     1.5597 C.3     
  18 C18            6.3119     1.7760    -1.3796 C.ar    
  19 C19            7.6405     1.8072    -1.7559 C.ar    
  20 C20            8.5158     0.8389    -1.2945 C.ar    
  21 C21            8.0660    -0.1643    -0.4547 C.ar    
  22 C22            6.7422    -0.2022    -0.0676 C.ar    
  23 Cl23           8.2136     3.0623    -2.8094 Cl      
  24 H24           -0.7710     1.9140     1.3673 H       
  25 H25           -0.7347    -0.5708     1.3500 H       
  26 H26            1.2901    -1.7592     0.7630 H       
  27 H27            1.2524     3.1640     0.7970 H       
  28 H28            4.6002    -1.8640    -0.9179 H       
  29 H29            2.0955    -2.2258    -0.3636 H       
  30 H30            3.5116    -3.7613    -1.6999 H       
  31 H31            4.2211    -4.4104    -0.2020 H       
  32 H32            1.2656    -4.5060    -0.9587 H       
  33 H33            2.4007    -5.8751    -1.0320 H       
  34 H34            1.0676    -5.9353     1.0579 H       
  35 H35            2.7939    -5.6799     1.4084 H       
  36 H36            0.6683    -3.4953     1.2468 H       
  37 H37            1.3778    -4.1444     2.7446 H       
  38 H38            3.6238    -3.3997     2.0035 H       
  39 H39            2.4887    -2.0306     2.0768 H       
  40 H40            5.6294     2.5312    -1.7404 H       
  41 H41            9.5538     0.8665    -1.5917 H       
  42 H42            8.7533    -0.9172    -0.0982 H       
  43 H43            6.3928    -0.9858     0.5884 H       
@<TRIPOS>BOND
   1    1    2 1
   2    1    6 2
   3    1   24 1
   4    2    3 2
   5    2   25 1
   6    3    4 1
   7    3   26 1
   8    4    5 1
   9    4    7 1
  10    5    6 1
  11    5    9 2
  12    6   27 1
  13    7    8 2
  14    7   10 1
  15    8    9 1
  16    8   11 1
  17   10   12 1
  18   10   28 1
  19   11   18 ar
  20   11   22 ar
  21   12   13 1
  22   12   17 1
  23   12   29 1
  24   13   14 1
  25   13   30 1
  26   13   31 1
  27   14   15 1
  28   14   32 1
  29   14   33 1
  30   15   16 1
  31   15   34 1
  32   15   35 1
  33   16   17 1
  34   16   36 1
  35   16   37 1
  36   17   38 1
  37   17   39 1
  38   18   19 ar
  39   18   40 1
  40   19   20 ar
  41   19   23 1
  42   20   21 ar
  43   20   41 1
  44   21   22 ar
  45   21   42 1
  46   22   43 1

#	End of record

