#	Name: ASD01152582
#	Creating user name:	WinNT
#	Creation time:	15. 06. 2019 19:06

#	Modifying user name:	WinNT
#	Modification time:	15. 06. 2019 19:06

#	Program:	/corina/corina34_cracker 3.40 0067  02.08.2006

@<TRIPOS>MOLECULE
ASD01152582
  53   55    0    0    0
SMALL
NO_CHARGES


@<TRIPOS>ATOM
   1 C1             0.1328     1.0870    -1.3388 C.2     
   2 N2             0.0842    -0.1838    -1.0944 N.2     
   3 N3            -0.9511    -0.8179    -0.4144 N.am    
   4 C4            -2.0182    -0.1425     0.0590 C.2     
   5 C5            -2.0695     1.3556    -0.1692 C.3     
   6 C6            -0.8962     1.9636    -0.9147 C.2     
   7 C7            -2.1657     2.0408     1.1954 C.3     
   8 O8            -0.8451     3.1543    -1.1459 O.2     
   9 C9             1.3150     1.6477    -2.0867 C.3     
  10 C10           -0.8830    -2.2018    -0.2155 C.ar    
  11 O11           -2.9092    -0.7156     0.6485 O.2     
  12 C12           -3.4733     1.6757     1.8496 C.ar    
  13 C13            0.2787    -2.7759     0.2807 C.ar    
  14 C14           -1.9806    -3.0017    -0.5096 C.ar    
  15 C15           -1.9141    -4.3674    -0.3137 C.ar    
  16 C16           -0.7569    -4.9427     0.1755 C.ar    
  17 C17            0.3421    -4.1482     0.4764 C.ar    
  18 C18           -3.5516     0.5602     2.6624 C.ar    
  19 C19           -4.5927     2.4597     1.6413 C.ar    
  20 C20           -5.7921     2.1257     2.2414 C.ar    
  21 C21           -4.7505     0.2249     3.2627 C.ar    
  22 C22           -5.8724     1.0062     3.0504 C.ar    
  23 Cl23          -7.3786     0.5861     3.8046 Cl      
  24 N24            2.2472     0.5608    -2.4147 N.3     
  25 C25            1.6444    -0.3800    -3.3684 C.3     
  26 C26            3.5157     1.0928    -2.9303 C.3     
  27 N27            1.5117    -4.7310     0.9766 N.am    
  28 C28            2.2536    -4.0752     1.8910 C.2     
  29 O29            1.9551    -2.9457     2.2170 O.2     
  30 C30            3.4539    -4.7454     2.5085 C.3     
  31 H31           -2.9804     1.5824    -0.7232 H       
  32 H32           -1.3397     1.7121     1.8261 H       
  33 H33           -2.1146     3.1216     1.0637 H       
  34 H34            0.9716     2.1217    -3.0062 H       
  35 H35            1.8216     2.3856    -1.4648 H       
  36 H36            1.1317    -2.1560     0.5140 H       
  37 H37           -2.8868    -2.5550    -0.8914 H       
  38 H38           -2.7686    -4.9868    -0.5430 H       
  39 H39           -0.7083    -6.0107     0.3282 H       
  40 H40           -2.6757    -0.0496     2.8280 H       
  41 H41           -4.5299     3.3336     1.0098 H       
  42 H42           -6.6664     2.7387     2.0792 H       
  43 H43           -4.8116    -0.6468     3.8974 H       
  44 H44            1.3868     0.1484    -4.2863 H       
  45 H45            2.3557    -1.1745    -3.5940 H       
  46 H46            0.7435    -0.8118    -2.9327 H       
  47 H47            3.9751     1.7316    -2.1760 H       
  48 H48            4.1873     0.2671    -3.1651 H       
  49 H49            3.3258     1.6745    -3.8324 H       
  50 H50            1.7886    -5.6069     0.6653 H       
  51 H51            3.5627    -5.7482     2.0953 H       
  52 H52            4.3485    -4.1628     2.2885 H       
  53 H53            3.3186    -4.8099     3.5881 H       
@<TRIPOS>BOND
   1    1    2 2
   2    1    9 1
   3    1    6 1
   4    2    3 1
   5    3    4 am
   6    3   10 1
   7    4    5 1
   8    4   11 2
   9    5    6 1
  10    5    7 1
  11    5   31 1
  12    6    8 2
  13    7   12 1
  14    7   32 1
  15    7   33 1
  16    9   24 1
  17    9   34 1
  18    9   35 1
  19   10   13 ar
  20   10   14 ar
  21   12   18 ar
  22   12   19 ar
  23   13   17 ar
  24   13   36 1
  25   14   15 ar
  26   14   37 1
  27   15   16 ar
  28   15   38 1
  29   16   17 ar
  30   16   39 1
  31   17   27 1
  32   18   21 ar
  33   18   40 1
  34   19   20 ar
  35   19   41 1
  36   20   22 ar
  37   20   42 1
  38   21   22 ar
  39   21   43 1
  40   22   23 1
  41   24   25 1
  42   24   26 1
  43   25   44 1
  44   25   45 1
  45   25   46 1
  46   26   47 1
  47   26   48 1
  48   26   49 1
  49   27   28 am
  50   27   50 1
  51   28   29 2
  52   28   30 1
  53   30   51 1
  54   30   52 1
  55   30   53 1

#	End of record

