#	Name: ASD01910702
#	Creating user name:	WinNT
#	Creation time:	15. 06. 2019 19:56

#	Modifying user name:	WinNT
#	Modification time:	15. 06. 2019 19:56

#	Program:	/corina/corina34_cracker 3.40 0067  02.08.2006

@<TRIPOS>MOLECULE
ASD01910702
  62   65    0    0    0
SMALL
NO_CHARGES


@<TRIPOS>ATOM
   1 C1            12.4810    -1.9059     4.2721 C.ar    
   2 C2            13.1009    -2.0697     3.0406 C.ar    
   3 C3            12.3916    -1.7501     1.8967 C.ar    
   4 C4            11.0887    -1.2782     2.0183 C.ar    
   5 N5            10.5324    -1.1353     3.2115 N.ar    
   6 C6            11.1848    -1.4326     4.3191 C.ar    
   7 N7            10.3645    -0.9533     0.8772 N.3     
   8 C8             9.0190    -0.4775     1.2253 C.3     
   9 C9             8.3208     0.0388    -0.0373 C.3     
  10 N10            8.3616    -1.0183    -1.0591 N.am    
  11 C11            9.6585    -1.6412    -1.3646 C.3     
  12 C12           10.3040    -2.0914    -0.0497 C.3     
  13 C13            7.2404    -1.4055    -1.6989 C.2     
  14 C14            7.3210    -2.3785    -2.8064 C.ar    
  15 O15            6.1625    -0.9536    -1.3641 O.2     
  16 C16            6.3464    -3.3726    -2.9362 C.ar    
  17 C17            6.4171    -4.2838    -3.9679 C.ar    
  18 C18            7.4557    -4.2217    -4.8854 C.ar    
  19 C19            8.4406    -3.2276    -4.7653 C.ar    
  20 C20            8.3661    -2.3027    -3.7265 C.ar    
  21 C21            9.5140    -3.1615    -5.7108 C.1     
  22 C22           10.3941    -3.1073    -6.4859 C.1     
  23 C23           11.4675    -3.0412    -7.4314 C.ar    
  24 O24            7.5203    -5.1213    -5.8984 O.3     
  25 C25            6.4856    -6.1050    -5.9594 C.3     
  26 C26           12.4477    -2.0526    -7.3127 C.ar    
  27 C27           13.4787    -1.9951    -8.2273 C.ar    
  28 C28           13.5434    -2.9130    -9.2605 C.ar    
  29 C29           12.5761    -3.8951    -9.3845 C.ar    
  30 C30           11.5429    -3.9688    -8.4742 C.ar    
  31 C31           12.6556    -4.8902   -10.5135 C.3     
  32 C32           12.3784    -1.0513    -6.1886 C.3     
  33 C33           14.6725    -2.8428   -10.2562 C.3     
  34 H34           13.0058    -2.1505     5.1838 H       
  35 H35           14.1142    -2.4379     2.9772 H       
  36 H36           12.8433    -1.8651     0.9225 H       
  37 H37           10.6989    -1.3034     5.2749 H       
  38 H38            8.4416    -1.2985     1.6504 H       
  39 H39            9.0958     0.3293     1.9542 H       
  40 H40            7.2844     0.2861     0.1926 H       
  41 H41            8.8385     0.9244    -0.4057 H       
  42 H42            9.5065    -2.5046    -2.0123 H       
  43 H43           10.3047    -0.9170    -1.8607 H       
  44 H44           11.3127    -2.4550    -0.2456 H       
  45 H45            9.7087    -2.8899     0.3931 H       
  46 H46            5.5353    -3.4270    -2.2252 H       
  47 H47            5.6612    -5.0493    -4.0622 H       
  48 H48            9.1202    -1.5358    -3.6284 H       
  49 H49            6.6566    -6.7597    -6.8139 H       
  50 H50            6.4906    -6.6950    -5.0429 H       
  51 H51            5.5202    -5.6106    -6.0679 H       
  52 H52           14.2371    -1.2315    -8.1368 H       
  53 H53           10.7888    -4.7356    -8.5721 H       
  54 H54           13.2349    -5.7565   -10.1941 H       
  55 H55           11.6500    -5.2073   -10.7897 H       
  56 H56           13.1394    -4.4265   -11.3731 H       
  57 H57           12.9215    -1.4360    -5.3254 H       
  58 H58           12.8271    -0.1116    -6.5108 H       
  59 H59           11.3366    -0.8820    -5.9165 H       
  60 H60           15.5052    -3.4521    -9.9048 H       
  61 H61           14.3301    -3.2172   -11.2209 H       
  62 H62           14.9990    -1.8084   -10.3630 H       
@<TRIPOS>BOND
   1    1    2 ar
   2    1    6 ar
   3    1   34 1
   4    2    3 ar
   5    2   35 1
   6    3    4 ar
   7    3   36 1
   8    4    5 ar
   9    4    7 1
  10    5    6 ar
  11    6   37 1
  12    7    8 1
  13    7   12 1
  14    8    9 1
  15    8   38 1
  16    8   39 1
  17    9   10 1
  18    9   40 1
  19    9   41 1
  20   10   11 1
  21   10   13 am
  22   11   12 1
  23   11   42 1
  24   11   43 1
  25   12   44 1
  26   12   45 1
  27   13   14 1
  28   13   15 2
  29   14   16 ar
  30   14   20 ar
  31   16   17 ar
  32   16   46 1
  33   17   18 ar
  34   17   47 1
  35   18   19 ar
  36   18   24 1
  37   19   20 ar
  38   19   21 1
  39   20   48 1
  40   21   22 3
  41   22   23 1
  42   23   26 ar
  43   23   30 ar
  44   24   25 1
  45   25   49 1
  46   25   50 1
  47   25   51 1
  48   26   27 ar
  49   26   32 1
  50   27   28 ar
  51   27   52 1
  52   28   29 ar
  53   28   33 1
  54   29   30 ar
  55   29   31 1
  56   30   53 1
  57   31   54 1
  58   31   55 1
  59   31   56 1
  60   32   57 1
  61   32   58 1
  62   32   59 1
  63   33   60 1
  64   33   61 1
  65   33   62 1

#	End of record

