#	Name: ASD01350055
#	Creating user name:	WinNT
#	Creation time:	15. 06. 2019 19:16

#	Modifying user name:	WinNT
#	Modification time:	15. 06. 2019 19:16

#	Program:	/corina/corina34_cracker 3.40 0067  02.08.2006

@<TRIPOS>MOLECULE
ASD01350055
  68   70    0    0    0
SMALL
NO_CHARGES


@<TRIPOS>ATOM
   1 C1             1.5284     2.6455    -1.5050 C.3     
   2 C2             1.3276     1.1362    -1.3545 C.3     
   3 C3             2.0159     0.4121    -2.5133 C.3     
   4 C4             1.8151    -1.0972    -2.3628 C.3     
   5 C5             2.5034    -1.8213    -3.5215 C.3     
   6 C6             2.3026    -3.3306    -3.3710 C.3     
   7 C7             2.9910    -4.0547    -4.5298 C.3     
   8 C8             2.7902    -5.5640    -4.3793 C.3     
   9 C9             3.4785    -6.2881    -5.5381 C.3     
  10 C10            3.2807    -7.7747    -5.3899 C.2     
  11 O11            2.6512    -8.2120    -4.4500 O.2     
  12 N12            3.8034    -8.6183    -6.3018 N.am    
  13 C13            3.7053   -10.0662    -6.1012 C.3     
  14 C14            3.5871   -10.7517    -7.4380 C.ar    
  15 C15            4.3415   -10.3069    -8.5113 C.ar    
  16 C16            4.2416   -10.9224    -9.7425 C.ar    
  17 C17            3.3804   -11.9968    -9.9156 C.ar    
  18 C18            2.6219   -12.4515    -8.8252 C.ar    
  19 C19            2.7322   -11.8240    -7.5879 C.ar    
  20 C20            1.7267   -13.6088    -9.0197 C.ar    
  21 C21            0.7656   -13.9841    -8.0940 C.ar    
  22 C22           -0.0327   -15.0824    -8.3511 C.ar    
  23 C23            0.1184   -15.8098    -9.5216 C.ar    
  24 C24            1.0697   -15.4511   -10.4562 C.ar    
  25 C25            1.8797   -14.3491   -10.2148 C.ar    
  26 C26            2.9152   -13.8957   -11.1612 C.2     
  27 O27            3.4342   -14.6685   -11.9433 O.2     
  28 O28            3.2671   -12.5895   -11.1298 O.3     
  29 C29            4.9583   -10.5672    -5.3801 C.3     
  30 N30            5.1093    -9.8515    -4.1062 N.3     
  31 C31            4.1686   -10.3628    -3.1004 C.3     
  32 C32            6.4933    -9.9285    -3.6199 C.3     
  33 H33            2.5943     2.8731    -1.4938 H       
  34 H34            1.0959     2.9772    -2.4489 H       
  35 H35            1.0380     3.1613    -0.6794 H       
  36 H36            1.7601     0.8045    -0.4105 H       
  37 H37            0.2617     0.9086    -1.3656 H       
  38 H38            1.5834     0.7438    -3.4572 H       
  39 H39            3.0818     0.6397    -2.5021 H       
  40 H40            2.2476    -1.4290    -1.4188 H       
  41 H41            0.7492    -1.3248    -2.3739 H       
  42 H42            2.0709    -1.4896    -4.4655 H       
  43 H43            3.5693    -1.5937    -3.5104 H       
  44 H44            2.7351    -3.6624    -2.4271 H       
  45 H45            1.2367    -3.5582    -3.3822 H       
  46 H46            2.5585    -3.7230    -5.4738 H       
  47 H47            4.0569    -3.8271    -4.5186 H       
  48 H48            3.2226    -5.8958    -3.4354 H       
  49 H49            1.7242    -5.7916    -4.3905 H       
  50 H50            3.0460    -5.9564    -6.4820 H       
  51 H51            4.5444    -6.0605    -5.5269 H       
  52 H52            4.2444    -8.2668    -7.0910 H       
  53 H53            2.8251   -10.2908    -5.4987 H       
  54 H54            5.0135    -9.4711    -8.3835 H       
  55 H55            4.8342   -10.5671   -10.5726 H       
  56 H56            2.1452   -12.1704    -6.7502 H       
  57 H57            0.6419   -13.4230    -7.1795 H       
  58 H58           -0.7824   -15.3776    -7.6319 H       
  59 H59           -0.5141   -16.6660    -9.7042 H       
  60 H60            1.1829   -16.0221   -11.3659 H       
  61 H61            4.8638   -11.6359    -5.1875 H       
  62 H62            5.8334   -10.3865    -6.0044 H       
  63 H63            4.4238   -11.3937    -2.8551 H       
  64 H64            4.2294    -9.7497    -2.2012 H       
  65 H65            3.1547   -10.3243    -3.4985 H       
  66 H66            7.1620    -9.4796    -4.3544 H       
  67 H67            6.5771    -9.3906    -2.6756 H       
  68 H68            6.7678   -10.9725    -3.4689 H       
@<TRIPOS>BOND
   1    1    2 1
   2    1   33 1
   3    1   34 1
   4    1   35 1
   5    2    3 1
   6    2   36 1
   7    2   37 1
   8    3    4 1
   9    3   38 1
  10    3   39 1
  11    4    5 1
  12    4   40 1
  13    4   41 1
  14    5    6 1
  15    5   42 1
  16    5   43 1
  17    6    7 1
  18    6   44 1
  19    6   45 1
  20    7    8 1
  21    7   46 1
  22    7   47 1
  23    8    9 1
  24    8   48 1
  25    8   49 1
  26    9   10 1
  27    9   50 1
  28    9   51 1
  29   10   11 2
  30   10   12 am
  31   12   13 1
  32   12   52 1
  33   13   14 1
  34   13   29 1
  35   13   53 1
  36   14   15 ar
  37   14   19 ar
  38   15   16 ar
  39   15   54 1
  40   16   17 ar
  41   16   55 1
  42   17   18 ar
  43   17   28 1
  44   18   19 ar
  45   18   20 1
  46   19   56 1
  47   20   21 ar
  48   20   25 ar
  49   21   22 ar
  50   21   57 1
  51   22   23 ar
  52   22   58 1
  53   23   24 ar
  54   23   59 1
  55   24   25 ar
  56   24   60 1
  57   25   26 1
  58   26   27 2
  59   26   28 1
  60   29   30 1
  61   29   61 1
  62   29   62 1
  63   30   31 1
  64   30   32 1
  65   31   63 1
  66   31   64 1
  67   31   65 1
  68   32   66 1
  69   32   67 1
  70   32   68 1

#	End of record

