#	Name: ASD02508330
#	Creating user name:	WinNT
#	Creation time:	15. 06. 2019 20:24

#	Modifying user name:	WinNT
#	Modification time:	15. 06. 2019 20:24

#	Program:	/corina/corina34_cracker 3.40 0067  02.08.2006

@<TRIPOS>MOLECULE
ASD02508330
  52   54    0    0    0
SMALL
NO_CHARGES


@<TRIPOS>ATOM
   1 C1             0.8947    -0.5444    -1.1811 C.ar    
   2 C2             0.0186    -0.0697    -0.2132 C.ar    
   3 C3             0.3540     1.0537     0.5318 C.ar    
   4 C4             1.5565     1.6949     0.3081 C.ar    
   5 C5             2.4262     1.2200    -0.6565 C.ar    
   6 C6             2.0956     0.1016    -1.3997 C.ar    
   7 S7             3.9591     2.0415    -0.9390 S.o2    
   8 O8             4.3503     1.7160    -2.2658 O.2     
   9 O9             3.7884     3.3771    -0.4847 O.2     
  10 C10            5.1514     1.3019     0.1269 C.ar    
  11 C11            5.8876     0.2159    -0.3098 C.ar    
  12 C12            6.8229    -0.3662     0.5230 C.ar    
  13 C13            7.0237     0.1405     1.8008 C.ar    
  14 C14            6.2824     1.2316     2.2363 C.ar    
  15 C15            5.3527     1.8124     1.3962 C.ar    
  16 N16           -1.1970    -0.7204     0.0101 N.am    
  17 C17           -2.4588    -0.0014    -0.1823 C.3     
  18 S18           -1.2118    -2.3046     0.4923 S.o2    
  19 C19           -1.3503    -2.3138     2.2488 C.ar    
  20 O20           -2.4179    -2.8650    -0.0083 O.2     
  21 O21            0.0736    -2.8286     0.1883 O.2     
  22 C22           -2.5979    -2.3349     2.8437 C.ar    
  23 C23           -2.7065    -2.3422     4.2217 C.ar    
  24 C24           -1.5675    -2.3288     5.0049 C.ar    
  25 C25           -0.3199    -2.3086     4.4100 C.ar    
  26 C26           -0.2112    -2.3057     3.0319 C.ar    
  27 C27           -1.6859    -2.3356     6.5072 C.3     
  28 N28            7.9685    -0.4461     2.6459 N.pl3   
  29 C29           -2.8569    -0.0650    -1.6343 C.2     
  30 C30           -4.0352    -0.5280    -1.9708 C.2     
  31 H31            0.6390    -1.4202    -1.7590 H       
  32 H32           -0.3250     1.4255     1.2848 H       
  33 H33            1.8179     2.5684     0.8870 H       
  34 H34            2.7771    -0.2666    -2.1523 H       
  35 H35            5.7308    -0.1778    -1.3032 H       
  36 H36            7.3973    -1.2146     0.1815 H       
  37 H37            6.4361     1.6280     3.2291 H       
  38 H38            4.7763     2.6609     1.7340 H       
  39 H39           -3.2359    -0.4616     0.4280 H       
  40 H40           -2.3326     1.0398     0.1146 H       
  41 H41           -3.4878    -2.3454     2.2318 H       
  42 H42           -3.6813    -2.3579     4.6865 H       
  43 H43            0.5700    -2.2978     5.0219 H       
  44 H44            0.7635    -2.2900     2.5672 H       
  45 H45           -1.7000    -3.3648     6.8659 H       
  46 H46           -0.8346    -1.8112     6.9412 H       
  47 H47           -2.6089    -1.8358     6.8012 H       
  48 H48            8.4853    -1.2081     2.3408 H       
  49 H49            8.1078    -0.0914     3.5379 H       
  50 H50           -2.1707     0.2712    -2.3976 H       
  51 H51           -4.3205    -0.5736    -3.0114 H       
  52 H52           -4.7214    -0.8642    -1.2076 H       
@<TRIPOS>BOND
   1    1    2 ar
   2    1    6 ar
   3    1   31 1
   4    2    3 ar
   5    2   16 1
   6    3    4 ar
   7    3   32 1
   8    4    5 ar
   9    4   33 1
  10    5    6 ar
  11    5    7 1
  12    6   34 1
  13    7    8 2
  14    7    9 2
  15    7   10 1
  16   10   11 ar
  17   10   15 ar
  18   11   12 ar
  19   11   35 1
  20   12   13 ar
  21   12   36 1
  22   13   14 ar
  23   13   28 1
  24   14   15 ar
  25   14   37 1
  26   15   38 1
  27   16   17 1
  28   16   18 am
  29   17   29 1
  30   17   39 1
  31   17   40 1
  32   18   19 1
  33   18   20 2
  34   18   21 2
  35   19   22 ar
  36   19   26 ar
  37   22   23 ar
  38   22   41 1
  39   23   24 ar
  40   23   42 1
  41   24   25 ar
  42   24   27 1
  43   25   26 ar
  44   25   43 1
  45   26   44 1
  46   27   45 1
  47   27   46 1
  48   27   47 1
  49   28   48 1
  50   28   49 1
  51   29   30 2
  52   29   50 1
  53   30   51 1
  54   30   52 1

#	End of record

