#	Name: ASD03240506
#	Creating user name:	WinNT
#	Creation time:	15. 06. 2019 20:35

#	Modifying user name:	WinNT
#	Modification time:	15. 06. 2019 20:35

#	Program:	/corina/corina34_cracker 3.40 0067  02.08.2006

@<TRIPOS>MOLECULE
ASD03240506
  40   42    0    0    0
SMALL
NO_CHARGES


@<TRIPOS>ATOM
   1 C1            -0.4883     1.5923    -0.1282 C.ar    
   2 C2            -0.1881     0.2421    -0.1237 C.ar    
   3 C3             0.5210     2.5258    -0.2506 C.ar    
   4 C4             1.8439     2.1061    -0.3698 C.ar    
   5 C5             2.1407     0.7450    -0.3647 C.ar    
   6 C6             1.1238    -0.1801    -0.2412 C.ar    
   7 C7             2.9336     3.1058    -0.5022 C.2     
   8 C8             4.2651     2.8353    -0.6261 C.2     
   9 N9             4.9137     4.0136    -0.7202 N.pl3   
  10 N10            3.9654     5.0415    -0.6537 N.2     
  11 C11            2.7802     4.5056    -0.5290 C.2     
  12 C12           -1.2942    -0.7726     0.0103 C.3     
  13 C13           -0.9616    -1.7426     1.1458 C.3     
  14 C14           -1.4325    -1.5383    -1.2802 C.ar    
  15 C15           -2.5574    -1.3707    -2.0660 C.ar    
  16 C16           -2.6848    -2.0727    -3.2498 C.ar    
  17 C17           -1.6862    -2.9434    -3.6482 C.ar    
  18 C18           -0.5606    -3.1108    -2.8614 C.ar    
  19 C19           -0.4317    -2.4039    -1.6806 C.ar    
  20 N20           -0.9448    -1.0153     2.4220 N.3     
  21 Cl21          -1.8457    -3.8260    -5.1346 Cl      
  22 C22           -0.6281    -1.9170     3.5377 C.3     
  23 H23           -1.5148     1.9165    -0.0403 H       
  24 H24            0.2854     3.5798    -0.2543 H       
  25 H25            3.1647     0.4143    -0.4568 H       
  26 H26            1.3529    -1.2355    -0.2368 H       
  27 H27            4.7177     1.8549    -0.6452 H       
  28 H28            5.8719     4.1292    -0.8171 H       
  29 H29            1.8463     5.0426    -0.4527 H       
  30 H30           -2.2312    -0.2616     0.2317 H       
  31 H31           -1.7162    -2.5282     1.1853 H       
  32 H32            0.0174    -2.1878     0.9683 H       
  33 H33           -3.3371    -0.6912    -1.7547 H       
  34 H34           -3.5639    -1.9419    -3.8634 H       
  35 H35            0.2193    -3.7903    -3.1719 H       
  36 H36            0.4469    -2.5345    -1.0663 H       
  37 H37           -0.2988    -0.2409     2.3884 H       
  38 H38            0.3532    -2.3633     3.3768 H       
  39 H39           -0.6222    -1.3528     4.4703 H       
  40 H40           -1.3804    -2.7038     3.5937 H       
@<TRIPOS>BOND
   1    1    2 ar
   2    1    3 ar
   3    1   23 1
   4    2   12 1
   5    2    6 ar
   6    3    4 ar
   7    3   24 1
   8    4    5 ar
   9    4    7 1
  10    5    6 ar
  11    5   25 1
  12    6   26 1
  13    7    8 2
  14    7   11 1
  15    8    9 1
  16    8   27 1
  17    9   10 1
  18    9   28 1
  19   10   11 2
  20   11   29 1
  21   12   13 1
  22   12   14 1
  23   12   30 1
  24   13   20 1
  25   13   31 1
  26   13   32 1
  27   14   15 ar
  28   14   19 ar
  29   15   16 ar
  30   15   33 1
  31   16   17 ar
  32   16   34 1
  33   17   18 ar
  34   17   21 1
  35   18   19 ar
  36   18   35 1
  37   19   36 1
  38   20   22 1
  39   20   37 1
  40   22   38 1
  41   22   39 1
  42   22   40 1

#	End of record

